TITL C-2782238-9940-787 0.00145060369194795 125000 -1041.50637278599 0 0 180 (C1) n - 1
REM
REM in /home/nfs/bkarasulu/CARBON/AIRSS/Generating-Clusters/REBO/Higher-Symm/SD-CG/HFTN-CG
REM
REM
REM
REM
REM
REM ./C.cell (12c818d87b63d06a65506943cc24bca4)
REM
REM compiler GCC version 9.2.1 20190827 (Red Hat 9.2.1-1)
REM options -cpp -mtune=generic -march=x86-64 -g -O0 -fpre-include=/usr/include/finclude/math-vector-fortran.h
REM seed -807543872 762882772 -1953051266 1686057059 389913670 -2136628504 1143531532 488016806 2117012635 -1791511853 1467639623 2088782663 1403967348 1639988664 -693529190 605412740 -1596489448 379746350 466387093 -402219661 -2022131793 992671628 692556883 -2074354719 1623752818 2015062285 -332890415 1203379495 -1609397601 1012577115 1521989972 -427077765 671282335
REM
CELL 1.54180   50.00000   50.00000   50.00000   90.00000   90.00000   90.00000
LATT -1
SFAC C  
C      1  0.5790410000000  0.4882350000000  0.4155400000000 1.0
C      1  0.5818360000000  0.5691700000000  0.4634170000000 1.0
C      1  0.5799730000000  0.5593230000000  0.5611120000000 1.0
C      1  0.5783180000000  0.4644700000000  0.5719640000000 1.0
C      1  0.5792930000000  0.4221810000000  0.4873570000000 1.0
C      1  0.4415290000000  0.4399010000000  0.5762400000000 1.0
C      1  0.4454870000000  0.4088810000000  0.4653050000000 1.0
C      1  0.4443130000000  0.5023310000000  0.4055020000000 1.0
C      1  0.4473520000000  0.5912130000000  0.4730400000000 1.0
C      1  0.4472200000000  0.5499140000000  0.5755530000000 1.0
C      1  0.4550640000000  0.4908510000000  0.4737230000000 1.0
C      1  0.4576430000000  0.5193340000000  0.4838600000000 1.0
C      1  0.4588520000000  0.5211260000000  0.5141230000000 1.0
C      1  0.4611390000000  0.4904710000000  0.5262670000000 1.0
C      1  0.4518680000000  0.4700120000000  0.5004170000000 1.0
C      1  0.4738240000000  0.4725450000000  0.5891950000000 1.0
C      1  0.4768930000000  0.4097020000000  0.5043830000000 1.0
C      1  0.4763170000000  0.4660820000000  0.4153470000000 1.0
C      1  0.4778770000000  0.5698550000000  0.4455330000000 1.0
C      1  0.4788360000000  0.5742220000000  0.5499410000000 1.0
C      1  0.4365410000000  0.5637350000000  0.5469090000000 1.0
C      1  0.4313120000000  0.4707910000000  0.5674940000000 1.0
C      1  0.4370020000000  0.4182480000000  0.4960540000000 1.0
C      1  0.4328640000000  0.4752000000000  0.4220590000000 1.0
C      1  0.4377140000000  0.5654190000000  0.4534200000000 1.0
C      1  0.4762580000000  0.5047830000000  0.3995660000000 1.0
C      1  0.4795700000000  0.5971640000000  0.4744120000000 1.0
C      1  0.4789920000000  0.5515260000000  0.5827320000000 1.0
C      1  0.4743640000000  0.4332450000000  0.5821580000000 1.0
C      1  0.4756960000000  0.4009960000000  0.4609490000000 1.0
C      1  0.3980950000000  0.4501470000000  0.5084380000000 1.0
C      1  0.4026270000000  0.4779700000000  0.4475990000000 1.0
C      1  0.4060580000000  0.5426360000000  0.4614070000000 1.0
C      1  0.4065270000000  0.5478500000000  0.5264180000000 1.0
C      1  0.3972720000000  0.4893350000000  0.5578500000000 1.0
C      1  0.5326600000000  0.4773720000000  0.4981600000000 1.0
C      1  0.5347300000000  0.4967560000000  0.4775930000000 1.0
C      1  0.5340070000000  0.5229050000000  0.4877800000000 1.0
C      1  0.5333010000000  0.5219900000000  0.5164350000000 1.0
C      1  0.5272010000000  0.4914990000000  0.5253440000000 1.0
C      1  0.4631680000000  0.5455980000000  0.4643090000000 1.0
C      1  0.4640170000000  0.5482990000000  0.5339430000000 1.0
C      1  0.4605480000000  0.4807300000000  0.5588830000000 1.0
C      1  0.4614160000000  0.4388610000000  0.5053300000000 1.0
C      1  0.4597170000000  0.4787330000000  0.4422320000000 1.0
C      1  0.6067840000000  0.5232590000000  0.5483060000000 1.0
C      1  0.6044640000000  0.4676370000000  0.5323500000000 1.0
C      1  0.6050130000000  0.4604700000000  0.4753120000000 1.0
C      1  0.6058380000000  0.5109690000000  0.4468830000000 1.0
C      1  0.6090730000000  0.5436780000000  0.4942210000000 1.0
C      1  0.5457110000000  0.4977560000000  0.5969480000000 1.0
C      1  0.5456880000000  0.4094020000000  0.5257290000000 1.0
C      1  0.5453180000000  0.4467630000000  0.4197510000000 1.0
C      1  0.5443990000000  0.5587540000000  0.4243760000000 1.0
C      1  0.5469990000000  0.5909380000000  0.5323180000000 1.0
C      1  0.5364450000000  0.4510980000000  0.4889380000000 1.0
C      1  0.5365100000000  0.4929980000000  0.4471900000000 1.0
C      1  0.5379570000000  0.5486680000000  0.4778220000000 1.0
C      1  0.5385710000000  0.5373670000000  0.5393870000000 1.0
C      1  0.5335160000000  0.4742990000000  0.5489360000000 1.0
C      1  0.5486140000000  0.4725680000000  0.5771600000000 1.0
C      1  0.5494710000000  0.4224230000000  0.4966150000000 1.0
C      1  0.5501210000000  0.4784890000000  0.4199290000000 1.0
C      1  0.5518930000000  0.5659430000000  0.4548430000000 1.0
C      1  0.5509750000000  0.5646240000000  0.5510180000000 1.0
C      1  0.4887260000000  0.3977380000000  0.5343300000000 1.0
C      1  0.4910390000000  0.4355560000000  0.4213470000000 1.0
C      1  0.4861830000000  0.5591280000000  0.4141580000000 1.0
C      1  0.4884440000000  0.6003810000000  0.5304990000000 1.0
C      1  0.4880570000000  0.5001390000000  0.6035710000000 1.0
C      1  0.5032260000000  0.5698280000000  0.5718340000000 1.0
C      1  0.5010480000000  0.4521380000000  0.5897350000000 1.0
C      1  0.5015560000000  0.4042770000000  0.4825370000000 1.0
C      1  0.5006690000000  0.4842680000000  0.4004560000000 1.0
C      1  0.5044450000000  0.5889520000000  0.4550470000000 1.0
C      1  0.4557200000000  0.5202380000000  0.5609720000000 1.0
C      1  0.4596320000000  0.4423610000000  0.5479220000000 1.0
C      1  0.4499650000000  0.4426410000000  0.4673730000000 1.0
C      1  0.4544980000000  0.5174010000000  0.4341940000000 1.0
C      1  0.4555610000000  0.5676540000000  0.4965560000000 1.0
C      1  0.4896150000000  0.5879560000000  0.5014400000000 1.0
C      1  0.4893080000000  0.5234330000000  0.5823720000000 1.0
C      1  0.4920800000000  0.4201210000000  0.5563730000000 1.0
C      1  0.4910620000000  0.4272070000000  0.4503640000000 1.0
C      1  0.4884980000000  0.5276460000000  0.4157840000000 1.0
C      1  0.3895300000000  0.4979910000000  0.5260350000000 1.0
C      1  0.3825570000000  0.4743760000000  0.5065710000000 1.0
C      1  0.3840170000000  0.4859730000000  0.4749140000000 1.0
C      1  0.3864020000000  0.5198980000000  0.4757240000000 1.0
C      1  0.3877730000000  0.5273920000000  0.5088800000000 1.0
C      1  0.4627310000000  0.3847080000000  0.5202390000000 1.0
C      1  0.4633800000000  0.4391170000000  0.4018570000000 1.0
C      1  0.4607110000000  0.5785140000000  0.4187750000000 1.0
C      1  0.4624530000000  0.6027360000000  0.5495950000000 1.0
C      1  0.4622900000000  0.4855720000000  0.6167940000000 1.0
C      1  0.5628530000000  0.4551400000000  0.5193240000000 1.0
C      1  0.5635790000000  0.4682530000000  0.4630650000000 1.0
C      1  0.5663310000000  0.5257450000000  0.4550930000000 1.0
C      1  0.5627010000000  0.5481240000000  0.5092390000000 1.0
C      1  0.5660060000000  0.5072240000000  0.5503690000000 1.0
C      1  0.5361380000000  0.4468630000000  0.5356500000000 1.0
C      1  0.5348300000000  0.4528290000000  0.4577580000000 1.0
C      1  0.5371650000000  0.5228470000000  0.4401870000000 1.0
C      1  0.5359780000000  0.5667920000000  0.5026840000000 1.0
C      1  0.5370330000000  0.5174810000000  0.5633300000000 1.0
C      1  0.4298230000000  0.5304420000000  0.5442990000000 1.0
C      1  0.4129780000000  0.4679680000000  0.5407020000000 1.0
C      1  0.4222180000000  0.4468800000000  0.4845640000000 1.0
C      1  0.4269090000000  0.5015450000000  0.4427130000000 1.0
C      1  0.4292150000000  0.5534340000000  0.4839290000000 1.0
C      1  0.5704930000000  0.4870400000000  0.5242990000000 1.0
C      1  0.5722440000000  0.4736220000000  0.4940820000000 1.0
C      1  0.5742100000000  0.4978480000000  0.4713400000000 1.0
C      1  0.5737900000000  0.5262240000000  0.4874960000000 1.0
C      1  0.5729970000000  0.5194990000000  0.5203900000000 1.0
C      1  0.5463910000000  0.5976990000000  0.4985780000000 1.0
C      1  0.5431180000000  0.5317260000000  0.5928810000000 1.0
C      1  0.5432500000000  0.4223220000000  0.5573970000000 1.0
C      1  0.5413450000000  0.4232900000000  0.4442880000000 1.0
C      1  0.5407540000000  0.5291900000000  0.4073170000000 1.0
C      1  0.4948220000000  0.5073200000000  0.4754030000000 1.0
C      1  0.4963680000000  0.5246680000000  0.5011330000000 1.0
C      1  0.4981650000000  0.5051450000000  0.5249720000000 1.0
C      1  0.4892100000000  0.4766030000000  0.5126770000000 1.0
C      1  0.4913660000000  0.4776670000000  0.4836290000000 1.0
C      1  0.4782010000000  0.4505560000000  0.4674700000000 1.0
C      1  0.4816130000000  0.5152550000000  0.4460390000000 1.0
C      1  0.4822830000000  0.5549590000000  0.4990780000000 1.0
C      1  0.4829230000000  0.5128790000000  0.5509960000000 1.0
C      1  0.4890150000000  0.4537080000000  0.5516400000000 1.0
C      1  0.4212330000000  0.5109430000000  0.5222700000000 1.0
C      1  0.4239230000000  0.4802630000000  0.5159420000000 1.0
C      1  0.4158250000000  0.4772980000000  0.4851160000000 1.0
C      1  0.4181010000000  0.5059100000000  0.4715620000000 1.0
C      1  0.4201360000000  0.5268860000000  0.4952710000000 1.0
C      1  0.5291320000000  0.4984930000000  0.4056000000000 1.0
C      1  0.5329480000000  0.5884120000000  0.4692730000000 1.0
C      1  0.5314970000000  0.5567990000000  0.5754940000000 1.0
C      1  0.5297480000000  0.4459340000000  0.5766320000000 1.0
C      1  0.5297650000000  0.4138630000000  0.4725040000000 1.0
C      1  0.5892430000000  0.5115180000000  0.4255720000000 1.0
C      1  0.5919830000000  0.5662820000000  0.4890880000000 1.0
C      1  0.5902970000000  0.5344930000000  0.5666830000000 1.0
C      1  0.5888740000000  0.4526700000000  0.5495240000000 1.0
C      1  0.5897430000000  0.4385670000000  0.4679520000000 1.0
C      1  0.6158530000000  0.4920570000000  0.4724760000000 1.0
C      1  0.6134000000000  0.5256890000000  0.4733920000000 1.0
C      1  0.6116170000000  0.5312040000000  0.5186230000000 1.0
C      1  0.6154440000000  0.4988090000000  0.5275090000000 1.0
C      1  0.6151630000000  0.4775180000000  0.5022040000000 1.0
C      1  0.4304600000000  0.5886260000000  0.5026880000000 1.0
C      1  0.4306370000000  0.5209490000000  0.5830630000000 1.0
C      1  0.4298380000000  0.4321010000000  0.5448390000000 1.0
C      1  0.4271670000000  0.4305240000000  0.4461190000000 1.0
C      1  0.4297290000000  0.5312600000000  0.4163680000000 1.0
C      1  0.4174800000000  0.4296490000000  0.5201980000000 1.0
C      1  0.4134870000000  0.4517950000000  0.4332150000000 1.0
C      1  0.4171540000000  0.5503680000000  0.4332270000000 1.0
C      1  0.4167700000000  0.5776070000000  0.5252310000000 1.0
C      1  0.4149960000000  0.4973770000000  0.5810810000000 1.0
C      1  0.4875140000000  0.4474110000000  0.5197450000000 1.0
C      1  0.4907110000000  0.4757420000000  0.4512650000000 1.0
C      1  0.4958140000000  0.5394760000000  0.4643390000000 1.0
C      1  0.4966780000000  0.5448620000000  0.5277630000000 1.0
C      1  0.4951930000000  0.4819410000000  0.5571090000000 1.0
C      1  0.5714230000000  0.5154370000000  0.5830240000000 1.0
C      1  0.5711840000000  0.4283450000000  0.5385670000000 1.0
C      1  0.5700440000000  0.4418170000000  0.4428600000000 1.0
C      1  0.5702490000000  0.5364570000000  0.4229580000000 1.0
C      1  0.5723930000000  0.5799980000000  0.5118030000000 1.0
C      1  0.5116830000000  0.4297870000000  0.5295630000000 1.0
C      1  0.5164060000000  0.4699220000000  0.4395600000000 1.0
C      1  0.5118610000000  0.5397680000000  0.4375500000000 1.0
C      1  0.5124770000000  0.5706180000000  0.5197440000000 1.0
C      1  0.5138780000000  0.5020760000000  0.5733210000000 1.0
C      1  0.5159730000000  0.4812400000000  0.5991130000000 1.0
C      1  0.5150240000000  0.4018010000000  0.5130520000000 1.0
C      1  0.5145660000000  0.4554400000000  0.4111060000000 1.0
C      1  0.5140260000000  0.5715010000000  0.4286710000000 1.0
C      1  0.5160820000000  0.5886560000000  0.5465890000000 1.0
END
