TITL C-2782230-7391-1323 -0.000779805323104249 125000 -768.431769778501 0 0 135 (C1) n - 1
REM
REM in /home/nfs/bkarasulu/CARBON/AIRSS/Generating-Clusters/REBO/Higher-Symm/SD-CG/HFTN-CG
REM
REM
REM
REM
REM
REM ./C.cell (12c818d87b63d06a65506943cc24bca4)
REM
REM compiler GCC version 9.2.1 20190827 (Red Hat 9.2.1-1)
REM options -cpp -mtune=generic -march=x86-64 -g -O0 -fpre-include=/usr/include/finclude/math-vector-fortran.h
REM seed 1643824736 -573261709 -42953383 1266479922 1814092180 -43321127 -955172700 -1769366590 -1130259035 1808716021 -1387196449 -936854713 518444389 1400880572 -1691792113 1286091861 1031464115 1382912922 -254520224 -395286277 169846258 -1617840924 -1943718806 147317785 -563846096 1050851612 1764806601 1294998061 -842889125 1945943956 1161293944 1872350710 1997339311
REM
CELL 1.54180   50.00000   50.00000   50.00000   90.00000   90.00000   90.00000
LATT -1
SFAC C  
C      1  0.4707070000000  0.4719960000000  0.4425390000000 1.0
C      1  0.4899490000000  0.5365180000000  0.4425040000000 1.0
C      1  0.5335380000000  0.4884210000000  0.4385500000000 1.0
C      1  0.5848050000000  0.4969090000000  0.5551260000000 1.0
C      1  0.4572970000000  0.4361900000000  0.5554400000000 1.0
C      1  0.4613940000000  0.5727470000000  0.5523360000000 1.0
C      1  0.6000340000000  0.5166530000000  0.5207070000000 1.0
C      1  0.4716980000000  0.4071110000000  0.5185770000000 1.0
C      1  0.4337460000000  0.5839420000000  0.5062930000000 1.0
C      1  0.4384990000000  0.5111670000000  0.4281130000000 1.0
C      1  0.5470170000000  0.5459390000000  0.4311760000000 1.0
C      1  0.5163940000000  0.4408120000000  0.4239040000000 1.0
C      1  0.5439060000000  0.4635590000000  0.5714400000000 1.0
C      1  0.4466820000000  0.4789570000000  0.5825520000000 1.0
C      1  0.5089590000000  0.5541160000000  0.5687560000000 1.0
C      1  0.4585970000000  0.5467190000000  0.5317050000000 1.0
C      1  0.5634350000000  0.5073140000000  0.5322120000000 1.0
C      1  0.4752990000000  0.4452530000000  0.5294620000000 1.0
C      1  0.4642950000000  0.4882580000000  0.5077350000000 1.0
C      1  0.5064210000000  0.5364420000000  0.5105470000000 1.0
C      1  0.5256440000000  0.4760510000000  0.5059480000000 1.0
C      1  0.5164640000000  0.4975220000000  0.4648380000000 1.0
C      1  0.4871560000000  0.4838590000000  0.4638870000000 1.0
C      1  0.4890500000000  0.5168440000000  0.4648930000000 1.0
C      1  0.5560380000000  0.5343310000000  0.5726300000000 1.0
C      1  0.5025790000000  0.4318620000000  0.5763900000000 1.0
C      1  0.4374540000000  0.5300880000000  0.5677690000000 1.0
C      1  0.5607370000000  0.4518710000000  0.5521740000000 1.0
C      1  0.4226510000000  0.4763570000000  0.5629490000000 1.0
C      1  0.5113340000000  0.5764880000000  0.5519450000000 1.0
C      1  0.4375840000000  0.5399410000000  0.4469440000000 1.0
C      1  0.5731160000000  0.5368560000000  0.4515150000000 1.0
C      1  0.4966770000000  0.4234520000000  0.4457360000000 1.0
C      1  0.4077220000000  0.4762040000000  0.4662590000000 1.0
C      1  0.5292630000000  0.5849640000000  0.4698940000000 1.0
C      1  0.5601600000000  0.4296690000000  0.4657140000000 1.0
C      1  0.4435040000000  0.5027920000000  0.4601740000000 1.0
C      1  0.5382860000000  0.5523740000000  0.4632490000000 1.0
C      1  0.5308910000000  0.4422170000000  0.4547850000000 1.0
C      1  0.4696720000000  0.4665990000000  0.5932230000000 1.0
C      1  0.4872670000000  0.5418620000000  0.5833620000000 1.0
C      1  0.5449790000000  0.4881420000000  0.5861780000000 1.0
C      1  0.5392780000000  0.5270490000000  0.5309490000000 1.0
C      1  0.5060000000000  0.4546630000000  0.5333600000000 1.0
C      1  0.4502770000000  0.5163350000000  0.5325030000000 1.0
C      1  0.4663360000000  0.5704360000000  0.4177150000000 1.0
C      1  0.5706690000000  0.5014180000000  0.4312740000000 1.0
C      1  0.4494440000000  0.4291920000000  0.4168440000000 1.0
C      1  0.4192800000000  0.5397540000000  0.5417710000000 1.0
C      1  0.5621820000000  0.5556660000000  0.5466020000000 1.0
C      1  0.5170650000000  0.4192740000000  0.5479720000000 1.0
C      1  0.4332490000000  0.5696840000000  0.5336410000000 1.0
C      1  0.5856630000000  0.5304170000000  0.5467280000000 1.0
C      1  0.4831370000000  0.4152620000000  0.5461400000000 1.0
C      1  0.5218920000000  0.5080680000000  0.5116150000000 1.0
C      1  0.4941810000000  0.4782460000000  0.5144520000000 1.0
C      1  0.4804450000000  0.5164710000000  0.5170010000000 1.0
C      1  0.5302710000000  0.5308910000000  0.4108460000000 1.0
C      1  0.4973080000000  0.4595220000000  0.4040880000000 1.0
C      1  0.4661880000000  0.5108040000000  0.4099270000000 1.0
C      1  0.4327620000000  0.4534260000000  0.5396230000000 1.0
C      1  0.4872360000000  0.5829300000000  0.5379490000000 1.0
C      1  0.5779780000000  0.4698780000000  0.5382450000000 1.0
C      1  0.5778960000000  0.4678110000000  0.5084660000000 1.0
C      1  0.4332030000000  0.4472470000000  0.5076830000000 1.0
C      1  0.4861570000000  0.5826470000000  0.5079870000000 1.0
C      1  0.4551290000000  0.5590740000000  0.5019190000000 1.0
C      1  0.5732880000000  0.5064400000000  0.5021030000000 1.0
C      1  0.4708110000000  0.4337380000000  0.5006180000000 1.0
C      1  0.4441440000000  0.4323970000000  0.4463330000000 1.0
C      1  0.4733030000000  0.5818020000000  0.4439600000000 1.0
C      1  0.5896500000000  0.4819500000000  0.4457290000000 1.0
C      1  0.5279590000000  0.5335080000000  0.5589790000000 1.0
C      1  0.5164310000000  0.4561980000000  0.5631830000000 1.0
C      1  0.4528480000000  0.5024910000000  0.5622320000000 1.0
C      1  0.5464870000000  0.4542420000000  0.4275010000000 1.0
C      1  0.4237820000000  0.4831130000000  0.4393950000000 1.0
C      1  0.5272930000000  0.5727060000000  0.4388830000000 1.0
C      1  0.5906680000000  0.4773170000000  0.4782500000000 1.0
C      1  0.4394080000000  0.4286900000000  0.4794820000000 1.0
C      1  0.4735870000000  0.5890560000000  0.4767180000000 1.0
C      1  0.4771230000000  0.4439570000000  0.4269030000000 1.0
C      1  0.4632010000000  0.5416820000000  0.4243230000000 1.0
C      1  0.5514350000000  0.5125260000000  0.4526840000000 1.0
C      1  0.4971660000000  0.5233570000000  0.4138590000000 1.0
C      1  0.5215480000000  0.5000450000000  0.4139330000000 1.0
C      1  0.4783520000000  0.4816230000000  0.4136180000000 1.0
C      1  0.4194130000000  0.4838610000000  0.5310500000000 1.0
C      1  0.5308090000000  0.5915670000000  0.5091520000000 1.0
C      1  0.5591690000000  0.4325590000000  0.5074800000000 1.0
C      1  0.5476960000000  0.4302600000000  0.5373340000000 1.0
C      1  0.4143560000000  0.5083430000000  0.5541620000000 1.0
C      1  0.5379310000000  0.5787850000000  0.5399270000000 1.0
C      1  0.5547810000000  0.5768060000000  0.4899580000000 1.0
C      1  0.5433460000000  0.4060060000000  0.4661960000000 1.0
C      1  0.4095710000000  0.5008300000000  0.4812580000000 1.0
C      1  0.4683680000000  0.4186340000000  0.4641340000000 1.0
C      1  0.4501350000000  0.5674270000000  0.4634320000000 1.0
C      1  0.5889810000000  0.5096000000000  0.4658240000000 1.0
C      1  0.5807880000000  0.4447950000000  0.4841260000000 1.0
C      1  0.4142160000000  0.4518560000000  0.4797010000000 1.0
C      1  0.5057470000000  0.5970630000000  0.4861730000000 1.0
C      1  0.5432010000000  0.5051350000000  0.4849800000000 1.0
C      1  0.4854540000000  0.4617290000000  0.4866520000000 1.0
C      1  0.4732890000000  0.5327280000000  0.4886960000000 1.0
C      1  0.5521240000000  0.4722480000000  0.4863920000000 1.0
C      1  0.4508940000000  0.4663060000000  0.4856780000000 1.0
C      1  0.4961580000000  0.5580130000000  0.4863430000000 1.0
C      1  0.4611030000000  0.5495240000000  0.5742040000000 1.0
C      1  0.5648970000000  0.5073190000000  0.5781210000000 1.0
C      1  0.4749980000000  0.4406520000000  0.5815100000000 1.0
C      1  0.5135900000000  0.4479570000000  0.4778830000000 1.0
C      1  0.4457780000000  0.5163450000000  0.4866170000000 1.0
C      1  0.5459780000000  0.5379280000000  0.4876010000000 1.0
C      1  0.4940100000000  0.4140830000000  0.4863300000000 1.0
C      1  0.4276320000000  0.5517480000000  0.4835890000000 1.0
C      1  0.5857570000000  0.5343780000000  0.4890230000000 1.0
C      1  0.5128710000000  0.5084200000000  0.5608320000000 1.0
C      1  0.4996330000000  0.4807220000000  0.5627240000000 1.0
C      1  0.4820770000000  0.5055700000000  0.5611900000000 1.0
C      1  0.4306180000000  0.4931300000000  0.5065450000000 1.0
C      1  0.5299610000000  0.5586380000000  0.5068860000000 1.0
C      1  0.5305070000000  0.4436610000000  0.5039140000000 1.0
C      1  0.5756610000000  0.5614330000000  0.4749140000000 1.0
C      1  0.5165210000000  0.4064340000000  0.4653310000000 1.0
C      1  0.4129320000000  0.5273430000000  0.4671290000000 1.0
C      1  0.4276650000000  0.5320230000000  0.5113700000000 1.0
C      1  0.5653730000000  0.5432460000000  0.5150910000000 1.0
C      1  0.5071840000000  0.4251630000000  0.5157630000000 1.0
C      1  0.5585050000000  0.4711160000000  0.4542720000000 1.0
C      1  0.4439200000000  0.4631390000000  0.4554410000000 1.0
C      1  0.4988580000000  0.5640120000000  0.4547670000000 1.0
C      1  0.4949930000000  0.5176960000000  0.5969280000000 1.0
C      1  0.5202910000000  0.4961170000000  0.5981100000000 1.0
C      1  0.4896520000000  0.4852810000000  0.6011530000000 1.0
END
