TITL C-2782235-7892-1495 0.00181761333984263 125000 -407.533450657594 0 0 71 (C1) n - 1
REM
REM in /home/nfs/bkarasulu/CARBON/AIRSS/Generating-Clusters/REBO/Higher-Symm/SD-CG/HFTN-CG
REM
REM
REM
REM
REM
REM ./C.cell (12c818d87b63d06a65506943cc24bca4)
REM
REM compiler GCC version 9.2.1 20190827 (Red Hat 9.2.1-1)
REM options -cpp -mtune=generic -march=x86-64 -g -O0 -fpre-include=/usr/include/finclude/math-vector-fortran.h
REM seed -1782597487 1849725225 861559899 1827532342 -2035982629 -1519579404 -1339455981 1782285390 -706334102 -1205604128 -92566246 -1234596425 -700334158 -1487987807 -806035119 -1001381395 1833624696 25756278 -904356832 393685546 -958921188 182699682 1384592161 -610949028 1188709459 1954099466 -399011145 -662835308 499172716 487361293 1517976691 -1526192495 -1059199994
REM
CELL 1.54180   50.00000   50.00000   50.00000   90.00000   90.00000   90.00000
LATT -1
SFAC C  
C      1  0.4599760000000  0.5450160000000  0.5471430000000 1.0
C      1  0.4647690000000  0.4687730000000  0.5563670000000 1.0
C      1  0.4655360000000  0.4365180000000  0.4874880000000 1.0
C      1  0.4639490000000  0.4898290000000  0.4331070000000 1.0
C      1  0.4575960000000  0.5562620000000  0.4682650000000 1.0
C      1  0.5377980000000  0.4934710000000  0.4484040000000 1.0
C      1  0.5332010000000  0.5473960000000  0.4806040000000 1.0
C      1  0.5334600000000  0.5344680000000  0.5407320000000 1.0
C      1  0.5371080000000  0.4726530000000  0.5470140000000 1.0
C      1  0.5376640000000  0.4479760000000  0.4891400000000 1.0
C      1  0.4629720000000  0.5132960000000  0.4488820000000 1.0
C      1  0.4504710000000  0.5471040000000  0.4970280000000 1.0
C      1  0.4534110000000  0.5151480000000  0.5407500000000 1.0
C      1  0.4653010000000  0.4628660000000  0.5285100000000 1.0
C      1  0.4655250000000  0.4601620000000  0.4716650000000 1.0
C      1  0.5790220000000  0.5158850000000  0.4779520000000 1.0
C      1  0.5778240000000  0.5284300000000  0.5085230000000 1.0
C      1  0.5791010000000  0.5033210000000  0.5300100000000 1.0
C      1  0.5804640000000  0.4750500000000  0.5127070000000 1.0
C      1  0.5805710000000  0.4828670000000  0.4806080000000 1.0
C      1  0.4538000000000  0.4669490000000  0.4468760000000 1.0
C      1  0.4497140000000  0.5382140000000  0.4489280000000 1.0
C      1  0.4551470000000  0.5634230000000  0.5222240000000 1.0
C      1  0.4534370000000  0.4930580000000  0.5625960000000 1.0
C      1  0.4556860000000  0.4408990000000  0.5137430000000 1.0
C      1  0.5639060000000  0.4763260000000  0.5411520000000 1.0
C      1  0.5634870000000  0.4566340000000  0.4911750000000 1.0
C      1  0.5644010000000  0.4967010000000  0.4554600000000 1.0
C      1  0.5600450000000  0.5421520000000  0.4843890000000 1.0
C      1  0.5603140000000  0.5297010000000  0.5364160000000 1.0
C      1  0.4858600000000  0.5684770000000  0.5281670000000 1.0
C      1  0.4900260000000  0.4937460000000  0.5781040000000 1.0
C      1  0.4920870000000  0.4256230000000  0.5199670000000 1.0
C      1  0.4949730000000  0.4528040000000  0.4340470000000 1.0
C      1  0.4886950000000  0.5430000000000  0.4420170000000 1.0
C      1  0.4009760000000  0.5245350000000  0.4879710000000 1.0
C      1  0.4264670000000  0.5298840000000  0.5007040000000 1.0
C      1  0.4279430000000  0.5132450000000  0.5243190000000 1.0
C      1  0.4032370000000  0.4980360000000  0.5256450000000 1.0
C      1  0.3869000000000  0.5050650000000  0.5033430000000 1.0
C      1  0.5153920000000  0.5039060000000  0.4687420000000 1.0
C      1  0.5111990000000  0.5314370000000  0.4972910000000 1.0
C      1  0.5117300000000  0.5124630000000  0.5323030000000 1.0
C      1  0.5158100000000  0.4737740000000  0.5234630000000 1.0
C      1  0.5154570000000  0.4675610000000  0.4804160000000 1.0
C      1  0.4935550000000  0.4850070000000  0.4240230000000 1.0
C      1  0.4879770000000  0.5654040000000  0.4676530000000 1.0
C      1  0.4899820000000  0.5503200000000  0.5571450000000 1.0
C      1  0.4930120000000  0.4611880000000  0.5686850000000 1.0
C      1  0.4939350000000  0.4224350000000  0.4861080000000 1.0
C      1  0.4852160000000  0.4815900000000  0.5142500000000 1.0
C      1  0.4860650000000  0.4803070000000  0.4831060000000 1.0
C      1  0.4822680000000  0.5102710000000  0.4720110000000 1.0
C      1  0.4771090000000  0.5293930000000  0.4964800000000 1.0
C      1  0.4793340000000  0.5115460000000  0.5224510000000 1.0
C      1  0.5272950000000  0.4461220000000  0.4351830000000 1.0
C      1  0.5202060000000  0.5422840000000  0.4326210000000 1.0
C      1  0.5175820000000  0.5785940000000  0.5224920000000 1.0
C      1  0.5213130000000  0.5027230000000  0.5838210000000 1.0
C      1  0.5235480000000  0.4217490000000  0.5297160000000 1.0
C      1  0.5261050000000  0.4766550000000  0.4290420000000 1.0
C      1  0.5203030000000  0.5596980000000  0.4586340000000 1.0
C      1  0.5199520000000  0.5587540000000  0.5463100000000 1.0
C      1  0.5238630000000  0.4741800000000  0.5718790000000 1.0
C      1  0.5254360000000  0.4241260000000  0.4988150000000 1.0
C      1  0.5025750000000  0.5213140000000  0.5624530000000 1.0
C      1  0.5059650000000  0.4482070000000  0.5414940000000 1.0
C      1  0.5084020000000  0.4405430000000  0.4629290000000 1.0
C      1  0.5042030000000  0.5128030000000  0.4386620000000 1.0
C      1  0.5005600000000  0.5627360000000  0.4978430000000 1.0
C      1  0.5189310000000  0.4990640000000  0.5017480000000 1.0
END
