TITL C-2782238-9940-1293 -0.00081277626171876 125000 -606.651132623796 0 0 105 (C1) n - 1
REM
REM in /home/nfs/bkarasulu/CARBON/AIRSS/Generating-Clusters/REBO/Higher-Symm/SD-CG/HFTN-CG
REM
REM
REM
REM
REM
REM ./C.cell (12c818d87b63d06a65506943cc24bca4)
REM
REM compiler GCC version 9.2.1 20190827 (Red Hat 9.2.1-1)
REM options -cpp -mtune=generic -march=x86-64 -g -O0 -fpre-include=/usr/include/finclude/math-vector-fortran.h
REM seed -145158909 -1149983110 187701945 929273214 1968719327 -572251446 1279185556 -2045200873 -2094834861 1368064228 304508804 -458481869 -289644900 -1324281538 1540232737 -816791644 -1250472871 516975536 535739914 990233468 -2019158334 -700096578 1463765894 17614251 949089918 -629884950 -2092510994 1511664675 131850229 653454497 -1851818498 -239651176 -97491214
REM
CELL 1.54180   50.00000   50.00000   50.00000   90.00000   90.00000   90.00000
LATT -1
SFAC C  
C      1  0.5361090000000  0.5781840000000  0.4648200000000 1.0
C      1  0.4606710000000  0.5779640000000  0.4648790000000 1.0
C      1  0.4159080000000  0.5178000000000  0.4649310000000 1.0
C      1  0.4328480000000  0.4432970000000  0.4641980000000 1.0
C      1  0.5024090000000  0.4126790000000  0.4643370000000 1.0
C      1  0.5677130000000  0.4476980000000  0.4647360000000 1.0
C      1  0.5840290000000  0.5213620000000  0.4647970000000 1.0
C      1  0.4257440000000  0.4590860000000  0.5248000000000 1.0
C      1  0.4850480000000  0.4156810000000  0.5255060000000 1.0
C      1  0.5555850000000  0.4371330000000  0.5246800000000 1.0
C      1  0.5851530000000  0.5043910000000  0.5254340000000 1.0
C      1  0.5490650000000  0.5685380000000  0.5251110000000 1.0
C      1  0.4770000000000  0.5824640000000  0.5258250000000 1.0
C      1  0.4228730000000  0.5326830000000  0.5246560000000 1.0
C      1  0.5117620000000  0.5734860000000  0.4862470000000 1.0
C      1  0.4502260000000  0.5558020000000  0.4867500000000 1.0
C      1  0.4271420000000  0.4950090000000  0.4857610000000 1.0
C      1  0.4576680000000  0.4381560000000  0.4852460000000 1.0
C      1  0.5207560000000  0.4286090000000  0.4864420000000 1.0
C      1  0.5681320000000  0.4726190000000  0.4860350000000 1.0
C      1  0.5649760000000  0.5365750000000  0.4867620000000 1.0
C      1  0.4510970000000  0.5138330000000  0.4550230000000 1.0
C      1  0.4578420000000  0.4680140000000  0.4534160000000 1.0
C      1  0.4980120000000  0.4469260000000  0.4516990000000 1.0
C      1  0.5377840000000  0.4658060000000  0.4534010000000 1.0
C      1  0.5516730000000  0.5096470000000  0.4518410000000 1.0
C      1  0.5250040000000  0.5450080000000  0.4534990000000 1.0
C      1  0.4789030000000  0.5485640000000  0.4524200000000 1.0
C      1  0.4942840000000  0.5356400000000  0.5402120000000 1.0
C      1  0.4684630000000  0.5176930000000  0.5401960000000 1.0
C      1  0.4662830000000  0.4869200000000  0.5387280000000 1.0
C      1  0.4896440000000  0.4662090000000  0.5390440000000 1.0
C      1  0.5208210000000  0.4710310000000  0.5394000000000 1.0
C      1  0.5354700000000  0.4982950000000  0.5397200000000 1.0
C      1  0.5241240000000  0.5275940000000  0.5400580000000 1.0
C      1  0.4980680000000  0.4665180000000  0.4287520000000 1.0
C      1  0.5242290000000  0.4783890000000  0.4296600000000 1.0
C      1  0.5324130000000  0.5057250000000  0.4290450000000 1.0
C      1  0.5153690000000  0.5287900000000  0.4300580000000 1.0
C      1  0.4868490000000  0.5303580000000  0.4297530000000 1.0
C      1  0.4685390000000  0.5082430000000  0.4311230000000 1.0
C      1  0.4728280000000  0.4800290000000  0.4301430000000 1.0
C      1  0.5136660000000  0.5305180000000  0.5785440000000 1.0
C      1  0.4848090000000  0.5296990000000  0.5785920000000 1.0
C      1  0.4672520000000  0.5067660000000  0.5786170000000 1.0
C      1  0.4745680000000  0.4789790000000  0.5777680000000 1.0
C      1  0.5007250000000  0.4672610000000  0.5774550000000 1.0
C      1  0.5263810000000  0.4801670000000  0.5779240000000 1.0
C      1  0.5321090000000  0.5083760000000  0.5782580000000 1.0
C      1  0.5564740000000  0.5524460000000  0.4594000000000 1.0
C      1  0.4934670000000  0.5774940000000  0.4590470000000 1.0
C      1  0.4368220000000  0.5431230000000  0.4597170000000 1.0
C      1  0.4262120000000  0.4755820000000  0.4590040000000 1.0
C      1  0.4728000000000  0.4267120000000  0.4583480000000 1.0
C      1  0.5381640000000  0.4334860000000  0.4591970000000 1.0
C      1  0.5766490000000  0.4893820000000  0.4590030000000 1.0
C      1  0.4133120000000  0.4831290000000  0.5351620000000 1.0
C      1  0.4587690000000  0.4211790000000  0.5363910000000 1.0
C      1  0.5355880000000  0.4191200000000  0.5355060000000 1.0
C      1  0.5861840000000  0.4774240000000  0.5360350000000 1.0
C      1  0.5710980000000  0.5529310000000  0.5357380000000 1.0
C      1  0.5030360000000  0.5893650000000  0.5365270000000 1.0
C      1  0.4329920000000  0.5575890000000  0.5355220000000 1.0
C      1  0.5106160000000  0.5343360000000  0.4797120000000 1.0
C      1  0.4794580000000  0.5304180000000  0.4777880000000 1.0
C      1  0.4658680000000  0.5028290000000  0.4810050000000 1.0
C      1  0.4748560000000  0.4735140000000  0.4788870000000 1.0
C      1  0.5053730000000  0.4640370000000  0.4767680000000 1.0
C      1  0.5302290000000  0.4825160000000  0.4792920000000 1.0
C      1  0.5337410000000  0.5139410000000  0.4771290000000 1.0
C      1  0.4395220000000  0.4646890000000  0.4969660000000 1.0
C      1  0.4885120000000  0.4293760000000  0.4976820000000 1.0
C      1  0.5453910000000  0.4498210000000  0.4976570000000 1.0
C      1  0.5700400000000  0.5047600000000  0.4981720000000 1.0
C      1  0.5388800000000  0.5560820000000  0.4978450000000 1.0
C      1  0.4799730000000  0.5680780000000  0.4982490000000 1.0
C      1  0.4374320000000  0.5256720000000  0.4973950000000 1.0
C      1  0.5348520000000  0.5248370000000  0.5098530000000 1.0
C      1  0.4995710000000  0.5435320000000  0.5092170000000 1.0
C      1  0.4683990000000  0.5295290000000  0.5104120000000 1.0
C      1  0.4563780000000  0.4902660000000  0.5097390000000 1.0
C      1  0.4817690000000  0.4597960000000  0.5081740000000 1.0
C      1  0.5158780000000  0.4607230000000  0.5093970000000 1.0
C      1  0.5414910000000  0.4913600000000  0.5086570000000 1.0
C      1  0.5559170000000  0.5142010000000  0.5601420000000 1.0
C      1  0.5239410000000  0.5529400000000  0.5605910000000 1.0
C      1  0.4738870000000  0.5516640000000  0.5604600000000 1.0
C      1  0.4434440000000  0.5116780000000  0.5602340000000 1.0
C      1  0.4556060000000  0.4636230000000  0.5597020000000 1.0
C      1  0.5010500000000  0.4427710000000  0.5594910000000 1.0
C      1  0.5458490000000  0.4653770000000  0.5598000000000 1.0
C      1  0.5077870000000  0.4203400000000  0.5432480000000 1.0
C      1  0.5673710000000  0.4566830000000  0.5430880000000 1.0
C      1  0.5761970000000  0.5255740000000  0.5435670000000 1.0
C      1  0.5275180000000  0.5758280000000  0.5436890000000 1.0
C      1  0.4583160000000  0.5688220000000  0.5437580000000 1.0
C      1  0.4206350000000  0.5099340000000  0.5429690000000 1.0
C      1  0.4426520000000  0.4440850000000  0.5432970000000 1.0
C      1  0.5757510000000  0.5541270000000  0.4395320000000 1.0
C      1  0.5041120000000  0.5938820000000  0.4393430000000 1.0
C      1  0.4314490000000  0.5609560000000  0.4391360000000 1.0
C      1  0.4077890000000  0.4824540000000  0.4394480000000 1.0
C      1  0.4564350000000  0.4160630000000  0.4386170000000 1.0
C      1  0.5356500000000  0.4143630000000  0.4392700000000 1.0
C      1  0.5908250000000  0.4753440000000  0.4397230000000 1.0
END
