TITL C-2782237-5345-1101 0.00140023621697718 125000 -902.733576244891 0 0 162 (C1) n - 1
REM
REM in /home/nfs/bkarasulu/CARBON/AIRSS/Generating-Clusters/REBO/Higher-Symm/SD-CG/HFTN-CG
REM
REM
REM
REM
REM
REM ./C.cell (12c818d87b63d06a65506943cc24bca4)
REM
REM compiler GCC version 9.2.1 20190827 (Red Hat 9.2.1-1)
REM options -cpp -mtune=generic -march=x86-64 -g -O0 -fpre-include=/usr/include/finclude/math-vector-fortran.h
REM seed 1050935586 1802027823 -1780430075 1963579424 -127883876 -710761547 -661369977 1596650860 -1508433239 -2085004592 263428877 -309748467 -368874014 -1926759823 -667485849 761813734 142182111 -247187322 -1119103045 -2019541520 -1023008580 -437331128 1509968773 -155171526 -1543067574 -563270929 -1580656585 810540316 -215859298 917992809 -2035839149 1715641179 1505623837
REM
CELL 1.54180   50.00000   50.00000   50.00000   90.00000   90.00000   90.00000
LATT -1
SFAC C  
C      1  0.5899470000000  0.4635740000000  0.4612850000000 1.0
C      1  0.5927920000000  0.5252540000000  0.4546330000000 1.0
C      1  0.5904430000000  0.5495650000000  0.5107330000000 1.0
C      1  0.5879330000000  0.5031960000000  0.5520270000000 1.0
C      1  0.5892390000000  0.4499560000000  0.5214010000000 1.0
C      1  0.4100850000000  0.5344720000000  0.4631850000000 1.0
C      1  0.4074020000000  0.4733280000000  0.4558030000000 1.0
C      1  0.4096480000000  0.4480390000000  0.5120470000000 1.0
C      1  0.4115370000000  0.4938960000000  0.5538950000000 1.0
C      1  0.4116240000000  0.5474610000000  0.5226560000000 1.0
C      1  0.4467240000000  0.5361710000000  0.5862230000000 1.0
C      1  0.4465530000000  0.4289510000000  0.5645260000000 1.0
C      1  0.4461110000000  0.4207160000000  0.4533390000000 1.0
C      1  0.4505090000000  0.5204700000000  0.4130210000000 1.0
C      1  0.4458030000000  0.5908710000000  0.4865150000000 1.0
C      1  0.5515570000000  0.4629300000000  0.5853930000000 1.0
C      1  0.5480180000000  0.5688020000000  0.5588680000000 1.0
C      1  0.5555860000000  0.5807310000000  0.4535290000000 1.0
C      1  0.5507140000000  0.4800000000000  0.4089580000000 1.0
C      1  0.5527720000000  0.4085340000000  0.4886370000000 1.0
C      1  0.6020160000000  0.4648660000000  0.4934590000000 1.0
C      1  0.6026810000000  0.4946390000000  0.4670040000000 1.0
C      1  0.6039300000000  0.5291710000000  0.4866410000000 1.0
C      1  0.6011130000000  0.5206820000000  0.5254180000000 1.0
C      1  0.6003540000000  0.4811250000000  0.5297320000000 1.0
C      1  0.3975140000000  0.5330060000000  0.4951490000000 1.0
C      1  0.3973340000000  0.5034650000000  0.4684730000000 1.0
C      1  0.3965380000000  0.4687270000000  0.4878650000000 1.0
C      1  0.3990040000000  0.4768850000000  0.5267400000000 1.0
C      1  0.3999690000000  0.5164030000000  0.5311770000000 1.0
C      1  0.4209310000000  0.4630950000000  0.5471280000000 1.0
C      1  0.4142070000000  0.4417800000000  0.4787450000000 1.0
C      1  0.4215820000000  0.5006800000000  0.4455990000000 1.0
C      1  0.4148670000000  0.5597140000000  0.4851170000000 1.0
C      1  0.4238680000000  0.5313630000000  0.5490690000000 1.0
C      1  0.5752630000000  0.5313240000000  0.5425270000000 1.0
C      1  0.5868150000000  0.5567170000000  0.4777770000000 1.0
C      1  0.5781910000000  0.4980300000000  0.4453700000000 1.0
C      1  0.5831750000000  0.4389330000000  0.4837420000000 1.0
C      1  0.5774210000000  0.4649820000000  0.5489650000000 1.0
C      1  0.4709750000000  0.5010130000000  0.3937960000000 1.0
C      1  0.4717520000000  0.5965480000000  0.4648810000000 1.0
C      1  0.4687870000000  0.5625250000000  0.5871300000000 1.0
C      1  0.4704800000000  0.4326640000000  0.5887130000000 1.0
C      1  0.4716630000000  0.4012200000000  0.4647460000000 1.0
C      1  0.5284480000000  0.4990670000000  0.3912730000000 1.0
C      1  0.5272570000000  0.4030010000000  0.4668280000000 1.0
C      1  0.5270610000000  0.4390380000000  0.5857280000000 1.0
C      1  0.5254610000000  0.5661550000000  0.5843360000000 1.0
C      1  0.5284050000000  0.5974390000000  0.4662520000000 1.0
C      1  0.5496350000000  0.4779690000000  0.4863700000000 1.0
C      1  0.5499420000000  0.5036130000000  0.4731030000000 1.0
C      1  0.5478920000000  0.5258300000000  0.4945260000000 1.0
C      1  0.5470620000000  0.5133410000000  0.5206110000000 1.0
C      1  0.5441830000000  0.4829140000000  0.5166940000000 1.0
C      1  0.4525880000000  0.5216290000000  0.4911810000000 1.0
C      1  0.4548690000000  0.4953480000000  0.4778580000000 1.0
C      1  0.4476630000000  0.4733550000000  0.4983950000000 1.0
C      1  0.4458450000000  0.4851300000000  0.5250060000000 1.0
C      1  0.4487960000000  0.5155660000000  0.5215740000000 1.0
C      1  0.4896260000000  0.5948260000000  0.5132940000000 1.0
C      1  0.4975550000000  0.5184090000000  0.5976100000000 1.0
C      1  0.4967950000000  0.4165870000000  0.5476140000000 1.0
C      1  0.4955860000000  0.4361830000000  0.4327730000000 1.0
C      1  0.4999270000000  0.5410280000000  0.4084190000000 1.0
C      1  0.5036800000000  0.4096790000000  0.5158480000000 1.0
C      1  0.5012060000000  0.4865100000000  0.5940360000000 1.0
C      1  0.4968960000000  0.5824450000000  0.5439650000000 1.0
C      1  0.5064380000000  0.5652360000000  0.4306370000000 1.0
C      1  0.5004480000000  0.4606770000000  0.4102160000000 1.0
C      1  0.4998960000000  0.4222820000000  0.5773180000000 1.0
C      1  0.4997610000000  0.4108070000000  0.4510760000000 1.0
C      1  0.5003550000000  0.5172460000000  0.3896350000000 1.0
C      1  0.4994470000000  0.6011920000000  0.4828970000000 1.0
C      1  0.4986070000000  0.5511330000000  0.5965050000000 1.0
C      1  0.4957210000000  0.5775620000000  0.5744340000000 1.0
C      1  0.5007320000000  0.5900350000000  0.4502040000000 1.0
C      1  0.4988080000000  0.4830510000000  0.3904990000000 1.0
C      1  0.4990650000000  0.4013500000000  0.4842650000000 1.0
C      1  0.4973730000000  0.4531820000000  0.5925780000000 1.0
C      1  0.4950670000000  0.5517780000000  0.4599480000000 1.0
C      1  0.4884380000000  0.5511090000000  0.5348560000000 1.0
C      1  0.4910200000000  0.4798880000000  0.5620040000000 1.0
C      1  0.4943920000000  0.4384580000000  0.5002960000000 1.0
C      1  0.4888840000000  0.4750360000000  0.4378920000000 1.0
C      1  0.5064230000000  0.4492830000000  0.4625990000000 1.0
C      1  0.5098760000000  0.4452850000000  0.5359220000000 1.0
C      1  0.5078000000000  0.5159480000000  0.5647060000000 1.0
C      1  0.5031430000000  0.5658580000000  0.5009470000000 1.0
C      1  0.5126120000000  0.5260920000000  0.4353120000000 1.0
C      1  0.5440550000000  0.5310160000000  0.5471200000000 1.0
C      1  0.5454370000000  0.4681230000000  0.5439400000000 1.0
C      1  0.5524310000000  0.4478100000000  0.4819710000000 1.0
C      1  0.5469930000000  0.5029950000000  0.4411700000000 1.0
C      1  0.5559360000000  0.5532550000000  0.4823470000000 1.0
C      1  0.4533990000000  0.4646630000000  0.5482940000000 1.0
C      1  0.4566750000000  0.5308700000000  0.5479670000000 1.0
C      1  0.4453800000000  0.5514020000000  0.4808190000000 1.0
C      1  0.4539840000000  0.4978340000000  0.4456870000000 1.0
C      1  0.4447760000000  0.4474710000000  0.4828680000000 1.0
C      1  0.4618800000000  0.4897350000000  0.5778840000000 1.0
C      1  0.4603170000000  0.4305030000000  0.5153330000000 1.0
C      1  0.4572930000000  0.4594200000000  0.4352290000000 1.0
C      1  0.4634900000000  0.5444610000000  0.4457430000000 1.0
C      1  0.4582580000000  0.5673290000000  0.5321910000000 1.0
C      1  0.5381260000000  0.5063400000000  0.5776460000000 1.0
C      1  0.5355620000000  0.5662880000000  0.5141600000000 1.0
C      1  0.5440440000000  0.5416130000000  0.4316750000000 1.0
C      1  0.5366200000000  0.4546320000000  0.4459610000000 1.0
C      1  0.5404740000000  0.4307920000000  0.5309200000000 1.0
C      1  0.4319960000000  0.4343300000000  0.5338080000000 1.0
C      1  0.4270030000000  0.4484460000000  0.4474640000000 1.0
C      1  0.4327240000000  0.5310640000000  0.4400470000000 1.0
C      1  0.4319240000000  0.5725140000000  0.5117960000000 1.0
C      1  0.4343420000000  0.5090720000000  0.5728200000000 1.0
C      1  0.5650770000000  0.5604670000000  0.5303790000000 1.0
C      1  0.5732780000000  0.5519980000000  0.4466550000000 1.0
C      1  0.5665160000000  0.4684500000000  0.4371310000000 1.0
C      1  0.5680850000000  0.4267230000000  0.5119110000000 1.0
C      1  0.5663090000000  0.4882010000000  0.5714680000000 1.0
C      1  0.5289750000000  0.4756790000000  0.6016170000000 1.0
C      1  0.5309750000000  0.3981290000000  0.5080060000000 1.0
C      1  0.5304990000000  0.4535250000000  0.4136010000000 1.0
C      1  0.5372750000000  0.5748400000000  0.4254110000000 1.0
C      1  0.5275880000000  0.5864590000000  0.5393040000000 1.0
C      1  0.4687360000000  0.5260580000000  0.6045260000000 1.0
C      1  0.4610480000000  0.6011500000000  0.5111520000000 1.0
C      1  0.4699280000000  0.5475450000000  0.4132150000000 1.0
C      1  0.4649280000000  0.4272580000000  0.4257420000000 1.0
C      1  0.4662460000000  0.4160320000000  0.5427640000000 1.0
C      1  0.4820080000000  0.5222970000000  0.5182490000000 1.0
C      1  0.4786230000000  0.4913150000000  0.5324470000000 1.0
C      1  0.4790040000000  0.4661940000000  0.4907430000000 1.0
C      1  0.4857960000000  0.4886700000000  0.4677470000000 1.0
C      1  0.4813420000000  0.5356110000000  0.4865240000000 1.0
C      1  0.5128870000000  0.4744140000000  0.5216300000000 1.0
C      1  0.5161460000000  0.5061260000000  0.5331880000000 1.0
C      1  0.5192760000000  0.5396710000000  0.4891870000000 1.0
C      1  0.5182110000000  0.5141630000000  0.4663080000000 1.0
C      1  0.5184670000000  0.4673760000000  0.4887790000000 1.0
C      1  0.4783180000000  0.4565090000000  0.5294690000000 1.0
C      1  0.4728770000000  0.4484040000000  0.4634860000000 1.0
C      1  0.4828060000000  0.5157850000000  0.4478010000000 1.0
C      1  0.4692620000000  0.5624990000000  0.5019740000000 1.0
C      1  0.4754810000000  0.5162580000000  0.5646000000000 1.0
C      1  0.5183810000000  0.5399330000000  0.5289560000000 1.0
C      1  0.5292340000000  0.5520040000000  0.4606610000000 1.0
C      1  0.5198940000000  0.4851730000000  0.4479660000000 1.0
C      1  0.5284580000000  0.4374940000000  0.5016000000000 1.0
C      1  0.5240830000000  0.4800110000000  0.5621610000000 1.0
C      1  0.5426800000000  0.5399010000000  0.5771440000000 1.0
C      1  0.5485250000000  0.4392140000000  0.5609890000000 1.0
C      1  0.5489120000000  0.4255390000000  0.4588550000000 1.0
C      1  0.5489500000000  0.5144090000000  0.4114980000000 1.0
C      1  0.5475560000000  0.5833570000000  0.4871640000000 1.0
C      1  0.4533410000000  0.4588020000000  0.5799640000000 1.0
C      1  0.4484900000000  0.5600910000000  0.5617940000000 1.0
C      1  0.4512770000000  0.5731460000000  0.4577060000000 1.0
C      1  0.4508380000000  0.4862050000000  0.4151470000000 1.0
C      1  0.4551090000000  0.4176110000000  0.4866510000000 1.0
C      1  0.3918260000000  0.4997560000000  0.5021640000000 1.0
C      1  0.6082660000000  0.4979440000000  0.5007140000000 1.0
END
