TITL C-2782228-2999-435 -1.62911246642144e-07 125000 -117.264000892874 0 0 20 (Oh) n - 1
REM
REM in /home/nfs/bkarasulu/CARBON/AIRSS/Generating-Clusters/REBO/Higher-Symm/SD-CG/HFTN-CG
REM
REM
REM
REM
REM
REM ./C.cell (12c818d87b63d06a65506943cc24bca4)
REM
REM compiler GCC version 9.2.1 20190827 (Red Hat 9.2.1-1)
REM options -cpp -mtune=generic -march=x86-64 -g -O0 -fpre-include=/usr/include/finclude/math-vector-fortran.h
REM seed -1096775609 139870090 -2104055587 1222982927 -999683993 -2126095202 -1890793003 -411755998 129252802 1268793734 -2043354997 -620683369 953291528 -215447282 668331104 -1277290751 1023176136 -837077838 875220068 195369197 905035525 1552243449 -1013196797 -863265258 -317027973 -236565113 1780183372 -917102367 -2137347737 -1532588474 26420053 687139442 -1867248971
REM
CELL 1.54180   50.00000   50.00000   50.00000   90.00000   90.00000   90.00000
LATT -1
SFAC C  
C      1  0.5016570000000  0.5346220000000  0.5329650000000 1.0
C      1  0.5359510000000  0.5003280000000  0.5329650000000 1.0
C      1  0.5016570000000  0.5346220000000  0.4643770000000 1.0
C      1  0.5016570000000  0.4660340000000  0.5329650000000 1.0
C      1  0.4673630000000  0.5003280000000  0.4643770000000 1.0
C      1  0.5359510000000  0.5003280000000  0.4643770000000 1.0
C      1  0.4673630000000  0.5003280000000  0.5329650000000 1.0
C      1  0.4673630000000  0.5346220000000  0.4986710000000 1.0
C      1  0.5359510000000  0.4660340000000  0.4986710000000 1.0
C      1  0.5016570000000  0.4660340000000  0.4643770000000 1.0
C      1  0.5359510000000  0.5346220000000  0.4986710000000 1.0
C      1  0.4673630000000  0.4660340000000  0.4986710000000 1.0
C      1  0.4757810000000  0.5262040000000  0.5245470000000 1.0
C      1  0.5275340000000  0.4744520000000  0.5245470000000 1.0
C      1  0.5275330000000  0.5262040000000  0.4727940000000 1.0
C      1  0.5275330000000  0.4744520000000  0.4727950000000 1.0
C      1  0.4757810000000  0.5262040000000  0.4727950000000 1.0
C      1  0.4757810000000  0.4744520000000  0.5245470000000 1.0
C      1  0.4757810000000  0.4744520000000  0.4727950000000 1.0
C      1  0.5275330000000  0.5262040000000  0.5245470000000 1.0
END
