TITL C-2782230-7391-402 -0.00216680935843989 125000 -680.950389668172 0 0 119 (C1) n - 1
REM
REM in /home/nfs/bkarasulu/CARBON/AIRSS/Generating-Clusters/REBO/Higher-Symm/SD-CG/HFTN-CG
REM
REM
REM
REM
REM
REM ./C.cell (12c818d87b63d06a65506943cc24bca4)
REM
REM compiler GCC version 9.2.1 20190827 (Red Hat 9.2.1-1)
REM options -cpp -mtune=generic -march=x86-64 -g -O0 -fpre-include=/usr/include/finclude/math-vector-fortran.h
REM seed 1607795915 1825099053 1252982340 -845009967 727892649 -256350435 1586915856 -974568814 -55900941 -376552502 637671465 722948495 -729127335 -81350125 766462165 723864663 225572798 -980895459 -479128139 -197208892 1018117512 1589456414 -689187536 -711091256 -2079615015 -824475773 657182854 -932910516 -1381017550 796858934 64830476 85531270 -1499731042
REM
CELL 1.54180   50.00000   50.00000   50.00000   90.00000   90.00000   90.00000
LATT -1
SFAC C  
C      1  0.4300870000000  0.4994330000000  0.4307560000000 1.0
C      1  0.5871370000000  0.4885420000000  0.5677450000000 1.0
C      1  0.4804810000000  0.5064590000000  0.5848520000000 1.0
C      1  0.5273150000000  0.5821510000000  0.4870640000000 1.0
C      1  0.5850450000000  0.4831160000000  0.5339060000000 1.0
C      1  0.5513070000000  0.4140770000000  0.4933740000000 1.0
C      1  0.5464110000000  0.5604650000000  0.4837360000000 1.0
C      1  0.4764780000000  0.5745740000000  0.4936540000000 1.0
C      1  0.4617770000000  0.4199080000000  0.5019240000000 1.0
C      1  0.4679470000000  0.4666990000000  0.4474790000000 1.0
C      1  0.5726670000000  0.4720320000000  0.4798370000000 1.0
C      1  0.4912570000000  0.4796890000000  0.4927290000000 1.0
C      1  0.5084970000000  0.5237570000000  0.5752170000000 1.0
C      1  0.5633260000000  0.4485040000000  0.4622550000000 1.0
C      1  0.4671000000000  0.5849330000000  0.5235300000000 1.0
C      1  0.5171770000000  0.4247440000000  0.4528220000000 1.0
C      1  0.4353950000000  0.5750770000000  0.5281560000000 1.0
C      1  0.4727100000000  0.5018750000000  0.5388250000000 1.0
C      1  0.5495120000000  0.5585180000000  0.5379960000000 1.0
C      1  0.5431980000000  0.5454910000000  0.4393870000000 1.0
C      1  0.4926360000000  0.4436850000000  0.5803570000000 1.0
C      1  0.4996670000000  0.5030230000000  0.4124600000000 1.0
C      1  0.4339900000000  0.5118140000000  0.5704520000000 1.0
C      1  0.5454320000000  0.4605420000000  0.5715370000000 1.0
C      1  0.5678420000000  0.5238330000000  0.4754530000000 1.0
C      1  0.4644040000000  0.4819270000000  0.4725460000000 1.0
C      1  0.5030860000000  0.5245100000000  0.5441570000000 1.0
C      1  0.5502250000000  0.5241140000000  0.5575730000000 1.0
C      1  0.5369790000000  0.4514300000000  0.5203510000000 1.0
C      1  0.5027470000000  0.4086050000000  0.4752920000000 1.0
C      1  0.4331860000000  0.5295730000000  0.4722360000000 1.0
C      1  0.5870390000000  0.5169620000000  0.4988950000000 1.0
C      1  0.4932470000000  0.5240790000000  0.5073410000000 1.0
C      1  0.4873810000000  0.4407300000000  0.4571570000000 1.0
C      1  0.4575290000000  0.4927250000000  0.5746510000000 1.0
C      1  0.5884030000000  0.4881970000000  0.5038300000000 1.0
C      1  0.5163960000000  0.4785840000000  0.5243850000000 1.0
C      1  0.5014380000000  0.4239120000000  0.5003560000000 1.0
C      1  0.5003040000000  0.5694430000000  0.5590850000000 1.0
C      1  0.4104310000000  0.5004330000000  0.5048400000000 1.0
C      1  0.4192060000000  0.5573980000000  0.4718760000000 1.0
C      1  0.4993250000000  0.5779230000000  0.4405200000000 1.0
C      1  0.5700230000000  0.5447770000000  0.4527000000000 1.0
C      1  0.4198300000000  0.4774070000000  0.4437730000000 1.0
C      1  0.5169690000000  0.5018700000000  0.4985910000000 1.0
C      1  0.5533750000000  0.4904660000000  0.5620950000000 1.0
C      1  0.4369460000000  0.4389260000000  0.4670030000000 1.0
C      1  0.5344760000000  0.4826580000000  0.4763040000000 1.0
C      1  0.4389290000000  0.5420390000000  0.5027260000000 1.0
C      1  0.4380060000000  0.4602940000000  0.5260950000000 1.0
C      1  0.4565380000000  0.5058190000000  0.4273420000000 1.0
C      1  0.5072510000000  0.4929050000000  0.4427110000000 1.0
C      1  0.5270500000000  0.5210130000000  0.4224310000000 1.0
C      1  0.4674870000000  0.4505010000000  0.5011960000000 1.0
C      1  0.5276200000000  0.5494300000000  0.5626420000000 1.0
C      1  0.5301160000000  0.5247940000000  0.5300630000000 1.0
C      1  0.5506800000000  0.4759280000000  0.5047700000000 1.0
C      1  0.4105820000000  0.4663110000000  0.5065570000000 1.0
C      1  0.4733710000000  0.5352490000000  0.5399420000000 1.0
C      1  0.4628090000000  0.4285800000000  0.4384310000000 1.0
C      1  0.4587450000000  0.4673280000000  0.5522160000000 1.0
C      1  0.5641480000000  0.4508890000000  0.4348100000000 1.0
C      1  0.4692610000000  0.5312770000000  0.4433740000000 1.0
C      1  0.5741460000000  0.5569760000000  0.5228950000000 1.0
C      1  0.4631890000000  0.5092800000000  0.5009060000000 1.0
C      1  0.4720460000000  0.5207810000000  0.4739230000000 1.0
C      1  0.4218890000000  0.5383550000000  0.5685760000000 1.0
C      1  0.4224490000000  0.5714830000000  0.4981330000000 1.0
C      1  0.5584550000000  0.4255390000000  0.5173850000000 1.0
C      1  0.5200350000000  0.4226150000000  0.5272000000000 1.0
C      1  0.5132430000000  0.5528390000000  0.4253420000000 1.0
C      1  0.5602350000000  0.4330680000000  0.5468120000000 1.0
C      1  0.4101780000000  0.4820060000000  0.4759850000000 1.0
C      1  0.4993890000000  0.5131610000000  0.4623880000000 1.0
C      1  0.5011080000000  0.5523130000000  0.4917810000000 1.0
C      1  0.4223000000000  0.5482450000000  0.5425410000000 1.0
C      1  0.5292740000000  0.4362170000000  0.5564420000000 1.0
C      1  0.5089070000000  0.4501940000000  0.4824580000000 1.0
C      1  0.4947970000000  0.5863400000000  0.5346710000000 1.0
C      1  0.4950250000000  0.4837620000000  0.5555630000000 1.0
C      1  0.5872030000000  0.5319540000000  0.5231780000000 1.0
C      1  0.5044090000000  0.4550590000000  0.5439480000000 1.0
C      1  0.5096880000000  0.4914060000000  0.5845800000000 1.0
C      1  0.4504740000000  0.5732790000000  0.5579660000000 1.0
C      1  0.5145480000000  0.4602660000000  0.5844370000000 1.0
C      1  0.5913120000000  0.5588480000000  0.4466540000000 1.0
C      1  0.4425540000000  0.5091490000000  0.5416930000000 1.0
C      1  0.5594320000000  0.4971090000000  0.4611560000000 1.0
C      1  0.5208560000000  0.5366370000000  0.4610880000000 1.0
C      1  0.5182240000000  0.4656940000000  0.4549310000000 1.0
C      1  0.4878410000000  0.4314650000000  0.5295240000000 1.0
C      1  0.4380190000000  0.4523520000000  0.4387370000000 1.0
C      1  0.4239200000000  0.5228710000000  0.5213310000000 1.0
C      1  0.5712830000000  0.5665390000000  0.4961650000000 1.0
C      1  0.4773650000000  0.4801830000000  0.4191760000000 1.0
C      1  0.4425180000000  0.4887470000000  0.5073220000000 1.0
C      1  0.4916360000000  0.5519260000000  0.4589250000000 1.0
C      1  0.4670330000000  0.5471100000000  0.5111480000000 1.0
C      1  0.5135250000000  0.5944930000000  0.4656320000000 1.0
C      1  0.5141530000000  0.5827570000000  0.5141150000000 1.0
C      1  0.5809010000000  0.5147840000000  0.5470400000000 1.0
C      1  0.4574560000000  0.4166700000000  0.4707020000000 1.0
C      1  0.5365370000000  0.5278200000000  0.4873200000000 1.0
C      1  0.4730680000000  0.5577830000000  0.5601630000000 1.0
C      1  0.4894040000000  0.5327400000000  0.4186280000000 1.0
C      1  0.5438710000000  0.4957190000000  0.5305460000000 1.0
C      1  0.5403860000000  0.4330220000000  0.4729950000000 1.0
C      1  0.5761600000000  0.4585250000000  0.5559050000000 1.0
C      1  0.4706250000000  0.4403750000000  0.5641320000000 1.0
C      1  0.4559050000000  0.4321160000000  0.5340180000000 1.0
C      1  0.4758860000000  0.4731160000000  0.5226280000000 1.0
C      1  0.4839540000000  0.4466580000000  0.4182070000000 1.0
C      1  0.5141300000000  0.4460620000000  0.4279290000000 1.0
C      1  0.5424360000000  0.4635860000000  0.4234310000000 1.0
C      1  0.4819870000000  0.5897180000000  0.4676710000000 1.0
C      1  0.4426620000000  0.4615700000000  0.4864380000000 1.0
C      1  0.5399940000000  0.4925990000000  0.4349270000000 1.0
C      1  0.5247840000000  0.5525400000000  0.5162210000000 1.0
C      1  0.4372720000000  0.5016290000000  0.4700320000000 1.0
END
