TITL C-2782238-9940-874 0.000200682870860849 125000 -161.517173450835 0 0 30 (C1) n - 1
REM
REM in /home/nfs/bkarasulu/CARBON/AIRSS/Generating-Clusters/REBO/Higher-Symm/SD-CG/HFTN-CG
REM
REM
REM
REM
REM
REM ./C.cell (12c818d87b63d06a65506943cc24bca4)
REM
REM compiler GCC version 9.2.1 20190827 (Red Hat 9.2.1-1)
REM options -cpp -mtune=generic -march=x86-64 -g -O0 -fpre-include=/usr/include/finclude/math-vector-fortran.h
REM seed 1287192800 -362782648 194964495 1978216562 -2029190711 -1432480444 -533577802 -710695085 -1865138516 -1403274230 -1413878020 -2011645565 659042317 590826643 529676394 1413094522 -1092288171 2103038455 -1919929017 -700892360 2026971374 965398080 1991647743 2065252454 528960173 1856830522 -438075618 1734584847 362888723 -572120350 1696342269 -869282467 1545937479
REM
CELL 1.54180   50.00000   50.00000   50.00000   90.00000   90.00000   90.00000
LATT -1
SFAC C  
C      1  0.5230290000000  0.5168570000000  0.4894130000000 1.0
C      1  0.4947420000000  0.5210380000000  0.4730710000000 1.0
C      1  0.4707260000000  0.5253140000000  0.4939860000000 1.0
C      1  0.4836990000000  0.5214420000000  0.5230930000000 1.0
C      1  0.5162160000000  0.5206820000000  0.5207130000000 1.0
C      1  0.5323060000000  0.4590650000000  0.5300950000000 1.0
C      1  0.5403950000000  0.4560830000000  0.4801200000000 1.0
C      1  0.4949600000000  0.4614880000000  0.4573420000000 1.0
C      1  0.4597920000000  0.4665910000000  0.4934590000000 1.0
C      1  0.4825310000000  0.4633370000000  0.5388570000000 1.0
C      1  0.4920840000000  0.4893680000000  0.5250390000000 1.0
C      1  0.5244150000000  0.4877290000000  0.5185880000000 1.0
C      1  0.5300150000000  0.4845870000000  0.4863440000000 1.0
C      1  0.5010300000000  0.4884100000000  0.4721330000000 1.0
C      1  0.4778730000000  0.4928820000000  0.4957420000000 1.0
C      1  0.4746100000000  0.4416500000000  0.4964350000000 1.0
C      1  0.4881040000000  0.4398870000000  0.5228600000000 1.0
C      1  0.5173080000000  0.4370560000000  0.5180900000000 1.0
C      1  0.5217360000000  0.4355720000000  0.4887190000000 1.0
C      1  0.4952730000000  0.4386550000000  0.4753230000000 1.0
C      1  0.4471780000000  0.5425870000000  0.4886610000000 1.0
C      1  0.4706060000000  0.5356860000000  0.5461220000000 1.0
C      1  0.5319700000000  0.5394220000000  0.5381430000000 1.0
C      1  0.5454230000000  0.5350180000000  0.4794720000000 1.0
C      1  0.4942350000000  0.5374550000000  0.4478600000000 1.0
C      1  0.5641610000000  0.5502150000000  0.4711530000000 1.0
C      1  0.4938050000000  0.5513790000000  0.4264780000000 1.0
C      1  0.4269350000000  0.5574360000000  0.4840830000000 1.0
C      1  0.4594970000000  0.5477710000000  0.5656610000000 1.0
C      1  0.5453470000000  0.5553360000000  0.5529440000000 1.0
END
