TITL C-2782236-320-132 -1.51403663602328e-07 125000 -104.784062475536 0 0 18 (C3v) n - 1
REM
REM in /home/nfs/bkarasulu/CARBON/AIRSS/Generating-Clusters/REBO/Higher-Symm/SD-CG/HFTN-CG
REM
REM
REM
REM
REM
REM ./C.cell (12c818d87b63d06a65506943cc24bca4)
REM
REM compiler GCC version 9.2.1 20190827 (Red Hat 9.2.1-1)
REM options -cpp -mtune=generic -march=x86-64 -g -O0 -fpre-include=/usr/include/finclude/math-vector-fortran.h
REM seed -1729567960 628879522 -1544547872 -932044121 -1897826887 1295296550 -2015367622 1520093573 435005994 1182422964 2024078582 -1813216671 -539824030 -1962555192 771322095 1768976299 -1571974087 -561194739 -1504181999 1043017817 -1765469262 1718496756 2118632809 1532560083 1718068144 235437374 -731207190 -13993505 890987504 1238709844 -158201275 908170706 -1853490016
REM
CELL 1.54180   50.00000   50.00000   50.00000   90.00000   90.00000   90.00000
LATT -1
SFAC C  
C      1  0.5461940000000  0.5083460000000  0.5167370000000 1.0
C      1  0.5461760000000  0.4812860000000  0.4988600000000 1.0
C      1  0.5461860000000  0.5102990000000  0.4843640000000 1.0
C      1  0.4690650000000  0.4690250000000  0.5222900000000 1.0
C      1  0.4690620000000  0.4962140000000  0.4620290000000 1.0
C      1  0.4690960000000  0.5348070000000  0.5157060000000 1.0
C      1  0.5311450000000  0.4581540000000  0.4974680000000 1.0
C      1  0.5311690000000  0.5230850000000  0.4650270000000 1.0
C      1  0.5311870000000  0.5187150000000  0.5374790000000 1.0
C      1  0.4789790000000  0.4593890000000  0.4975560000000 1.0
C      1  0.4790020000000  0.5224430000000  0.4660520000000 1.0
C      1  0.4790190000000  0.5181990000000  0.5364100000000 1.0
C      1  0.5055220000000  0.5226220000000  0.5452820000000 1.0
C      1  0.5054730000000  0.4494680000000  0.4969510000000 1.0
C      1  0.5055010000000  0.5279020000000  0.4577630000000 1.0
C      1  0.4690900000000  0.5364420000000  0.4886070000000 1.0
C      1  0.4690810000000  0.4916760000000  0.5372550000000 1.0
C      1  0.4690530000000  0.4719280000000  0.4741630000000 1.0
END
