TITL C-2782228-2999-1003 0.00309483735084814 125000 -467.136638709685 0 0 82 (C1) n - 1
REM
REM in /home/nfs/bkarasulu/CARBON/AIRSS/Generating-Clusters/REBO/Higher-Symm/SD-CG/HFTN-CG
REM
REM
REM
REM
REM
REM ./C.cell (12c818d87b63d06a65506943cc24bca4)
REM
REM compiler GCC version 9.2.1 20190827 (Red Hat 9.2.1-1)
REM options -cpp -mtune=generic -march=x86-64 -g -O0 -fpre-include=/usr/include/finclude/math-vector-fortran.h
REM seed 190785829 -845845589 518540293 -72992485 2000654647 1620266237 -321740749 195271071 -1140153076 511618256 -948610206 -1510012593 -424988789 1498092597 -1958536849 -717857509 696810924 -1062091765 2110362543 1426772976 -570622902 470078902 -463431661 953450957 -1253863641 1773488170 2079694029 1168010014 -1189095610 -2081315409 -1189641865 -1813713018 -1672243690
REM
CELL 1.54180   50.00000   50.00000   50.00000   90.00000   90.00000   90.00000
LATT -1
SFAC C  
C      1  0.5450940000000  0.4499660000000  0.5692280000000 1.0
C      1  0.4818780000000  0.5251210000000  0.4615890000000 1.0
C      1  0.5425150000000  0.4417250000000  0.4654840000000 1.0
C      1  0.5587590000000  0.4923220000000  0.4529100000000 1.0
C      1  0.5293880000000  0.5468710000000  0.5578750000000 1.0
C      1  0.5625380000000  0.5187130000000  0.4627380000000 1.0
C      1  0.5047130000000  0.5067110000000  0.4599920000000 1.0
C      1  0.4932790000000  0.5687730000000  0.5284410000000 1.0
C      1  0.4681200000000  0.5149150000000  0.4229770000000 1.0
C      1  0.5081780000000  0.4657720000000  0.5255270000000 1.0
C      1  0.5069940000000  0.5429990000000  0.5105780000000 1.0
C      1  0.4840320000000  0.5205430000000  0.5155750000000 1.0
C      1  0.5254510000000  0.5619810000000  0.5312600000000 1.0
C      1  0.4663330000000  0.5744430000000  0.5109720000000 1.0
C      1  0.5125440000000  0.4993800000000  0.4923510000000 1.0
C      1  0.4310890000000  0.5043800000000  0.5228960000000 1.0
C      1  0.4290810000000  0.4522510000000  0.5203160000000 1.0
C      1  0.4838840000000  0.4717980000000  0.5704850000000 1.0
C      1  0.4753860000000  0.4294760000000  0.5089900000000 1.0
C      1  0.5538150000000  0.5265170000000  0.5580580000000 1.0
C      1  0.4608600000000  0.4468170000000  0.5312690000000 1.0
C      1  0.5736610000000  0.4713850000000  0.5027280000000 1.0
C      1  0.4960270000000  0.4759480000000  0.4627260000000 1.0
C      1  0.5409590000000  0.4288030000000  0.5169580000000 1.0
C      1  0.4743950000000  0.4699260000000  0.4390920000000 1.0
C      1  0.5478600000000  0.5619690000000  0.5048650000000 1.0
C      1  0.5011170000000  0.4490480000000  0.4338970000000 1.0
C      1  0.5113190000000  0.4494560000000  0.4741930000000 1.0
C      1  0.5604030000000  0.4690920000000  0.4750470000000 1.0
C      1  0.5424960000000  0.4993370000000  0.5689450000000 1.0
C      1  0.4782440000000  0.5219440000000  0.5455550000000 1.0
C      1  0.5997410000000  0.5026630000000  0.5132990000000 1.0
C      1  0.4536740000000  0.4920570000000  0.4381710000000 1.0
C      1  0.4752170000000  0.5361160000000  0.4875310000000 1.0
C      1  0.5250440000000  0.4244790000000  0.4897570000000 1.0
C      1  0.5589950000000  0.5508170000000  0.4745970000000 1.0
C      1  0.5220600000000  0.5770980000000  0.4945660000000 1.0
C      1  0.5615020000000  0.4712570000000  0.5283990000000 1.0
C      1  0.5176050000000  0.5090470000000  0.4307860000000 1.0
C      1  0.4493200000000  0.5257860000000  0.4589680000000 1.0
C      1  0.4281520000000  0.4855560000000  0.4287380000000 1.0
C      1  0.5231950000000  0.5373120000000  0.4855270000000 1.0
C      1  0.4877690000000  0.4528080000000  0.5471380000000 1.0
C      1  0.4728670000000  0.4937470000000  0.5733830000000 1.0
C      1  0.4768940000000  0.4415360000000  0.4557410000000 1.0
C      1  0.4688280000000  0.5428250000000  0.4285820000000 1.0
C      1  0.4796270000000  0.5641510000000  0.4532820000000 1.0
C      1  0.4784610000000  0.4962930000000  0.4923230000000 1.0
C      1  0.5749500000000  0.5100060000000  0.5127450000000 1.0
C      1  0.5302300000000  0.4292780000000  0.5591940000000 1.0
C      1  0.4868200000000  0.4667400000000  0.5004080000000 1.0
C      1  0.4922270000000  0.5053750000000  0.4123800000000 1.0
C      1  0.5216260000000  0.5402470000000  0.4299310000000 1.0
C      1  0.5169020000000  0.5047120000000  0.5787350000000 1.0
C      1  0.4810510000000  0.5541600000000  0.5554230000000 1.0
C      1  0.4499910000000  0.5096400000000  0.5577470000000 1.0
C      1  0.4446060000000  0.4761720000000  0.5367910000000 1.0
C      1  0.5071850000000  0.5647020000000  0.4710450000000 1.0
C      1  0.5019790000000  0.4208110000000  0.5147140000000 1.0
C      1  0.4973300000000  0.5556330000000  0.4251840000000 1.0
C      1  0.5373070000000  0.4534260000000  0.5281140000000 1.0
C      1  0.4684630000000  0.5639910000000  0.4852010000000 1.0
C      1  0.4001550000000  0.4962180000000  0.5468730000000 1.0
C      1  0.4562030000000  0.5549340000000  0.5329300000000 1.0
C      1  0.5085650000000  0.4290890000000  0.5414580000000 1.0
C      1  0.4242170000000  0.4908920000000  0.5596930000000 1.0
C      1  0.4293120000000  0.5410730000000  0.4505020000000 1.0
C      1  0.4061080000000  0.4628120000000  0.5095110000000 1.0
C      1  0.5325360000000  0.5506690000000  0.4553340000000 1.0
C      1  0.5526820000000  0.4751310000000  0.5579490000000 1.0
C      1  0.5283970000000  0.4778880000000  0.4743900000000 1.0
C      1  0.5371300000000  0.4851040000000  0.4356330000000 1.0
C      1  0.4558630000000  0.4970710000000  0.4717750000000 1.0
C      1  0.5029440000000  0.5308890000000  0.5670500000000 1.0
C      1  0.5280400000000  0.4576040000000  0.4389360000000 1.0
C      1  0.5532820000000  0.5238620000000  0.4939860000000 1.0
C      1  0.5572220000000  0.5411720000000  0.5278070000000 1.0
C      1  0.4730490000000  0.4436940000000  0.4832830000000 1.0
C      1  0.5472660000000  0.5085750000000  0.5303450000000 1.0
C      1  0.4415770000000  0.5310980000000  0.5329400000000 1.0
C      1  0.5232150000000  0.4945090000000  0.5209720000000 1.0
C      1  0.4022100000000  0.4908900000000  0.5167220000000 1.0
END
