TITL C-2782236-320-682 0.0083982619520858 125000 -1008.03019752885 0 0 172 (C1) n - 1
REM
REM in /home/nfs/bkarasulu/CARBON/AIRSS/Generating-Clusters/REBO/Higher-Symm/SD-CG/HFTN-CG
REM
REM
REM
REM
REM
REM ./C.cell (12c818d87b63d06a65506943cc24bca4)
REM
REM compiler GCC version 9.2.1 20190827 (Red Hat 9.2.1-1)
REM options -cpp -mtune=generic -march=x86-64 -g -O0 -fpre-include=/usr/include/finclude/math-vector-fortran.h
REM seed -1530699552 935169412 1221654437 -58305653 2071947881 -958765447 -228922589 1059661066 -176937546 -1276983018 -1860043623 1592699054 -141053062 -1387760559 -1957840682 1106834155 -1706640890 2030300575 -1239953073 -1247552041 -1620190603 -825560541 1948241065 -1018995820 -2105877897 1135487511 -396491833 1581411269 -1460327137 108669825 -762508596 439095257 1990354763
REM
CELL 1.54180   50.00000   50.00000   50.00000   90.00000   90.00000   90.00000
LATT -1
SFAC C  
C      1  0.5171680000000  0.3989180000000  0.4542230000000 1.0
C      1  0.4922190000000  0.5008970000000  0.5695670000000 1.0
C      1  0.5192200000000  0.4387550000000  0.4269110000000 1.0
C      1  0.4501050000000  0.4875640000000  0.5541050000000 1.0
C      1  0.5087520000000  0.5468350000000  0.5879030000000 1.0
C      1  0.4513480000000  0.5090920000000  0.4265650000000 1.0
C      1  0.5001000000000  0.4181490000000  0.4737660000000 1.0
C      1  0.5475980000000  0.4237490000000  0.4230160000000 1.0
C      1  0.4985390000000  0.5201250000000  0.6035450000000 1.0
C      1  0.4963140000000  0.5126720000000  0.3937740000000 1.0
C      1  0.4120350000000  0.5071470000000  0.5173010000000 1.0
C      1  0.5067230000000  0.4135950000000  0.5746540000000 1.0
C      1  0.5746000000000  0.4411000000000  0.5179130000000 1.0
C      1  0.4457980000000  0.4464640000000  0.4701750000000 1.0
C      1  0.5159300000000  0.5805310000000  0.5172690000000 1.0
C      1  0.5112700000000  0.4767130000000  0.4880910000000 1.0
C      1  0.5065830000000  0.5811110000000  0.5677240000000 1.0
C      1  0.5897860000000  0.5302990000000  0.4732340000000 1.0
C      1  0.5967860000000  0.4891790000000  0.4748560000000 1.0
C      1  0.5984030000000  0.4608730000000  0.5059830000000 1.0
C      1  0.4816200000000  0.4141980000000  0.5436490000000 1.0
C      1  0.4082310000000  0.5350300000000  0.4595780000000 1.0
C      1  0.4995380000000  0.5075610000000  0.4799100000000 1.0
C      1  0.4151180000000  0.5606890000000  0.5340880000000 1.0
C      1  0.5859460000000  0.5718350000000  0.4463780000000 1.0
C      1  0.5780730000000  0.5749500000000  0.5909750000000 1.0
C      1  0.3976970000000  0.5502670000000  0.5567250000000 1.0
C      1  0.4565850000000  0.5190840000000  0.5517220000000 1.0
C      1  0.5320870000000  0.5010890000000  0.5273620000000 1.0
C      1  0.5452040000000  0.5543650000000  0.4747770000000 1.0
C      1  0.4024080000000  0.5349120000000  0.4904370000000 1.0
C      1  0.4654370000000  0.5761410000000  0.5009650000000 1.0
C      1  0.4497970000000  0.5180060000000  0.4920830000000 1.0
C      1  0.4366990000000  0.5801430000000  0.5162530000000 1.0
C      1  0.5838290000000  0.4551890000000  0.4331510000000 1.0
C      1  0.4300550000000  0.5317810000000  0.5109400000000 1.0
C      1  0.5312810000000  0.5703960000000  0.5838890000000 1.0
C      1  0.4821840000000  0.5605160000000  0.5745600000000 1.0
C      1  0.5056380000000  0.5304140000000  0.5399180000000 1.0
C      1  0.4961970000000  0.5826420000000  0.4904120000000 1.0
C      1  0.5737630000000  0.4549870000000  0.5730970000000 1.0
C      1  0.4814710000000  0.5103700000000  0.5323960000000 1.0
C      1  0.5382940000000  0.4302000000000  0.5389070000000 1.0
C      1  0.4413090000000  0.4993980000000  0.5912700000000 1.0
C      1  0.4811520000000  0.4872090000000  0.4640470000000 1.0
C      1  0.5131870000000  0.4492410000000  0.4720710000000 1.0
C      1  0.4544930000000  0.5370110000000  0.4676640000000 1.0
C      1  0.4766850000000  0.4619400000000  0.5863800000000 1.0
C      1  0.6034630000000  0.5147250000000  0.5305160000000 1.0
C      1  0.5037160000000  0.4362020000000  0.5009690000000 1.0
C      1  0.5013930000000  0.4819970000000  0.3987810000000 1.0
C      1  0.5939190000000  0.5515640000000  0.4944320000000 1.0
C      1  0.4980690000000  0.4162660000000  0.4343190000000 1.0
C      1  0.5972520000000  0.5093300000000  0.4480080000000 1.0
C      1  0.5299080000000  0.5099810000000  0.3989170000000 1.0
C      1  0.3796430000000  0.5273030000000  0.5545530000000 1.0
C      1  0.3958630000000  0.4399790000000  0.4799240000000 1.0
C      1  0.4309850000000  0.4356420000000  0.5208560000000 1.0
C      1  0.4700260000000  0.5099080000000  0.5910740000000 1.0
C      1  0.4364720000000  0.5533480000000  0.5870960000000 1.0
C      1  0.5169960000000  0.5566060000000  0.4854040000000 1.0
C      1  0.5511340000000  0.4581120000000  0.5904790000000 1.0
C      1  0.4325310000000  0.4020350000000  0.4702120000000 1.0
C      1  0.4654360000000  0.5241110000000  0.3993670000000 1.0
C      1  0.4927670000000  0.4771190000000  0.4414180000000 1.0
C      1  0.4742680000000  0.4406300000000  0.5403080000000 1.0
C      1  0.6022010000000  0.4697980000000  0.4503810000000 1.0
C      1  0.4577810000000  0.5433190000000  0.5740950000000 1.0
C      1  0.4709730000000  0.5987810000000  0.5386570000000 1.0
C      1  0.5177460000000  0.5222790000000  0.5686490000000 1.0
C      1  0.4123310000000  0.5411930000000  0.5812760000000 1.0
C      1  0.5981190000000  0.5416440000000  0.4424700000000 1.0
C      1  0.5563230000000  0.5050890000000  0.5482190000000 1.0
C      1  0.4405870000000  0.5400580000000  0.4164940000000 1.0
C      1  0.4609690000000  0.4030390000000  0.4666220000000 1.0
C      1  0.4962860000000  0.6083850000000  0.5567930000000 1.0
C      1  0.3841870000000  0.4647650000000  0.4857600000000 1.0
C      1  0.3879710000000  0.5043820000000  0.4948520000000 1.0
C      1  0.4941080000000  0.4032290000000  0.5212220000000 1.0
C      1  0.4553160000000  0.4444540000000  0.4380520000000 1.0
C      1  0.5632560000000  0.4653340000000  0.4658200000000 1.0
C      1  0.4926830000000  0.5943210000000  0.4641420000000 1.0
C      1  0.4107470000000  0.5647560000000  0.5003580000000 1.0
C      1  0.4920790000000  0.5490280000000  0.3975440000000 1.0
C      1  0.5769810000000  0.4928400000000  0.4957660000000 1.0
C      1  0.3874860000000  0.4870340000000  0.4666820000000 1.0
C      1  0.5213970000000  0.5422990000000  0.4027490000000 1.0
C      1  0.5395500000000  0.5587330000000  0.4245510000000 1.0
C      1  0.4774370000000  0.4452520000000  0.5106780000000 1.0
C      1  0.4765610000000  0.5274350000000  0.4372510000000 1.0
C      1  0.5457010000000  0.4157340000000  0.4621100000000 1.0
C      1  0.5228360000000  0.5414140000000  0.5144240000000 1.0
C      1  0.5388080000000  0.4474410000000  0.4539720000000 1.0
C      1  0.5172430000000  0.4980650000000  0.6004480000000 1.0
C      1  0.4200110000000  0.4276470000000  0.4742470000000 1.0
C      1  0.4709320000000  0.4178650000000  0.4441630000000 1.0
C      1  0.4345220000000  0.4426780000000  0.5495860000000 1.0
C      1  0.4755930000000  0.5484770000000  0.4902330000000 1.0
C      1  0.5833520000000  0.4520050000000  0.4806320000000 1.0
C      1  0.5721110000000  0.4174600000000  0.4987500000000 1.0
C      1  0.5082390000000  0.4599390000000  0.4073080000000 1.0
C      1  0.5442950000000  0.4053940000000  0.4948320000000 1.0
C      1  0.5629220000000  0.5663180000000  0.5464900000000 1.0
C      1  0.4372180000000  0.4927010000000  0.4459050000000 1.0
C      1  0.4326200000000  0.4836400000000  0.5132070000000 1.0
C      1  0.5609590000000  0.4974260000000  0.4595540000000 1.0
C      1  0.4950970000000  0.5277270000000  0.5014280000000 1.0
C      1  0.5893230000000  0.4826590000000  0.5492490000000 1.0
C      1  0.5246700000000  0.4597740000000  0.5754360000000 1.0
C      1  0.4993630000000  0.6069660000000  0.5250450000000 1.0
C      1  0.4637150000000  0.4949960000000  0.5098950000000 1.0
C      1  0.5744200000000  0.4885250000000  0.5793400000000 1.0
C      1  0.5205970000000  0.4809780000000  0.4389600000000 1.0
C      1  0.4368410000000  0.5775830000000  0.4819790000000 1.0
C      1  0.4056320000000  0.4835040000000  0.4466490000000 1.0
C      1  0.4439600000000  0.5785950000000  0.4517710000000 1.0
C      1  0.4305850000000  0.5701110000000  0.4280010000000 1.0
C      1  0.4933110000000  0.4810510000000  0.5356790000000 1.0
C      1  0.5899270000000  0.5589130000000  0.5411580000000 1.0
C      1  0.4741670000000  0.5763280000000  0.4452320000000 1.0
C      1  0.5664180000000  0.4729760000000  0.4194800000000 1.0
C      1  0.5720570000000  0.4279140000000  0.4435020000000 1.0
C      1  0.5456820000000  0.5658580000000  0.5209620000000 1.0
C      1  0.6011690000000  0.5415610000000  0.5215670000000 1.0
C      1  0.4695200000000  0.4576310000000  0.4168470000000 1.0
C      1  0.4619570000000  0.4663570000000  0.4922650000000 1.0
C      1  0.4032540000000  0.4866010000000  0.5420700000000 1.0
C      1  0.5640240000000  0.5671650000000  0.4964390000000 1.0
C      1  0.5190500000000  0.4849270000000  0.5550010000000 1.0
C      1  0.5246120000000  0.4154750000000  0.5155970000000 1.0
C      1  0.5871680000000  0.5139460000000  0.5600770000000 1.0
C      1  0.5004970000000  0.5628130000000  0.5394850000000 1.0
C      1  0.5624570000000  0.5953140000000  0.4680630000000 1.0
C      1  0.5691270000000  0.4399580000000  0.5496340000000 1.0
C      1  0.4448490000000  0.4707720000000  0.5928870000000 1.0
C      1  0.4736810000000  0.4672510000000  0.5547580000000 1.0
C      1  0.5666400000000  0.4815930000000  0.5252610000000 1.0
C      1  0.5381500000000  0.4846230000000  0.4168740000000 1.0
C      1  0.4145020000000  0.5113340000000  0.5834120000000 1.0
C      1  0.4331540000000  0.5365410000000  0.4490650000000 1.0
C      1  0.5261670000000  0.5285730000000  0.4340020000000 1.0
C      1  0.5037140000000  0.5244390000000  0.4525160000000 1.0
C      1  0.4269450000000  0.4717480000000  0.5509580000000 1.0
C      1  0.4776400000000  0.5537280000000  0.4235490000000 1.0
C      1  0.4516830000000  0.4918570000000  0.4720780000000 1.0
C      1  0.5894680000000  0.5814650000000  0.4788550000000 1.0
C      1  0.5440480000000  0.5015330000000  0.4954740000000 1.0
C      1  0.3930340000000  0.5034220000000  0.5642470000000 1.0
C      1  0.5314310000000  0.4886790000000  0.4659420000000 1.0
C      1  0.3869840000000  0.4763620000000  0.5151350000000 1.0
C      1  0.4518710000000  0.4282760000000  0.4983660000000 1.0
C      1  0.4777460000000  0.4064760000000  0.4947920000000 1.0
C      1  0.5555670000000  0.5231040000000  0.4173420000000 1.0
C      1  0.4456820000000  0.5467490000000  0.5362130000000 1.0
C      1  0.5584330000000  0.5256900000000  0.4760980000000 1.0
C      1  0.4918680000000  0.5541530000000  0.4626730000000 1.0
C      1  0.5199870000000  0.4329760000000  0.5627900000000 1.0
C      1  0.5853010000000  0.4227440000000  0.4725470000000 1.0
C      1  0.5037630000000  0.4719750000000  0.5945600000000 1.0
C      1  0.4491350000000  0.4437520000000  0.5756330000000 1.0
C      1  0.6062280000000  0.4832470000000  0.5212840000000 1.0
C      1  0.5341600000000  0.3802200000000  0.4755280000000 1.0
C      1  0.4672610000000  0.5676530000000  0.5439480000000 1.0
C      1  0.4282200000000  0.4617060000000  0.4380310000000 1.0
C      1  0.5716050000000  0.5018600000000  0.4302560000000 1.0
C      1  0.5571990000000  0.5711630000000  0.5737270000000 1.0
C      1  0.4163210000000  0.4592090000000  0.5127630000000 1.0
C      1  0.5454010000000  0.4585870000000  0.5234830000000 1.0
C      1  0.5724530000000  0.5511410000000  0.4225680000000 1.0
C      1  0.5438860000000  0.5037010000000  0.5799730000000 1.0
C      1  0.5517330000000  0.5720990000000  0.4494210000000 1.0
C      1  0.5179590000000  0.4735510000000  0.5164210000000 1.0
END
