TITL C-2782232-2968-1450 -8.03489933413519e-08 125000 -19.0187538210903 0 0 4 (D(inf)h) n - 1
REM
REM in /home/nfs/bkarasulu/CARBON/AIRSS/Generating-Clusters/REBO/Higher-Symm/SD-CG/HFTN-CG
REM
REM
REM
REM
REM
REM ./C.cell (12c818d87b63d06a65506943cc24bca4)
REM
REM compiler GCC version 9.2.1 20190827 (Red Hat 9.2.1-1)
REM options -cpp -mtune=generic -march=x86-64 -g -O0 -fpre-include=/usr/include/finclude/math-vector-fortran.h
REM seed 1195656353 -1455874367 1418959466 1765035853 4589520 -303881509 -1892738653 -1297905407 -881915529 1126295549 -1243091040 1005751183 -1090127473 406453496 -790993426 786279929 -2005605777 2085788392 -362474385 -1666594854 619537055 -135608864 -1798568570 1825948757 788573350 -1688690547 1665124907 -1345661656 2097756617 -915698172 -998008251 -58391245 -1886674543
REM
CELL 1.54180   50.00000   50.00000   50.00000   90.00000   90.00000   90.00000
LATT -1
SFAC C  
C      1  0.5016360000000  0.5395230000000  0.5005900000000 1.0
C      1  0.5016360000000  0.5133150000000  0.5005900000000 1.0
C      1  0.5016360000000  0.4866850000000  0.5005900000000 1.0
C      1  0.5016360000000  0.4604770000000  0.5005900000000 1.0
END
