TITL C-2782239-8622-854 -0.00165745024740878 125000 -128.765471735964 0 0 25 (C1) n - 1
REM
REM in /home/nfs/bkarasulu/CARBON/AIRSS/Generating-Clusters/REBO/Higher-Symm/SD-CG/HFTN-CG
REM
REM
REM
REM
REM
REM ./C.cell (12c818d87b63d06a65506943cc24bca4)
REM
REM compiler GCC version 9.2.1 20190827 (Red Hat 9.2.1-1)
REM options -cpp -mtune=generic -march=x86-64 -g -O0 -fpre-include=/usr/include/finclude/math-vector-fortran.h
REM seed 1363214657 869157818 -2060193090 -1692466910 -2045905151 1211408924 -993298729 -468226879 1783227753 -829647293 581451764 -618301854 1484628033 -1035467921 -1966825657 687192554 -328251530 45532329 -1767417504 1362297334 1668350309 1401058574 -1346027505 985504394 330109527 1672067409 654924072 603319834 -1093298678 -194972768 -1991255809 1297080521 1662024644
REM
CELL 1.54180   50.00000   50.00000   50.00000   90.00000   90.00000   90.00000
LATT -1
SFAC C  
C      1  0.5168440000000  0.5271610000000  0.5411030000000 1.0
C      1  0.4619620000000  0.4528280000000  0.5320710000000 1.0
C      1  0.5122680000000  0.5335950000000  0.5144780000000 1.0
C      1  0.4845040000000  0.5131470000000  0.4942790000000 1.0
C      1  0.5429250000000  0.4615150000000  0.4780030000000 1.0
C      1  0.5069000000000  0.4936140000000  0.4517600000000 1.0
C      1  0.5084630000000  0.4965180000000  0.4819500000000 1.0
C      1  0.5091030000000  0.4546690000000  0.5174880000000 1.0
C      1  0.4643240000000  0.5250800000000  0.4486290000000 1.0
C      1  0.4527570000000  0.4787740000000  0.5306370000000 1.0
C      1  0.5306420000000  0.5039270000000  0.5456640000000 1.0
C      1  0.4866640000000  0.4436600000000  0.5254180000000 1.0
C      1  0.4772310000000  0.5027860000000  0.4384140000000 1.0
C      1  0.5309070000000  0.5243570000000  0.4903360000000 1.0
C      1  0.4842870000000  0.4721960000000  0.4377810000000 1.0
C      1  0.5306110000000  0.4981270000000  0.4378670000000 1.0
C      1  0.4909900000000  0.5487120000000  0.4932230000000 1.0
C      1  0.5464180000000  0.4791140000000  0.5571450000000 1.0
C      1  0.4666050000000  0.5029560000000  0.5143860000000 1.0
C      1  0.5317460000000  0.4765760000000  0.5267030000000 1.0
C      1  0.5075100000000  0.5427660000000  0.5613350000000 1.0
C      1  0.5210020000000  0.5511770000000  0.4797840000000 1.0
C      1  0.4410090000000  0.5087340000000  0.5335470000000 1.0
C      1  0.5242370000000  0.4738320000000  0.4947720000000 1.0
C      1  0.4700930000000  0.5341790000000  0.4732290000000 1.0
END
