TITL C-2782226-7400-1268 -0.00287634474819027 125000 -60.3747842544943 0 0 12 (C1) n - 1
REM
REM in /home/nfs/bkarasulu/CARBON/AIRSS/Generating-Clusters/REBO/Higher-Symm/SD-CG/HFTN-CG
REM
REM
REM
REM
REM
REM ./C.cell (12c818d87b63d06a65506943cc24bca4)
REM
REM compiler GCC version 9.2.1 20190827 (Red Hat 9.2.1-1)
REM options -cpp -mtune=generic -march=x86-64 -g -O0 -fpre-include=/usr/include/finclude/math-vector-fortran.h
REM seed 1512631621 1932857215 516504676 -1452279148 386726983 885232912 1387263632 1109803775 -1160347115 1321378332 1175865305 409664390 1858972638 616855098 368215149 -1911559844 1347903476 1442240805 -1854605938 344064217 -1151240583 -978754815 1217370715 1028644312 1798497767 1880472347 -1269331626 -496148605 -1632284363 -943658172 552630826 1136502545 -2142111748
REM
CELL 1.54180   50.00000   50.00000   50.00000   90.00000   90.00000   90.00000
LATT -1
SFAC C  
C      1  0.5163670000000  0.5275380000000  0.4684390000000 1.0
C      1  0.5008010000000  0.4770270000000  0.4669800000000 1.0
C      1  0.5218080000000  0.4741620000000  0.5008760000000 1.0
C      1  0.4847110000000  0.5181730000000  0.5561570000000 1.0
C      1  0.5077370000000  0.5114340000000  0.5039820000000 1.0
C      1  0.4999950000000  0.4708270000000  0.5132000000000 1.0
C      1  0.4854930000000  0.5133550000000  0.5298870000000 1.0
C      1  0.4768250000000  0.5252420000000  0.4991370000000 1.0
C      1  0.4948840000000  0.5379120000000  0.4767510000000 1.0
C      1  0.4788670000000  0.4755550000000  0.4796010000000 1.0
C      1  0.4743050000000  0.4899640000000  0.5077550000000 1.0
C      1  0.5239430000000  0.4977390000000  0.4776030000000 1.0
END
