TITL C-2782240-8521-908 0.000122127752900278 125000 -273.76081605575 0 0 47 (C1) n - 1
REM
REM in /home/nfs/bkarasulu/CARBON/AIRSS/Generating-Clusters/REBO/Higher-Symm/SD-CG/HFTN-CG
REM
REM
REM
REM
REM
REM ./C.cell (12c818d87b63d06a65506943cc24bca4)
REM
REM compiler GCC version 9.2.1 20190827 (Red Hat 9.2.1-1)
REM options -cpp -mtune=generic -march=x86-64 -g -O0 -fpre-include=/usr/include/finclude/math-vector-fortran.h
REM seed -2069155067 -417149923 -2147273697 2035668447 1450978095 -112362642 2089894503 -595561988 915463448 1268209444 -1521621592 1121300973 -1228262354 456684706 -883830998 -1739258056 1225478936 -1410126643 -2075832768 38586781 -857811011 374210234 -836542342 -1955921640 -537154928 1963455442 -249599232 -1518197621 1453079933 2050398696 1514379808 -1833654279 -1785422931
REM
CELL 1.54180   50.00000   50.00000   50.00000   90.00000   90.00000   90.00000
LATT -1
SFAC C  
C      1  0.4584750000000  0.4989220000000  0.5450850000000 1.0
C      1  0.4617800000000  0.4669610000000  0.5407070000000 1.0
C      1  0.4949310000000  0.5368200000000  0.5406280000000 1.0
C      1  0.4928050000000  0.5369610000000  0.4598100000000 1.0
C      1  0.4688920000000  0.4978410000000  0.4947930000000 1.0
C      1  0.4828190000000  0.5653600000000  0.5043170000000 1.0
C      1  0.4569260000000  0.5260530000000  0.5462410000000 1.0
C      1  0.5261310000000  0.4665920000000  0.4422670000000 1.0
C      1  0.5531000000000  0.4909110000000  0.5440520000000 1.0
C      1  0.5389630000000  0.4668380000000  0.5255300000000 1.0
C      1  0.4976320000000  0.5559920000000  0.5607110000000 1.0
C      1  0.4809200000000  0.5614400000000  0.4766370000000 1.0
C      1  0.5242970000000  0.4230960000000  0.4664790000000 1.0
C      1  0.5239650000000  0.5787140000000  0.5349950000000 1.0
C      1  0.5745690000000  0.4848230000000  0.5230970000000 1.0
C      1  0.5079830000000  0.4616430000000  0.5308010000000 1.0
C      1  0.5023490000000  0.4700160000000  0.4273440000000 1.0
C      1  0.5672690000000  0.4585540000000  0.5081970000000 1.0
C      1  0.4554940000000  0.5270410000000  0.4956680000000 1.0
C      1  0.4602350000000  0.5372160000000  0.4644310000000 1.0
C      1  0.4892960000000  0.4913660000000  0.4745890000000 1.0
C      1  0.5350150000000  0.5081240000000  0.4665320000000 1.0
C      1  0.4280500000000  0.4560790000000  0.4846920000000 1.0
C      1  0.5291000000000  0.4933860000000  0.4968670000000 1.0
C      1  0.4825270000000  0.4500040000000  0.5252240000000 1.0
C      1  0.5049330000000  0.5127350000000  0.4647420000000 1.0
C      1  0.5431210000000  0.4881190000000  0.4447220000000 1.0
C      1  0.5400540000000  0.5153730000000  0.5502040000000 1.0
C      1  0.5218400000000  0.4509970000000  0.4689530000000 1.0
C      1  0.5384270000000  0.4628720000000  0.4912610000000 1.0
C      1  0.4474950000000  0.5065980000000  0.4623140000000 1.0
C      1  0.4929190000000  0.4612390000000  0.4738350000000 1.0
C      1  0.5557070000000  0.5138060000000  0.4914020000000 1.0
C      1  0.4767130000000  0.4776620000000  0.4322590000000 1.0
C      1  0.5096020000000  0.4935090000000  0.5206070000000 1.0
C      1  0.4769320000000  0.4465720000000  0.4974340000000 1.0
C      1  0.5420980000000  0.5654250000000  0.5500440000000 1.0
C      1  0.4563280000000  0.4575730000000  0.4739620000000 1.0
C      1  0.5026890000000  0.5791560000000  0.5183660000000 1.0
C      1  0.4174410000000  0.4776100000000  0.4939000000000 1.0
C      1  0.4327380000000  0.5025070000000  0.4910890000000 1.0
C      1  0.5504250000000  0.5405910000000  0.5577680000000 1.0
C      1  0.4784880000000  0.4894080000000  0.5207720000000 1.0
C      1  0.4688850000000  0.5420510000000  0.5198380000000 1.0
C      1  0.5141890000000  0.5167080000000  0.5388180000000 1.0
C      1  0.5778730000000  0.5073160000000  0.5054600000000 1.0
C      1  0.4575770000000  0.4814190000000  0.4525540000000 1.0
END
