TITL C-2782225-7408-1082 -0.00343181893396966 125000 -829.767495833072 0 0 147 (D3) n - 1
REM
REM in /home/nfs/bkarasulu/CARBON/AIRSS/Generating-Clusters/REBO/Higher-Symm/SD-CG/HFTN-CG
REM
REM
REM
REM
REM
REM ./C.cell (12c818d87b63d06a65506943cc24bca4)
REM
REM compiler GCC version 9.2.1 20190827 (Red Hat 9.2.1-1)
REM options -cpp -mtune=generic -march=x86-64 -g -O0 -fpre-include=/usr/include/finclude/math-vector-fortran.h
REM seed -1445539431 -685941907 975206968 2037137768 -671301992 -1305402919 24689246 1489099705 655640657 -1476436265 1420445695 -764176584 457689323 991759468 -1888822444 1061102292 -6543936 1300654776 -1307872537 686258255 -2014275987 1319147578 417805832 1072522761 1260872008 879219664 1590790829 963714027 1901348504 1388832414 1372407385 -2028439844 -1774418839
REM
CELL 1.54180   50.00000   50.00000   50.00000   90.00000   90.00000   90.00000
LATT -1
SFAC C  
C      1  0.5684810000000  0.5479890000000  0.5459390000000 1.0
C      1  0.4241990000000  0.5353100000000  0.5459380000000 1.0
C      1  0.5073210000000  0.4166980000000  0.5459360000000 1.0
C      1  0.5741970000000  0.5478940000000  0.4569680000000 1.0
C      1  0.4214250000000  0.5403110000000  0.4569680000000 1.0
C      1  0.5043780000000  0.4117980000000  0.4569650000000 1.0
C      1  0.5741980000000  0.4521080000000  0.5432520000000 1.0
C      1  0.4214260000000  0.4596870000000  0.5432520000000 1.0
C      1  0.5043760000000  0.5882020000000  0.5432550000000 1.0
C      1  0.5684820000000  0.4520120000000  0.4542810000000 1.0
C      1  0.4241990000000  0.4646890000000  0.4542820000000 1.0
C      1  0.5073190000000  0.5833020000000  0.4542840000000 1.0
C      1  0.5444510000000  0.5485160000000  0.4095820000000 1.0
C      1  0.4357600000000  0.5142410000000  0.4095810000000 1.0
C      1  0.5197890000000  0.4372490000000  0.4095790000000 1.0
C      1  0.5482350000000  0.5440140000000  0.5924200000000 1.0
C      1  0.4377640000000  0.5197620000000  0.5924200000000 1.0
C      1  0.5140020000000  0.4362170000000  0.5924180000000 1.0
C      1  0.5482360000000  0.4559870000000  0.4078000000000 1.0
C      1  0.4377640000000  0.4802360000000  0.4078000000000 1.0
C      1  0.5140000000000  0.5637830000000  0.4078020000000 1.0
C      1  0.5444520000000  0.4514850000000  0.5906380000000 1.0
C      1  0.4357600000000  0.4857580000000  0.5906390000000 1.0
C      1  0.5197880000000  0.5627510000000  0.5906400000000 1.0
C      1  0.5228580000000  0.5176160000000  0.4194420000000 1.0
C      1  0.4733160000000  0.5109910000000  0.4194420000000 1.0
C      1  0.5038250000000  0.4713990000000  0.4194410000000 1.0
C      1  0.5282980000000  0.5131750000000  0.5778160000000 1.0
C      1  0.4744400000000  0.5179160000000  0.5778160000000 1.0
C      1  0.4972630000000  0.4689030000000  0.5778150000000 1.0
C      1  0.5282980000000  0.4868250000000  0.4224040000000 1.0
C      1  0.4744400000000  0.4820830000000  0.4224040000000 1.0
C      1  0.4972620000000  0.5310970000000  0.4224050000000 1.0
C      1  0.5228590000000  0.4823850000000  0.5807780000000 1.0
C      1  0.4733170000000  0.4890090000000  0.5807780000000 1.0
C      1  0.5038240000000  0.5286010000000  0.5807790000000 1.0
C      1  0.4136790000000  0.4448210000000  0.4799480000000 1.0
C      1  0.5909470000000  0.4528340000000  0.4799480000000 1.0
C      1  0.4953740000000  0.6023460000000  0.4799520000000 1.0
C      1  0.4154190000000  0.4473410000000  0.5119990000000 1.0
C      1  0.5878940000000  0.4530800000000  0.5119990000000 1.0
C      1  0.4966870000000  0.5995780000000  0.5120030000000 1.0
C      1  0.4154180000000  0.5526570000000  0.4882210000000 1.0
C      1  0.5878930000000  0.5469220000000  0.4882210000000 1.0
C      1  0.4966890000000  0.4004220000000  0.4882170000000 1.0
C      1  0.4136780000000  0.5551770000000  0.5202720000000 1.0
C      1  0.5909460000000  0.5471680000000  0.5202710000000 1.0
C      1  0.4953760000000  0.3976540000000  0.5202680000000 1.0
C      1  0.4751070000000  0.5752850000000  0.4539250000000 1.0
C      1  0.4472490000000  0.4408010000000  0.4539220000000 1.0
C      1  0.5776440000000  0.4839170000000  0.4539230000000 1.0
C      1  0.4761890000000  0.5739190000000  0.5558520000000 1.0
C      1  0.4478890000000  0.4424180000000  0.5558490000000 1.0
C      1  0.5759220000000  0.4836600000000  0.5558500000000 1.0
C      1  0.4761910000000  0.4260810000000  0.4443680000000 1.0
C      1  0.4478870000000  0.5575810000000  0.4443710000000 1.0
C      1  0.5759220000000  0.5163420000000  0.4443700000000 1.0
C      1  0.4751080000000  0.4247150000000  0.5462950000000 1.0
C      1  0.4472480000000  0.5591980000000  0.5462980000000 1.0
C      1  0.5776440000000  0.5160840000000  0.5462970000000 1.0
C      1  0.4712550000000  0.5809350000000  0.4877870000000 1.0
C      1  0.4442810000000  0.4346400000000  0.4877840000000 1.0
C      1  0.5844640000000  0.4844260000000  0.4877850000000 1.0
C      1  0.4716980000000  0.5797000000000  0.5222720000000 1.0
C      1  0.4451290000000  0.4356390000000  0.5222690000000 1.0
C      1  0.5831730000000  0.4846590000000  0.5222700000000 1.0
C      1  0.4717000000000  0.4203000000000  0.4779480000000 1.0
C      1  0.4451270000000  0.5643590000000  0.4779510000000 1.0
C      1  0.5831730000000  0.5153420000000  0.4779500000000 1.0
C      1  0.4712570000000  0.4190650000000  0.5124330000000 1.0
C      1  0.4442790000000  0.5653590000000  0.5124360000000 1.0
C      1  0.5844630000000  0.5155750000000  0.5124350000000 1.0
C      1  0.4545680000000  0.5458510000000  0.5772700000000 1.0
C      1  0.4830070000000  0.4377270000000  0.5772680000000 1.0
C      1  0.5624260000000  0.5164170000000  0.5772690000000 1.0
C      1  0.4568420000000  0.5410850000000  0.4158090000000 1.0
C      1  0.4860000000000  0.4420850000000  0.4158060000000 1.0
C      1  0.5571580000000  0.5168360000000  0.4158080000000 1.0
C      1  0.4568430000000  0.4589140000000  0.5844110000000 1.0
C      1  0.4859990000000  0.5579150000000  0.5844140000000 1.0
C      1  0.5571580000000  0.4831650000000  0.5844120000000 1.0
C      1  0.4545690000000  0.4541480000000  0.4229500000000 1.0
C      1  0.4830050000000  0.5622730000000  0.4229520000000 1.0
C      1  0.5624260000000  0.4835840000000  0.4229510000000 1.0
C      1  0.5631600000000  0.5680840000000  0.4813600000000 1.0
C      1  0.4094580000000  0.5206570000000  0.4813590000000 1.0
C      1  0.5273820000000  0.4112610000000  0.4813570000000 1.0
C      1  0.5663450000000  0.5702780000000  0.5211140000000 1.0
C      1  0.4059640000000  0.5223170000000  0.5211130000000 1.0
C      1  0.5276910000000  0.4074030000000  0.5211100000000 1.0
C      1  0.5663470000000  0.4297230000000  0.4791060000000 1.0
C      1  0.4059650000000  0.4776810000000  0.4791070000000 1.0
C      1  0.5276880000000  0.5925970000000  0.4791100000000 1.0
C      1  0.5631620000000  0.4319180000000  0.5188600000000 1.0
C      1  0.4094590000000  0.4793410000000  0.5188610000000 1.0
C      1  0.5273800000000  0.5887400000000  0.5188630000000 1.0
C      1  0.5291530000000  0.4900170000000  0.5200980000000 1.0
C      1  0.4940680000000  0.5302380000000  0.5200990000000 1.0
C      1  0.4767780000000  0.4797430000000  0.5200980000000 1.0
C      1  0.5243480000000  0.4790320000000  0.4823940000000 1.0
C      1  0.5059860000000  0.5315710000000  0.4823960000000 1.0
C      1  0.4696660000000  0.4893990000000  0.4823950000000 1.0
C      1  0.5243480000000  0.5209690000000  0.5178260000000 1.0
C      1  0.5059860000000  0.4684290000000  0.5178240000000 1.0
C      1  0.4696660000000  0.5106010000000  0.5178250000000 1.0
C      1  0.5291530000000  0.5099830000000  0.4801210000000 1.0
C      1  0.4940690000000  0.4697620000000  0.4801210000000 1.0
C      1  0.4767780000000  0.5202560000000  0.4801220000000 1.0
C      1  0.5111180000000  0.5585240000000  0.5173230000000 1.0
C      1  0.4437580000000  0.4803660000000  0.5173210000000 1.0
C      1  0.5451240000000  0.4611090000000  0.5173210000000 1.0
C      1  0.5201650000000  0.5620410000000  0.4855570000000 1.0
C      1  0.4361890000000  0.4864440000000  0.4855550000000 1.0
C      1  0.5436460000000  0.4515170000000  0.4855550000000 1.0
C      1  0.5201670000000  0.4379600000000  0.5146630000000 1.0
C      1  0.4361890000000  0.5135550000000  0.5146650000000 1.0
C      1  0.5436450000000  0.5484840000000  0.5146650000000 1.0
C      1  0.5111190000000  0.4414770000000  0.4828970000000 1.0
C      1  0.4437570000000  0.5196320000000  0.4828990000000 1.0
C      1  0.5451230000000  0.5388920000000  0.4828990000000 1.0
C      1  0.4972780000000  0.4577630000000  0.5461460000000 1.0
C      1  0.5379390000000  0.5187600000000  0.5461470000000 1.0
C      1  0.4647840000000  0.5234740000000  0.5461470000000 1.0
C      1  0.4941360000000  0.4609820000000  0.4498020000000 1.0
C      1  0.5367240000000  0.5144320000000  0.4498030000000 1.0
C      1  0.4691410000000  0.5245890000000  0.4498030000000 1.0
C      1  0.4941350000000  0.5390180000000  0.5504180000000 1.0
C      1  0.5367240000000  0.4855690000000  0.5504170000000 1.0
C      1  0.4691410000000  0.4754100000000  0.5504170000000 1.0
C      1  0.4972770000000  0.5422370000000  0.4540740000000 1.0
C      1  0.5379390000000  0.4812410000000  0.4540730000000 1.0
C      1  0.4647840000000  0.4765250000000  0.4540730000000 1.0
C      1  0.4390320000000  0.5185980000000  0.4432000000000 1.0
C      1  0.5143790000000  0.4379030000000  0.4431990000000 1.0
C      1  0.5465900000000  0.5435030000000  0.4432010000000 1.0
C      1  0.4380430000000  0.5126120000000  0.5611320000000 1.0
C      1  0.5200550000000  0.4400360000000  0.5611300000000 1.0
C      1  0.5419020000000  0.5473490000000  0.5611320000000 1.0
C      1  0.4380430000000  0.4873870000000  0.4390890000000 1.0
C      1  0.5200540000000  0.5599650000000  0.4390900000000 1.0
C      1  0.5419030000000  0.4526520000000  0.4390880000000 1.0
C      1  0.4390320000000  0.4814000000000  0.5570200000000 1.0
C      1  0.5143770000000  0.5620980000000  0.5570210000000 1.0
C      1  0.5465910000000  0.4564980000000  0.5570190000000 1.0
C      1  0.5528470000000  0.4084680000000  0.5001080000000 1.0
C      1  0.5528450000000  0.5915330000000  0.5001120000000 1.0
C      1  0.3943080000000  0.4999990000000  0.5001100000000 1.0
END
