TITL C-2782233-7966-1229 0.00197057285556033 125000 -124.149218187641 0 0 23 (S4) n - 1
REM
REM in /home/nfs/bkarasulu/CARBON/AIRSS/Generating-Clusters/REBO/Higher-Symm/SD-CG/HFTN-CG
REM
REM
REM
REM
REM
REM ./C.cell (12c818d87b63d06a65506943cc24bca4)
REM
REM compiler GCC version 9.2.1 20190827 (Red Hat 9.2.1-1)
REM options -cpp -mtune=generic -march=x86-64 -g -O0 -fpre-include=/usr/include/finclude/math-vector-fortran.h
REM seed -1721701000 2053086808 -922121138 -1137891865 -1704043545 690180662 1680270271 -2106979596 1415317022 -1606601500 -1870628241 43072942 -1288805620 -1966801435 -1082937230 1516581728 -2033279872 -1525061305 -1349396119 338763015 -555560094 -1516587140 -970699894 1825712996 -823463522 -544528343 192476662 1729847850 547838439 252903290 -129501418 1008170803 1486718576
REM
CELL 1.54180   50.00000   50.00000   50.00000   90.00000   90.00000   90.00000
LATT -1
SFAC C  
C      1  0.4765090000000  0.5303210000000  0.4929040000000 1.0
C      1  0.5263490000000  0.4950690000000  0.4668050000000 1.0
C      1  0.4765000000000  0.4690700000000  0.5021180000000 1.0
C      1  0.5264510000000  0.5042830000000  0.5280560000000 1.0
C      1  0.5131220000000  0.4700670000000  0.4622250000000 1.0
C      1  0.4897490000000  0.4644630000000  0.5271030000000 1.0
C      1  0.5132580000000  0.5292950000000  0.5326790000000 1.0
C      1  0.4896820000000  0.5349170000000  0.4678760000000 1.0
C      1  0.4877090000000  0.4568270000000  0.4788390000000 1.0
C      1  0.5152100000000  0.4810260000000  0.5403130000000 1.0
C      1  0.4878030000000  0.5425560000000  0.5161470000000 1.0
C      1  0.5150880000000  0.5183340000000  0.4545840000000 1.0
C      1  0.5033660000000  0.4546110000000  0.5545090000000 1.0
C      1  0.4997080000000  0.5567270000000  0.5425480000000 1.0
C      1  0.5032190000000  0.5447590000000  0.4404270000000 1.0
C      1  0.4995180000000  0.4426450000000  0.4524000000000 1.0
C      1  0.5047220000000  0.4369050000000  0.5740630000000 1.0
C      1  0.4984120000000  0.5762840000000  0.5602560000000 1.0
C      1  0.5045260000000  0.5624640000000  0.4208680000000 1.0
C      1  0.4981500000000  0.4230890000000  0.4346960000000 1.0
C      1  0.4703780000000  0.4996980000000  0.4975210000000 1.0
C      1  0.5325270000000  0.4996730000000  0.4974210000000 1.0
C      1  0.5014530000000  0.4996860000000  0.4974710000000 1.0
END
