TITL C-2782228-2999-1028 -0.00063244632492535 125000 -426.276851614333 0 0 72 (C1) n - 1
REM
REM in /home/nfs/bkarasulu/CARBON/AIRSS/Generating-Clusters/REBO/Higher-Symm/SD-CG/HFTN-CG
REM
REM
REM
REM
REM
REM ./C.cell (12c818d87b63d06a65506943cc24bca4)
REM
REM compiler GCC version 9.2.1 20190827 (Red Hat 9.2.1-1)
REM options -cpp -mtune=generic -march=x86-64 -g -O0 -fpre-include=/usr/include/finclude/math-vector-fortran.h
REM seed 1624147582 718140921 -928266408 310903876 -1191327004 1455390281 -394563361 -1070740414 47400860 -407419930 835066947 -1874643285 -712636542 125918687 -189117467 843550548 -1462898055 -24906962 -846720512 940252612 1925279632 137777103 -606477815 676515563 -1108894857 -842908387 2125440971 2101659593 1152676388 -1874610964 -41400501 -1206396201 35189084
REM
CELL 1.54180   50.00000   50.00000   50.00000   90.00000   90.00000   90.00000
LATT -1
SFAC C  
C      1  0.4970360000000  0.4612770000000  0.5215810000000 1.0
C      1  0.4616660000000  0.5201220000000  0.4973910000000 1.0
C      1  0.5199250000000  0.4962050000000  0.4588970000000 1.0
C      1  0.5021820000000  0.5400400000000  0.4732510000000 1.0
C      1  0.4979050000000  0.4542650000000  0.4822290000000 1.0
C      1  0.5005200000000  0.5428780000000  0.5213620000000 1.0
C      1  0.4542780000000  0.4810620000000  0.4992540000000 1.0
C      1  0.5432370000000  0.5244250000000  0.4976190000000 1.0
C      1  0.5401920000000  0.4756360000000  0.4996800000000 1.0
C      1  0.5245620000000  0.5009240000000  0.5379270000000 1.0
C      1  0.4760350000000  0.5025200000000  0.5436470000000 1.0
C      1  0.4803750000000  0.4974680000000  0.4542300000000 1.0
C      1  0.5016140000000  0.5207470000000  0.4533300000000 1.0
C      1  0.4559690000000  0.5021740000000  0.5232140000000 1.0
C      1  0.5214670000000  0.4552770000000  0.5024820000000 1.0
C      1  0.4996420000000  0.4813510000000  0.5423180000000 1.0
C      1  0.4994180000000  0.4729460000000  0.4610130000000 1.0
C      1  0.5014280000000  0.5211090000000  0.5393720000000 1.0
C      1  0.4606840000000  0.4996830000000  0.4743180000000 1.0
C      1  0.5449570000000  0.5002790000000  0.5184920000000 1.0
C      1  0.5390420000000  0.4985340000000  0.4791660000000 1.0
C      1  0.5218140000000  0.5442910000000  0.4977910000000 1.0
C      1  0.4822110000000  0.5392290000000  0.4964210000000 1.0
C      1  0.4736240000000  0.4606830000000  0.5012590000000 1.0
C      1  0.5455170000000  0.4354810000000  0.4776540000000 1.0
C      1  0.4340590000000  0.4768640000000  0.5448180000000 1.0
C      1  0.4766290000000  0.5452760000000  0.4344190000000 1.0
C      1  0.5429570000000  0.5653770000000  0.5243040000000 1.0
C      1  0.4549440000000  0.4334370000000  0.5231420000000 1.0
C      1  0.4572710000000  0.5650820000000  0.4792680000000 1.0
C      1  0.4338790000000  0.5231540000000  0.4569430000000 1.0
C      1  0.5655710000000  0.4795110000000  0.4563620000000 1.0
C      1  0.5651830000000  0.5231360000000  0.5441860000000 1.0
C      1  0.4774540000000  0.4563820000000  0.5642080000000 1.0
C      1  0.5218340000000  0.5421610000000  0.5663280000000 1.0
C      1  0.5232190000000  0.4559390000000  0.4342690000000 1.0
C      1  0.5447770000000  0.4778560000000  0.4339130000000 1.0
C      1  0.4355080000000  0.5439630000000  0.4791670000000 1.0
C      1  0.4774070000000  0.4345920000000  0.5436400000000 1.0
C      1  0.5438830000000  0.5214120000000  0.5659100000000 1.0
C      1  0.4558990000000  0.5229560000000  0.4356400000000 1.0
C      1  0.4554930000000  0.4765500000000  0.5658060000000 1.0
C      1  0.4341540000000  0.4561240000000  0.5230520000000 1.0
C      1  0.5673330000000  0.4572930000000  0.4773420000000 1.0
C      1  0.5649120000000  0.5451900000000  0.5237970000000 1.0
C      1  0.4777440000000  0.5666310000000  0.4567510000000 1.0
C      1  0.5224070000000  0.5648740000000  0.5462840000000 1.0
C      1  0.5230520000000  0.4357740000000  0.4573050000000 1.0
C      1  0.5328840000000  0.4255840000000  0.5076520000000 1.0
C      1  0.4253460000000  0.5071570000000  0.5329100000000 1.0
C      1  0.5059070000000  0.5318440000000  0.4234260000000 1.0
C      1  0.5308660000000  0.5755770000000  0.4950810000000 1.0
C      1  0.4698010000000  0.4281110000000  0.4930120000000 1.0
C      1  0.4738940000000  0.5695600000000  0.5083570000000 1.0
C      1  0.4281560000000  0.4928550000000  0.4714080000000 1.0
C      1  0.5698660000000  0.5094440000000  0.4719950000000 1.0
C      1  0.5751360000000  0.4953070000000  0.5303040000000 1.0
C      1  0.5061160000000  0.4690100000000  0.5722350000000 1.0
C      1  0.4920060000000  0.5265620000000  0.5711540000000 1.0
C      1  0.4928190000000  0.4700180000000  0.4280880000000 1.0
C      1  0.5280940000000  0.5064370000000  0.4273930000000 1.0
C      1  0.4303750000000  0.5285340000000  0.5080660000000 1.0
C      1  0.5068630000000  0.4294000000000  0.5288540000000 1.0
C      1  0.5290850000000  0.4909740000000  0.5693060000000 1.0
C      1  0.4687700000000  0.4935360000000  0.4243950000000 1.0
C      1  0.4670420000000  0.5059120000000  0.5748560000000 1.0
C      1  0.4240670000000  0.4699410000000  0.4944880000000 1.0
C      1  0.5722740000000  0.4724180000000  0.5074520000000 1.0
C      1  0.5739640000000  0.5344100000000  0.4934810000000 1.0
C      1  0.5082010000000  0.5724720000000  0.4708900000000 1.0
C      1  0.4935220000000  0.5725970000000  0.5335900000000 1.0
C      1  0.4940750000000  0.4242030000000  0.4708540000000 1.0
END
