TITL C-2782226-7400-468 -0.00176307897459711 125000 -1094.46081349751 0 0 189 (C1) n - 1
REM
REM in /home/nfs/bkarasulu/CARBON/AIRSS/Generating-Clusters/REBO/Higher-Symm/SD-CG/HFTN-CG
REM
REM
REM
REM
REM
REM ./C.cell (12c818d87b63d06a65506943cc24bca4)
REM
REM compiler GCC version 9.2.1 20190827 (Red Hat 9.2.1-1)
REM options -cpp -mtune=generic -march=x86-64 -g -O0 -fpre-include=/usr/include/finclude/math-vector-fortran.h
REM seed -1882398880 -478719533 -1280421748 91206170 292684331 1221689032 680550007 2012079517 805240305 -689369439 211223993 -2134887650 -1607322865 -960883893 -21203687 135153548 -1871249837 978142415 -1284859953 -1306240351 451806083 1920138835 1472048110 -804042833 1275786184 -156311572 -2004072159 1190844346 1171634202 1657761441 1025950496 -428944634 1243707371
REM
CELL 1.54180   50.00000   50.00000   50.00000   90.00000   90.00000   90.00000
LATT -1
SFAC C  
C      1  0.5670660000000  0.5389790000000  0.5318710000000 1.0
C      1  0.5164920000000  0.5395730000000  0.5749010000000 1.0
C      1  0.4531360000000  0.5399750000000  0.5603870000000 1.0
C      1  0.4240990000000  0.5384490000000  0.5007060000000 1.0
C      1  0.4525370000000  0.5395130000000  0.4415360000000 1.0
C      1  0.5156570000000  0.5383080000000  0.4254950000000 1.0
C      1  0.5669260000000  0.5385970000000  0.4663060000000 1.0
C      1  0.4982850000000  0.4433370000000  0.4136830000000 1.0
C      1  0.5585330000000  0.4447060000000  0.4392110000000 1.0
C      1  0.5840970000000  0.4507610000000  0.5103180000000 1.0
C      1  0.5464310000000  0.4398360000000  0.5789440000000 1.0
C      1  0.4669820000000  0.4475780000000  0.5797650000000 1.0
C      1  0.4106480000000  0.4396700000000  0.5281590000000 1.0
C      1  0.4277280000000  0.4463530000000  0.4513440000000 1.0
C      1  0.4630500000000  0.4801920000000  0.4089430000000 1.0
C      1  0.5525020000000  0.4840860000000  0.4088800000000 1.0
C      1  0.5953800000000  0.4793190000000  0.4830270000000 1.0
C      1  0.5733390000000  0.4829880000000  0.5650730000000 1.0
C      1  0.4978820000000  0.4817500000000  0.6013480000000 1.0
C      1  0.4201780000000  0.4807850000000  0.5593950000000 1.0
C      1  0.4015560000000  0.4813520000000  0.4761350000000 1.0
C      1  0.5542150000000  0.5038260000000  0.5492720000000 1.0
C      1  0.4931080000000  0.5029730000000  0.5762380000000 1.0
C      1  0.4378720000000  0.5024340000000  0.5423870000000 1.0
C      1  0.4274600000000  0.5027410000000  0.4776850000000 1.0
C      1  0.4719680000000  0.5025470000000  0.4313670000000 1.0
C      1  0.5374720000000  0.5038460000000  0.4321680000000 1.0
C      1  0.5744590000000  0.5040760000000  0.4878690000000 1.0
C      1  0.4952410000000  0.4704860000000  0.4015370000000 1.0
C      1  0.5743970000000  0.4702110000000  0.4313250000000 1.0
C      1  0.6001190000000  0.4794240000000  0.5169480000000 1.0
C      1  0.5510330000000  0.4702530000000  0.5875400000000 1.0
C      1  0.4646660000000  0.4759900000000  0.5945420000000 1.0
C      1  0.4028440000000  0.4706040000000  0.5315080000000 1.0
C      1  0.4134120000000  0.4757370000000  0.4443370000000 1.0
C      1  0.4894040000000  0.4932690000000  0.4660900000000 1.0
C      1  0.5199610000000  0.4985340000000  0.4757170000000 1.0
C      1  0.5368310000000  0.5072500000000  0.5006330000000 1.0
C      1  0.5203550000000  0.4988770000000  0.5267200000000 1.0
C      1  0.4933970000000  0.4894970000000  0.5388560000000 1.0
C      1  0.4687590000000  0.4921230000000  0.5195720000000 1.0
C      1  0.4655550000000  0.4933710000000  0.4873390000000 1.0
C      1  0.5333390000000  0.4279550000000  0.4956500000000 1.0
C      1  0.5164150000000  0.4180290000000  0.5158630000000 1.0
C      1  0.5009810000000  0.4343720000000  0.5347850000000 1.0
C      1  0.4780580000000  0.4288200000000  0.5125190000000 1.0
C      1  0.4684830000000  0.4340160000000  0.4826370000000 1.0
C      1  0.4899190000000  0.4353600000000  0.4607180000000 1.0
C      1  0.5202380000000  0.4327360000000  0.4673970000000 1.0
C      1  0.5456490000000  0.5344780000000  0.5580880000000 1.0
C      1  0.4829600000000  0.5328280000000  0.5753980000000 1.0
C      1  0.4330740000000  0.5332420000000  0.5332710000000 1.0
C      1  0.4316010000000  0.5327250000000  0.4676990000000 1.0
C      1  0.4818440000000  0.5336390000000  0.4250350000000 1.0
C      1  0.5466080000000  0.5342750000000  0.4396790000000 1.0
C      1  0.5751180000000  0.5345740000000  0.4990750000000 1.0
C      1  0.4473640000000  0.5190180000000  0.5866620000000 1.0
C      1  0.4014090000000  0.5175890000000  0.5145600000000 1.0
C      1  0.4282500000000  0.5182990000000  0.4307020000000 1.0
C      1  0.5139960000000  0.5161100000000  0.4008690000000 1.0
C      1  0.5831000000000  0.5170390000000  0.4458440000000 1.0
C      1  0.5951750000000  0.5228680000000  0.5374500000000 1.0
C      1  0.5359450000000  0.5185890000000  0.5934530000000 1.0
C      1  0.5022300000000  0.6025250000000  0.5346140000000 1.0
C      1  0.4751570000000  0.6042680000000  0.5242190000000 1.0
C      1  0.4667090000000  0.6038050000000  0.4957590000000 1.0
C      1  0.4826910000000  0.6053650000000  0.4712000000000 1.0
C      1  0.5115430000000  0.6057840000000  0.4677570000000 1.0
C      1  0.5323580000000  0.6074390000000  0.4873410000000 1.0
C      1  0.5273250000000  0.5981730000000  0.5174150000000 1.0
C      1  0.4310140000000  0.4879450000000  0.4178960000000 1.0
C      1  0.5204870000000  0.4854600000000  0.3969660000000 1.0
C      1  0.5913810000000  0.4857660000000  0.4497750000000 1.0
C      1  0.5942990000000  0.4948260000000  0.5409690000000 1.0
C      1  0.5314420000000  0.4873020000000  0.6022200000000 1.0
C      1  0.4362150000000  0.4887130000000  0.5883550000000 1.0
C      1  0.3937850000000  0.4870740000000  0.5087700000000 1.0
C      1  0.5570690000000  0.5413500000000  0.5956540000000 1.0
C      1  0.4592290000000  0.5410520000000  0.6060160000000 1.0
C      1  0.3937850000000  0.5402240000000  0.5340620000000 1.0
C      1  0.4058190000000  0.5390010000000  0.4380030000000 1.0
C      1  0.4995050000000  0.5390230000000  0.3863570000000 1.0
C      1  0.5828280000000  0.5400110000000  0.4242640000000 1.0
C      1  0.6138720000000  0.5416370000000  0.5255970000000 1.0
C      1  0.5758710000000  0.5793630000000  0.5011850000000 1.0
C      1  0.5385210000000  0.5774440000000  0.5544230000000 1.0
C      1  0.4806800000000  0.5709930000000  0.5636650000000 1.0
C      1  0.4396970000000  0.5731570000000  0.5257480000000 1.0
C      1  0.4420490000000  0.5718040000000  0.4649950000000 1.0
C      1  0.4884110000000  0.5732460000000  0.4364160000000 1.0
C      1  0.5518180000000  0.5835110000000  0.4484410000000 1.0
C      1  0.5347400000000  0.3919100000000  0.5433760000000 1.0
C      1  0.4880900000000  0.3905080000000  0.5570740000000 1.0
C      1  0.4499280000000  0.3908100000000  0.5275750000000 1.0
C      1  0.4458040000000  0.3872730000000  0.4751870000000 1.0
C      1  0.4831560000000  0.3823940000000  0.4440070000000 1.0
C      1  0.5335760000000  0.3835280000000  0.4526670000000 1.0
C      1  0.5592900000000  0.3851480000000  0.4989020000000 1.0
C      1  0.5560210000000  0.5008620000000  0.4594120000000 1.0
C      1  0.5616850000000  0.5000770000000  0.5185740000000 1.0
C      1  0.5248560000000  0.5015640000000  0.5659010000000 1.0
C      1  0.4637710000000  0.5002700000000  0.5625310000000 1.0
C      1  0.4310430000000  0.5004100000000  0.5106440000000 1.0
C      1  0.4465590000000  0.4990430000000  0.4525100000000 1.0
C      1  0.5037180000000  0.5004690000000  0.4296290000000 1.0
C      1  0.4542220000000  0.4280590000000  0.4442810000000 1.0
C      1  0.5113330000000  0.4231370000000  0.4292750000000 1.0
C      1  0.5604530000000  0.4269710000000  0.4661210000000 1.0
C      1  0.5653520000000  0.4294880000000  0.5291910000000 1.0
C      1  0.5161930000000  0.4312230000000  0.5714640000000 1.0
C      1  0.4548280000000  0.4284690000000  0.5567140000000 1.0
C      1  0.4244090000000  0.4284280000000  0.5003940000000 1.0
C      1  0.5325320000000  0.5656460000000  0.4700580000000 1.0
C      1  0.5427150000000  0.5718700000000  0.5020560000000 1.0
C      1  0.5207850000000  0.5608880000000  0.5413950000000 1.0
C      1  0.4921390000000  0.5542940000000  0.5435120000000 1.0
C      1  0.4574070000000  0.5569440000000  0.5124450000000 1.0
C      1  0.4603120000000  0.5546130000000  0.4835780000000 1.0
C      1  0.5025110000000  0.5592130000000  0.4566300000000 1.0
C      1  0.5054300000000  0.3814880000000  0.5317020000000 1.0
C      1  0.4813870000000  0.3961970000000  0.5180940000000 1.0
C      1  0.4618670000000  0.3756710000000  0.5010960000000 1.0
C      1  0.4733050000000  0.3675640000000  0.4716860000000 1.0
C      1  0.5060090000000  0.3683130000000  0.4639550000000 1.0
C      1  0.5336180000000  0.3703980000000  0.4829400000000 1.0
C      1  0.5331710000000  0.3735750000000  0.5157560000000 1.0
C      1  0.5541370000000  0.5577800000000  0.4179480000000 1.0
C      1  0.6033330000000  0.5508280000000  0.4960850000000 1.0
C      1  0.5696510000000  0.5562910000000  0.5676660000000 1.0
C      1  0.4895510000000  0.5557360000000  0.5994430000000 1.0
C      1  0.4171770000000  0.5555560000000  0.5535750000000 1.0
C      1  0.4063560000000  0.5543880000000  0.4686760000000 1.0
C      1  0.4686940000000  0.5468730000000  0.3964250000000 1.0
C      1  0.5577220000000  0.4714830000000  0.4723490000000 1.0
C      1  0.5636190000000  0.4692020000000  0.5290690000000 1.0
C      1  0.5149000000000  0.4709450000000  0.5669450000000 1.0
C      1  0.4578690000000  0.4682450000000  0.5548140000000 1.0
C      1  0.4319170000000  0.4696470000000  0.4991630000000 1.0
C      1  0.4521410000000  0.4678690000000  0.4451870000000 1.0
C      1  0.5152520000000  0.4710700000000  0.4367780000000 1.0
C      1  0.4171760000000  0.5703450000000  0.4412880000000 1.0
C      1  0.4949610000000  0.5663070000000  0.4060750000000 1.0
C      1  0.5791970000000  0.5703240000000  0.4372730000000 1.0
C      1  0.6010270000000  0.5730020000000  0.5216660000000 1.0
C      1  0.5459140000000  0.5718150000000  0.5864920000000 1.0
C      1  0.4604250000000  0.5702840000000  0.5903750000000 1.0
C      1  0.4062720000000  0.5698640000000  0.5249780000000 1.0
C      1  0.5753630000000  0.5710570000000  0.5402430000000 1.0
C      1  0.5140310000000  0.5719150000000  0.5854500000000 1.0
C      1  0.4412330000000  0.5720270000000  0.5654190000000 1.0
C      1  0.4151600000000  0.5708720000000  0.4944700000000 1.0
C      1  0.4488400000000  0.5722420000000  0.4327130000000 1.0
C      1  0.5247510000000  0.5709360000000  0.4203150000000 1.0
C      1  0.5810700000000  0.5687390000000  0.4707270000000 1.0
C      1  0.5547950000000  0.5945470000000  0.5353180000000 1.0
C      1  0.5022210000000  0.5926150000000  0.5615820000000 1.0
C      1  0.4537920000000  0.5934440000000  0.5420180000000 1.0
C      1  0.4413500000000  0.5913270000000  0.4902300000000 1.0
C      1  0.4705300000000  0.5937680000000  0.4475980000000 1.0
C      1  0.5218940000000  0.5936950000000  0.4436120000000 1.0
C      1  0.5601750000000  0.5972620000000  0.4769790000000 1.0
C      1  0.5661900000000  0.4509620000000  0.5560140000000 1.0
C      1  0.4965910000000  0.4519950000000  0.5870760000000 1.0
C      1  0.4291880000000  0.4498680000000  0.5529360000000 1.0
C      1  0.4144390000000  0.4508040000000  0.4788060000000 1.0
C      1  0.4680010000000  0.4490820000000  0.4213080000000 1.0
C      1  0.5371100000000  0.4593040000000  0.4228790000000 1.0
C      1  0.5802830000000  0.4491640000000  0.4794100000000 1.0
C      1  0.4865610000000  0.4193350000000  0.5594850000000 1.0
C      1  0.4361430000000  0.4175340000000  0.5306900000000 1.0
C      1  0.4425370000000  0.4172400000000  0.4744280000000 1.0
C      1  0.4826830000000  0.4113480000000  0.4392290000000 1.0
C      1  0.5357870000000  0.4129110000000  0.4472730000000 1.0
C      1  0.5620290000000  0.4154300000000  0.4982160000000 1.0
C      1  0.5419420000000  0.4195870000000  0.5518650000000 1.0
C      1  0.4694460000000  0.5254700000000  0.4779770000000 1.0
C      1  0.4955400000000  0.5266230000000  0.4615470000000 1.0
C      1  0.5256700000000  0.5321050000000  0.4722220000000 1.0
C      1  0.5359570000000  0.5414290000000  0.5014720000000 1.0
C      1  0.5208580000000  0.5322930000000  0.5270270000000 1.0
C      1  0.4893060000000  0.5230030000000  0.5337740000000 1.0
C      1  0.4663980000000  0.5251490000000  0.5115110000000 1.0
C      1  0.5109290000000  0.4616800000000  0.5378990000000 1.0
C      1  0.4704910000000  0.4588830000000  0.5272420000000 1.0
C      1  0.4614190000000  0.4610600000000  0.4960110000000 1.0
C      1  0.4807050000000  0.4650530000000  0.4556370000000 1.0
C      1  0.5189340000000  0.4666580000000  0.4660390000000 1.0
C      1  0.5350660000000  0.4593160000000  0.4929340000000 1.0
C      1  0.5347360000000  0.4707010000000  0.5193000000000 1.0
END
