TITL C-2782236-320-412 0.0035477631725039 125000 -841.428990328292 0 0 147 (C1) n - 1
REM
REM in /home/nfs/bkarasulu/CARBON/AIRSS/Generating-Clusters/REBO/Higher-Symm/SD-CG/HFTN-CG
REM
REM
REM
REM
REM
REM ./C.cell (12c818d87b63d06a65506943cc24bca4)
REM
REM compiler GCC version 9.2.1 20190827 (Red Hat 9.2.1-1)
REM options -cpp -mtune=generic -march=x86-64 -g -O0 -fpre-include=/usr/include/finclude/math-vector-fortran.h
REM seed -2067886688 -524725082 1715994849 1942526176 -1006996237 -246978858 602459029 1821019422 -968489289 1344865885 -540494164 2127082388 2078489604 640668154 821194811 1447053025 -855434606 1526822776 149272219 -1767821114 -276766927 -437892405 146237364 -321474302 699191304 -1948888512 -2013279301 -1563739663 535006829 -376840645 1511800194 -1200852542 930609583
REM
CELL 1.54180   50.00000   50.00000   50.00000   90.00000   90.00000   90.00000
LATT -1
SFAC C  
C      1  0.5944590000000  0.5011570000000  0.4621960000000 1.0
C      1  0.4426640000000  0.5813470000000  0.4574800000000 1.0
C      1  0.4477790000000  0.4179150000000  0.4576910000000 1.0
C      1  0.5098470000000  0.5909690000000  0.5111260000000 1.0
C      1  0.4123490000000  0.4574510000000  0.5107290000000 1.0
C      1  0.5832170000000  0.4528090000000  0.5214290000000 1.0
C      1  0.5369520000000  0.4309360000000  0.5527340000000 1.0
C      1  0.5428890000000  0.5690620000000  0.5637120000000 1.0
C      1  0.4202390000000  0.5033860000000  0.5596170000000 1.0
C      1  0.5278600000000  0.4064340000000  0.5344330000000 1.0
C      1  0.5675630000000  0.5761370000000  0.5346090000000 1.0
C      1  0.4049830000000  0.5214580000000  0.5372560000000 1.0
C      1  0.5567850000000  0.5277690000000  0.4342600000000 1.0
C      1  0.4472150000000  0.5355570000000  0.4341130000000 1.0
C      1  0.4956500000000  0.4380670000000  0.4350590000000 1.0
C      1  0.5392240000000  0.5742340000000  0.4592880000000 1.0
C      1  0.4022660000000  0.4978830000000  0.4647510000000 1.0
C      1  0.5411660000000  0.4296430000000  0.4587600000000 1.0
C      1  0.4946420000000  0.5823740000000  0.4756230000000 1.0
C      1  0.4165900000000  0.4614300000000  0.4587800000000 1.0
C      1  0.5897390000000  0.4467100000000  0.4719120000000 1.0
C      1  0.4146730000000  0.4985670000000  0.4328730000000 1.0
C      1  0.5340500000000  0.4308780000000  0.4268170000000 1.0
C      1  0.5391240000000  0.5698960000000  0.4313350000000 1.0
C      1  0.5231260000000  0.5875690000000  0.5429290000000 1.0
C      1  0.4181260000000  0.4775000000000  0.5376500000000 1.0
C      1  0.5658890000000  0.4464060000000  0.5492110000000 1.0
C      1  0.4748540000000  0.5903160000000  0.4511990000000 1.0
C      1  0.4272300000000  0.4400580000000  0.4421330000000 1.0
C      1  0.5930710000000  0.4690690000000  0.4508820000000 1.0
C      1  0.4653190000000  0.5533840000000  0.5002320000000 1.0
C      1  0.4517960000000  0.4453290000000  0.4874130000000 1.0
C      1  0.5693050000000  0.4950810000000  0.4923880000000 1.0
C      1  0.5082230000000  0.5250440000000  0.5761910000000 1.0
C      1  0.4775810000000  0.4928350000000  0.5724270000000 1.0
C      1  0.5217400000000  0.4769250000000  0.5742330000000 1.0
C      1  0.5535660000000  0.5240770000000  0.5302390000000 1.0
C      1  0.4619930000000  0.5268780000000  0.5331550000000 1.0
C      1  0.4834680000000  0.4462420000000  0.5275150000000 1.0
C      1  0.4694400000000  0.4834690000000  0.4357800000000 1.0
C      1  0.5384700000000  0.4746980000000  0.4336440000000 1.0
C      1  0.5009990000000  0.5448620000000  0.4374860000000 1.0
C      1  0.5482420000000  0.4262930000000  0.4919740000000 1.0
C      1  0.5689020000000  0.5857700000000  0.4896060000000 1.0
C      1  0.3850520000000  0.5043470000000  0.4912970000000 1.0
C      1  0.5418970000000  0.5537760000000  0.5333560000000 1.0
C      1  0.4431220000000  0.5085690000000  0.5357850000000 1.0
C      1  0.5158190000000  0.4454680000000  0.5297760000000 1.0
C      1  0.4897990000000  0.4699300000000  0.4044510000000 1.0
C      1  0.5236350000000  0.5112230000000  0.4014540000000 1.0
C      1  0.4689120000000  0.5199530000000  0.4045250000000 1.0
C      1  0.4848510000000  0.4796120000000  0.5062220000000 1.0
C      1  0.5228490000000  0.4892260000000  0.5111500000000 1.0
C      1  0.4950120000000  0.5171820000000  0.5131110000000 1.0
C      1  0.4848770000000  0.4854980000000  0.5398360000000 1.0
C      1  0.5267010000000  0.4849410000000  0.5449080000000 1.0
C      1  0.4975790000000  0.5163410000000  0.5470820000000 1.0
C      1  0.5119760000000  0.5610020000000  0.5240160000000 1.0
C      1  0.4398740000000  0.4860100000000  0.5135650000000 1.0
C      1  0.5452960000000  0.4622810000000  0.5295090000000 1.0
C      1  0.5153150000000  0.4473810000000  0.4095480000000 1.0
C      1  0.5330550000000  0.5415870000000  0.4141580000000 1.0
C      1  0.4392160000000  0.5081280000000  0.4188890000000 1.0
C      1  0.5157310000000  0.4361930000000  0.4886740000000 1.0
C      1  0.5654790000000  0.5586120000000  0.4894310000000 1.0
C      1  0.4442250000000  0.5105950000000  0.4932920000000 1.0
C      1  0.4664950000000  0.4391430000000  0.4385050000000 1.0
C      1  0.5699580000000  0.4987920000000  0.4385550000000 1.0
C      1  0.4654150000000  0.5578480000000  0.4503180000000 1.0
C      1  0.4820450000000  0.5025280000000  0.4606980000000 1.0
C      1  0.5186950000000  0.4762180000000  0.4610060000000 1.0
C      1  0.5116680000000  0.5177630000000  0.4553400000000 1.0
C      1  0.5136390000000  0.5106360000000  0.4863950000000 1.0
C      1  0.4743070000000  0.5042960000000  0.4893130000000 1.0
C      1  0.5117760000000  0.4671250000000  0.4894220000000 1.0
C      1  0.4299820000000  0.4486430000000  0.5453830000000 1.0
C      1  0.5820030000000  0.4750020000000  0.5540860000000 1.0
C      1  0.4903200000000  0.5866120000000  0.5457060000000 1.0
C      1  0.5590920000000  0.4543510000000  0.4655920000000 1.0
C      1  0.5105000000000  0.5521270000000  0.4756130000000 1.0
C      1  0.4396840000000  0.4847840000000  0.4605810000000 1.0
C      1  0.5863800000000  0.5247400000000  0.4929370000000 1.0
C      1  0.4288230000000  0.5618060000000  0.4869390000000 1.0
C      1  0.4721050000000  0.4110160000000  0.4885010000000 1.0
C      1  0.5243270000000  0.5893260000000  0.4801680000000 1.0
C      1  0.4053900000000  0.4705240000000  0.4859020000000 1.0
C      1  0.5761100000000  0.4389470000000  0.4980090000000 1.0
C      1  0.5909980000000  0.5569480000000  0.5390430000000 1.0
C      1  0.4224510000000  0.5423860000000  0.5305470000000 1.0
C      1  0.4999830000000  0.4073180000000  0.5309620000000 1.0
C      1  0.5692710000000  0.5964580000000  0.5149920000000 1.0
C      1  0.3884200000000  0.5112570000000  0.5171090000000 1.0
C      1  0.5433510000000  0.4026000000000  0.5121190000000 1.0
C      1  0.4306230000000  0.4294350000000  0.5173030000000 1.0
C      1  0.5964410000000  0.4835310000000  0.5240830000000 1.0
C      1  0.4757720000000  0.5889010000000  0.5149640000000 1.0
C      1  0.4770700000000  0.5226110000000  0.4365080000000 1.0
C      1  0.4989560000000  0.4701230000000  0.4378450000000 1.0
C      1  0.5312210000000  0.5071370000000  0.4343460000000 1.0
C      1  0.5002360000000  0.5332090000000  0.4060230000000 1.0
C      1  0.4622030000000  0.4879760000000  0.4029520000000 1.0
C      1  0.5216320000000  0.4806880000000  0.4060000000000 1.0
C      1  0.5753850000000  0.5421820000000  0.5149740000000 1.0
C      1  0.4363600000000  0.5387210000000  0.5049830000000 1.0
C      1  0.4931290000000  0.4231000000000  0.5056570000000 1.0
C      1  0.5702810000000  0.4952010000000  0.6025250000000 1.0
C      1  0.4888170000000  0.5735810000000  0.5948350000000 1.0
C      1  0.4440550000000  0.4539370000000  0.5938880000000 1.0
C      1  0.4808440000000  0.4092220000000  0.4604870000000 1.0
C      1  0.5729210000000  0.5285960000000  0.4641920000000 1.0
C      1  0.4271310000000  0.5501020000000  0.4567810000000 1.0
C      1  0.5050020000000  0.4285950000000  0.5643920000000 1.0
C      1  0.5583340000000  0.5421370000000  0.5717090000000 1.0
C      1  0.4391240000000  0.5300610000000  0.5692780000000 1.0
C      1  0.4803040000000  0.5454290000000  0.4738920000000 1.0
C      1  0.4560070000000  0.4581480000000  0.4631770000000 1.0
C      1  0.5590610000000  0.4832960000000  0.4666520000000 1.0
C      1  0.4590120000000  0.5734270000000  0.5406360000000 1.0
C      1  0.4532570000000  0.4234230000000  0.5423110000000 1.0
C      1  0.5884000000000  0.5077940000000  0.5468090000000 1.0
C      1  0.4460410000000  0.4611280000000  0.4247040000000 1.0
C      1  0.5696460000000  0.4669900000000  0.4293040000000 1.0
C      1  0.4998930000000  0.5730520000000  0.4373970000000 1.0
C      1  0.6029240000000  0.4958950000000  0.4950360000000 1.0
C      1  0.4544790000000  0.5840600000000  0.4899190000000 1.0
C      1  0.4400640000000  0.4152100000000  0.4908310000000 1.0
C      1  0.5389730000000  0.5200370000000  0.5820530000000 1.0
C      1  0.4664870000000  0.5213470000000  0.5821760000000 1.0
C      1  0.4990030000000  0.4553100000000  0.5790650000000 1.0
C      1  0.4922990000000  0.4797670000000  0.6002750000000 1.0
C      1  0.5218240000000  0.4974560000000  0.6008310000000 1.0
C      1  0.4915570000000  0.5137480000000  0.6029760000000 1.0
C      1  0.4877120000000  0.5460560000000  0.5213990000000 1.0
C      1  0.4593060000000  0.4612340000000  0.5107170000000 1.0
C      1  0.5538130000000  0.4931430000000  0.5170800000000 1.0
C      1  0.4503010000000  0.4531970000000  0.5683730000000 1.0
C      1  0.5675360000000  0.4925940000000  0.5768280000000 1.0
C      1  0.4852300000000  0.5670880000000  0.5696140000000 1.0
C      1  0.5475960000000  0.5058660000000  0.5544810000000 1.0
C      1  0.4761720000000  0.5410580000000  0.5592690000000 1.0
C      1  0.4775530000000  0.4566130000000  0.5566990000000 1.0
C      1  0.4396060000000  0.5547950000000  0.5507840000000 1.0
C      1  0.4792430000000  0.4148680000000  0.5517110000000 1.0
C      1  0.5821550000000  0.5337670000000  0.5564230000000 1.0
C      1  0.4295950000000  0.5170320000000  0.4648650000000 1.0
C      1  0.5092930000000  0.4228710000000  0.4579710000000 1.0
C      1  0.5433930000000  0.5443320000000  0.4713650000000 1.0
END
