TITL C-2782237-5345-938 0.00429585539830677 125000 -144.676292312506 0 0 29 (C1) n - 1
REM
REM in /home/nfs/bkarasulu/CARBON/AIRSS/Generating-Clusters/REBO/Higher-Symm/SD-CG/HFTN-CG
REM
REM
REM
REM
REM
REM ./C.cell (12c818d87b63d06a65506943cc24bca4)
REM
REM compiler GCC version 9.2.1 20190827 (Red Hat 9.2.1-1)
REM options -cpp -mtune=generic -march=x86-64 -g -O0 -fpre-include=/usr/include/finclude/math-vector-fortran.h
REM seed 279354793 -1110738843 617136197 60278827 1195060522 -473899339 780511054 -530874683 -202405828 -538448651 -1603831851 -1002180727 164575945 1744393626 -2090836023 1376496949 -489949698 517342217 -820809776 -486104971 -1587331842 2021268361 885993281 -1848895464 180498131 1962575488 -83226648 -604848364 -1323479568 -320852897 -1067598526 -787007868 1654119380
REM
CELL 1.54180   50.00000   50.00000   50.00000   90.00000   90.00000   90.00000
LATT -1
SFAC C  
C      1  0.4775900000000  0.5472370000000  0.4886960000000 1.0
C      1  0.5318280000000  0.5333590000000  0.4840720000000 1.0
C      1  0.5300750000000  0.4628490000000  0.4870020000000 1.0
C      1  0.4578690000000  0.4710840000000  0.4883590000000 1.0
C      1  0.4760580000000  0.5474150000000  0.5196840000000 1.0
C      1  0.5356770000000  0.5305330000000  0.5174670000000 1.0
C      1  0.5235830000000  0.4549400000000  0.5180490000000 1.0
C      1  0.4553370000000  0.4656640000000  0.5194710000000 1.0
C      1  0.4965550000000  0.4545960000000  0.4891400000000 1.0
C      1  0.4578110000000  0.5045970000000  0.4870160000000 1.0
C      1  0.5091500000000  0.5552840000000  0.4792310000000 1.0
C      1  0.5445470000000  0.4888450000000  0.4881850000000 1.0
C      1  0.4908570000000  0.4498830000000  0.5191720000000 1.0
C      1  0.4571400000000  0.4987850000000  0.5167950000000 1.0
C      1  0.5094330000000  0.5494130000000  0.5127820000000 1.0
C      1  0.5474410000000  0.4993440000000  0.5143730000000 1.0
C      1  0.4943010000000  0.5288050000000  0.4651180000000 1.0
C      1  0.5344130000000  0.5091730000000  0.4701360000000 1.0
C      1  0.5083160000000  0.4676960000000  0.4614670000000 1.0
C      1  0.4736170000000  0.4869250000000  0.4624370000000 1.0
C      1  0.4978040000000  0.5286580000000  0.5372990000000 1.0
C      1  0.5316610000000  0.5075010000000  0.5421200000000 1.0
C      1  0.5067860000000  0.4653160000000  0.5444680000000 1.0
C      1  0.4732690000000  0.4829380000000  0.5428650000000 1.0
C      1  0.5026730000000  0.4989900000000  0.5577750000000 1.0
C      1  0.5036890000000  0.4993730000000  0.4498050000000 1.0
C      1  0.4958930000000  0.4991770000000  0.5264580000000 1.0
C      1  0.4972110000000  0.5003490000000  0.4816110000000 1.0
C      1  0.5079060000000  0.4913810000000  0.5040030000000 1.0
END
