TITL C-2782229-3092-389 -0.00307338000013356 125000 -357.207694564128 0 0 64 (C1) n - 1
REM
REM in /home/nfs/bkarasulu/CARBON/AIRSS/Generating-Clusters/REBO/Higher-Symm/SD-CG/HFTN-CG
REM
REM
REM
REM
REM
REM ./C.cell (12c818d87b63d06a65506943cc24bca4)
REM
REM compiler GCC version 9.2.1 20190827 (Red Hat 9.2.1-1)
REM options -cpp -mtune=generic -march=x86-64 -g -O0 -fpre-include=/usr/include/finclude/math-vector-fortran.h
REM seed 966751669 -2112793875 234419113 1686554613 1097570032 1788729321 902078042 -1967950100 1871889872 537457618 2067980800 1115349404 -1352003847 1260408080 1280877911 -1600732375 591549736 -1299012338 -1993890075 -1797301700 299911933 2002026188 926524715 -1358905132 -551454387 -504684793 1465324576 99860469 -2059468891 -1162028216 940020237 2136543011 2015936841
REM
CELL 1.54180   50.00000   50.00000   50.00000   90.00000   90.00000   90.00000
LATT -1
SFAC C  
C      1  0.5120280000000  0.4770920000000  0.4295710000000 1.0
C      1  0.5496770000000  0.4746710000000  0.5378640000000 1.0
C      1  0.4385410000000  0.4832890000000  0.5199860000000 1.0
C      1  0.4927750000000  0.5270970000000  0.4347570000000 1.0
C      1  0.4565620000000  0.5251240000000  0.5501170000000 1.0
C      1  0.5629750000000  0.5167520000000  0.4977960000000 1.0
C      1  0.5367800000000  0.5284070000000  0.4984770000000 1.0
C      1  0.4785400000000  0.5420730000000  0.5406620000000 1.0
C      1  0.4946060000000  0.5473840000000  0.4620030000000 1.0
C      1  0.4554310000000  0.4629100000000  0.5034500000000 1.0
C      1  0.5237270000000  0.4553680000000  0.5281300000000 1.0
C      1  0.5126700000000  0.4633680000000  0.4579160000000 1.0
C      1  0.5221720000000  0.5081600000000  0.5572120000000 1.0
C      1  0.4427880000000  0.5080600000000  0.4890410000000 1.0
C      1  0.5382470000000  0.5003130000000  0.4485330000000 1.0
C      1  0.4695980000000  0.4879250000000  0.5560110000000 1.0
C      1  0.6051030000000  0.5161230000000  0.4731150000000 1.0
C      1  0.4639570000000  0.4997410000000  0.4375110000000 1.0
C      1  0.5330320000000  0.5559100000000  0.4918280000000 1.0
C      1  0.4871560000000  0.5627490000000  0.5580470000000 1.0
C      1  0.4721440000000  0.5678490000000  0.4565260000000 1.0
C      1  0.4423890000000  0.4353730000000  0.4982470000000 1.0
C      1  0.5178470000000  0.4411170000000  0.5549460000000 1.0
C      1  0.5249030000000  0.4373710000000  0.4724170000000 1.0
C      1  0.4562850000000  0.5942340000000  0.4638720000000 1.0
C      1  0.5231480000000  0.5590590000000  0.4650960000000 1.0
C      1  0.4896580000000  0.5659260000000  0.5850870000000 1.0
C      1  0.5330060000000  0.4403350000000  0.5030080000000 1.0
C      1  0.4571350000000  0.4219080000000  0.4731720000000 1.0
C      1  0.5056940000000  0.4179550000000  0.5727450000000 1.0
C      1  0.5122560000000  0.5032260000000  0.4602540000000 1.0
C      1  0.5167090000000  0.5117760000000  0.5287860000000 1.0
C      1  0.4670790000000  0.5100420000000  0.5043080000000 1.0
C      1  0.4852970000000  0.4921630000000  0.4551990000000 1.0
C      1  0.4772750000000  0.4908520000000  0.5283940000000 1.0
C      1  0.5352790000000  0.4909330000000  0.5123310000000 1.0
C      1  0.4998440000000  0.4745640000000  0.5209240000000 1.0
C      1  0.4759610000000  0.4723940000000  0.4779550000000 1.0
C      1  0.5326850000000  0.4750070000000  0.4831550000000 1.0
C      1  0.4968240000000  0.5301820000000  0.5216430000000 1.0
C      1  0.5125210000000  0.5134100000000  0.4889440000000 1.0
C      1  0.4875050000000  0.5319340000000  0.4902900000000 1.0
C      1  0.5583290000000  0.4535310000000  0.4857660000000 1.0
C      1  0.5130650000000  0.4387150000000  0.5941780000000 1.0
C      1  0.4545740000000  0.4523800000000  0.4648160000000 1.0
C      1  0.4362720000000  0.5801730000000  0.4450440000000 1.0
C      1  0.4829210000000  0.5476810000000  0.6044620000000 1.0
C      1  0.5439850000000  0.5531580000000  0.4465670000000 1.0
C      1  0.5447010000000  0.4727940000000  0.4361960000000 1.0
C      1  0.5371260000000  0.4845770000000  0.5645770000000 1.0
C      1  0.4241550000000  0.4841530000000  0.4905320000000 1.0
C      1  0.4618330000000  0.5289090000000  0.4293940000000 1.0
C      1  0.4641670000000  0.5101490000000  0.5762580000000 1.0
C      1  0.5791590000000  0.5240610000000  0.4752060000000 1.0
C      1  0.5662400000000  0.5390110000000  0.4546490000000 1.0
C      1  0.4718990000000  0.5230560000000  0.5996970000000 1.0
C      1  0.4512520000000  0.5540880000000  0.4367470000000 1.0
C      1  0.4266460000000  0.4594250000000  0.4761460000000 1.0
C      1  0.5256250000000  0.4624380000000  0.5782640000000 1.0
C      1  0.5503930000000  0.4507100000000  0.4541300000000 1.0
C      1  0.5034640000000  0.5035540000000  0.4214380000000 1.0
C      1  0.4407910000000  0.5074020000000  0.5342570000000 1.0
C      1  0.5682350000000  0.4951230000000  0.5179910000000 1.0
C      1  0.5022370000000  0.4814090000000  0.4920430000000 1.0
END
