TITL C-2782230-7391-269 -0.00183615273851801 125000 -422.637805812295 0 0 73 (C1) n - 1
REM
REM in /home/nfs/bkarasulu/CARBON/AIRSS/Generating-Clusters/REBO/Higher-Symm/SD-CG/HFTN-CG
REM
REM
REM
REM
REM
REM ./C.cell (12c818d87b63d06a65506943cc24bca4)
REM
REM compiler GCC version 9.2.1 20190827 (Red Hat 9.2.1-1)
REM options -cpp -mtune=generic -march=x86-64 -g -O0 -fpre-include=/usr/include/finclude/math-vector-fortran.h
REM seed 1319194889 -524336769 -508779243 1323462500 -558869212 1532308680 -725049099 1623218760 -1004887077 -1508449207 -2062996501 -1258136433 157515008 1578496990 1811069280 216928527 -133069010 830950075 1282368307 1321948654 -1680300601 -458307770 390151814 1373471813 1610476672 -230452226 -605988503 -1447924462 -59523447 1669527001 -280467607 2032999328 -477948739
REM
CELL 1.54180   50.00000   50.00000   50.00000   90.00000   90.00000   90.00000
LATT -1
SFAC C  
C      1  0.4709480000000  0.4617870000000  0.4399630000000 1.0
C      1  0.4663730000000  0.5408850000000  0.4411150000000 1.0
C      1  0.4906360000000  0.4441620000000  0.5423880000000 1.0
C      1  0.4907990000000  0.5570880000000  0.5448460000000 1.0
C      1  0.4508590000000  0.4500020000000  0.5081880000000 1.0
C      1  0.4511570000000  0.5530310000000  0.5102890000000 1.0
C      1  0.4747430000000  0.5352110000000  0.4836010000000 1.0
C      1  0.4800490000000  0.4630490000000  0.4843640000000 1.0
C      1  0.5188460000000  0.5732210000000  0.5013100000000 1.0
C      1  0.5189810000000  0.4233960000000  0.5002180000000 1.0
C      1  0.5166540000000  0.4737650000000  0.5149360000000 1.0
C      1  0.5147850000000  0.5320030000000  0.5150440000000 1.0
C      1  0.5425330000000  0.4506780000000  0.5483280000000 1.0
C      1  0.5423260000000  0.5520290000000  0.5526280000000 1.0
C      1  0.4765700000000  0.4874980000000  0.4236610000000 1.0
C      1  0.4743860000000  0.5154990000000  0.4247240000000 1.0
C      1  0.5011360000000  0.4373630000000  0.4374230000000 1.0
C      1  0.4997660000000  0.5600570000000  0.4392090000000 1.0
C      1  0.5207870000000  0.5614460000000  0.5301070000000 1.0
C      1  0.5195620000000  0.4417650000000  0.5258960000000 1.0
C      1  0.4568970000000  0.5140990000000  0.5671280000000 1.0
C      1  0.4574920000000  0.4853780000000  0.5661550000000 1.0
C      1  0.4636670000000  0.5230570000000  0.5100680000000 1.0
C      1  0.4657800000000  0.4788580000000  0.5083510000000 1.0
C      1  0.5414010000000  0.5623970000000  0.4823860000000 1.0
C      1  0.5440540000000  0.4349470000000  0.4806480000000 1.0
C      1  0.4260650000000  0.5189360000000  0.4766890000000 1.0
C      1  0.4311280000000  0.4876870000000  0.4752920000000 1.0
C      1  0.4869200000000  0.4236530000000  0.4927180000000 1.0
C      1  0.4903740000000  0.5743550000000  0.4942120000000 1.0
C      1  0.5157170000000  0.5450680000000  0.5658270000000 1.0
C      1  0.5162820000000  0.4556450000000  0.5628730000000 1.0
C      1  0.5455500000000  0.5303850000000  0.4711400000000 1.0
C      1  0.5493210000000  0.4649060000000  0.4693570000000 1.0
C      1  0.4346590000000  0.5247060000000  0.5545140000000 1.0
C      1  0.4359200000000  0.4745750000000  0.5526180000000 1.0
C      1  0.4932150000000  0.4839920000000  0.4642330000000 1.0
C      1  0.4852460000000  0.5137490000000  0.4631320000000 1.0
C      1  0.5779350000000  0.4874230000000  0.5534210000000 1.0
C      1  0.5777020000000  0.5148780000000  0.5544840000000 1.0
C      1  0.5061430000000  0.5386140000000  0.4860210000000 1.0
C      1  0.5108440000000  0.4553150000000  0.4893580000000 1.0
C      1  0.4341010000000  0.5158400000000  0.5251350000000 1.0
C      1  0.4359530000000  0.4851700000000  0.5239080000000 1.0
C      1  0.4771510000000  0.5633240000000  0.4646980000000 1.0
C      1  0.4782070000000  0.4372130000000  0.4626500000000 1.0
C      1  0.5445030000000  0.4864400000000  0.5164470000000 1.0
C      1  0.5427890000000  0.5182720000000  0.5193460000000 1.0
C      1  0.4583550000000  0.4847240000000  0.4589660000000 1.0
C      1  0.4512940000000  0.5167870000000  0.4571940000000 1.0
C      1  0.4892480000000  0.5173410000000  0.5270110000000 1.0
C      1  0.4902970000000  0.4866910000000  0.5257670000000 1.0
C      1  0.5576790000000  0.5306580000000  0.5428250000000 1.0
C      1  0.5583200000000  0.4723900000000  0.5401460000000 1.0
C      1  0.4831150000000  0.4749630000000  0.5548410000000 1.0
C      1  0.4823510000000  0.5263640000000  0.5569580000000 1.0
C      1  0.5169270000000  0.5360440000000  0.4309790000000 1.0
C      1  0.5206880000000  0.4586500000000  0.4291280000000 1.0
C      1  0.5227470000000  0.4805560000000  0.4546900000000 1.0
C      1  0.5187210000000  0.5139320000000  0.4570760000000 1.0
C      1  0.4267660000000  0.5346280000000  0.5002230000000 1.0
C      1  0.4284730000000  0.4699940000000  0.4971480000000 1.0
C      1  0.5089230000000  0.5144170000000  0.5724600000000 1.0
C      1  0.5092560000000  0.4860020000000  0.5713260000000 1.0
C      1  0.5458330000000  0.5362900000000  0.4386140000000 1.0
C      1  0.5496550000000  0.4575030000000  0.4368350000000 1.0
C      1  0.5180330000000  0.4355940000000  0.4624540000000 1.0
C      1  0.5163340000000  0.5566500000000  0.4651390000000 1.0
C      1  0.5584900000000  0.5149290000000  0.4922400000000 1.0
C      1  0.5616250000000  0.4817810000000  0.4892190000000 1.0
C      1  0.4715260000000  0.4324360000000  0.5167310000000 1.0
C      1  0.4735410000000  0.5688920000000  0.5179530000000 1.0
C      1  0.5876960000000  0.5009720000000  0.4880970000000 1.0
END
