TITL C-2782240-8521-910 0.00102270508069208 125000 -428.226416805473 0 0 75 (C1) n - 1
REM
REM in /home/nfs/bkarasulu/CARBON/AIRSS/Generating-Clusters/REBO/Higher-Symm/SD-CG/HFTN-CG
REM
REM
REM
REM
REM
REM ./C.cell (12c818d87b63d06a65506943cc24bca4)
REM
REM compiler GCC version 9.2.1 20190827 (Red Hat 9.2.1-1)
REM options -cpp -mtune=generic -march=x86-64 -g -O0 -fpre-include=/usr/include/finclude/math-vector-fortran.h
REM seed 886180677 87408437 1954473651 -166829049 246547935 -1208718707 1880729002 1671216758 -1838261870 947864793 1034605565 -1246130075 1256403464 -520496570 647063179 -1871429558 327648812 -1312668043 1782087656 -1361994172 125440063 291555634 -416037214 -1588587792 -536818218 -1949556951 37121229 1024491961 -1607399729 1611788411 -85298976 789927054 -1463229326
REM
CELL 1.54180   50.00000   50.00000   50.00000   90.00000   90.00000   90.00000
LATT -1
SFAC C  
C      1  0.4991020000000  0.4867920000000  0.5334210000000 1.0
C      1  0.4982530000000  0.5167290000000  0.4573190000000 1.0
C      1  0.5638320000000  0.5340500000000  0.4756260000000 1.0
C      1  0.5608330000000  0.4698120000000  0.5293090000000 1.0
C      1  0.4706760000000  0.4232310000000  0.4963640000000 1.0
C      1  0.4680200000000  0.5757550000000  0.5102540000000 1.0
C      1  0.4924610000000  0.4469790000000  0.4539670000000 1.0
C      1  0.4956830000000  0.5514880000000  0.5626150000000 1.0
C      1  0.4874800000000  0.5644010000000  0.4905040000000 1.0
C      1  0.4939420000000  0.4381240000000  0.5100490000000 1.0
C      1  0.5343490000000  0.4387900000000  0.4847520000000 1.0
C      1  0.5316430000000  0.5625210000000  0.5217240000000 1.0
C      1  0.4719610000000  0.5449730000000  0.4704260000000 1.0
C      1  0.4786410000000  0.4522020000000  0.5334500000000 1.0
C      1  0.5511150000000  0.5607800000000  0.4935840000000 1.0
C      1  0.5546810000000  0.4408950000000  0.5122310000000 1.0
C      1  0.4763000000000  0.4435800000000  0.5581590000000 1.0
C      1  0.4710710000000  0.5478460000000  0.4442550000000 1.0
C      1  0.4612520000000  0.4711890000000  0.4579630000000 1.0
C      1  0.4781480000000  0.5303240000000  0.5335920000000 1.0
C      1  0.4200910000000  0.4921770000000  0.5458850000000 1.0
C      1  0.4181510000000  0.5291690000000  0.4453140000000 1.0
C      1  0.4448440000000  0.5059530000000  0.5473920000000 1.0
C      1  0.4365260000000  0.5085330000000  0.4398040000000 1.0
C      1  0.5243160000000  0.4306210000000  0.5165610000000 1.0
C      1  0.5197850000000  0.5704000000000  0.4914480000000 1.0
C      1  0.5483960000000  0.4664690000000  0.4705290000000 1.0
C      1  0.5447210000000  0.5341170000000  0.5330970000000 1.0
C      1  0.4639270000000  0.5554110000000  0.5345300000000 1.0
C      1  0.4639600000000  0.4424160000000  0.4706190000000 1.0
C      1  0.4151440000000  0.4713310000000  0.5281820000000 1.0
C      1  0.4145670000000  0.5421970000000  0.4694560000000 1.0
C      1  0.4885990000000  0.4867940000000  0.5032420000000 1.0
C      1  0.4887910000000  0.5124970000000  0.4867870000000 1.0
C      1  0.5110070000000  0.4630280000000  0.5541770000000 1.0
C      1  0.5158470000000  0.5433060000000  0.4486220000000 1.0
C      1  0.5001490000000  0.5368710000000  0.5010590000000 1.0
C      1  0.4989200000000  0.4619180000000  0.4904390000000 1.0
C      1  0.4395580000000  0.5597960000000  0.5120560000000 1.0
C      1  0.4424230000000  0.4395900000000  0.4964320000000 1.0
C      1  0.4880580000000  0.5267360000000  0.5742700000000 1.0
C      1  0.4795590000000  0.4666530000000  0.4296170000000 1.0
C      1  0.5568830000000  0.5158420000000  0.5543240000000 1.0
C      1  0.5571600000000  0.4870040000000  0.4484980000000 1.0
C      1  0.5737550000000  0.4959750000000  0.5445950000000 1.0
C      1  0.5707400000000  0.5094680000000  0.4578750000000 1.0
C      1  0.4593350000000  0.5089220000000  0.5189270000000 1.0
C      1  0.4487660000000  0.4961350000000  0.4643460000000 1.0
C      1  0.4904180000000  0.4878670000000  0.5656350000000 1.0
C      1  0.4875250000000  0.5052200000000  0.4318910000000 1.0
C      1  0.4598640000000  0.4950140000000  0.4260010000000 1.0
C      1  0.4639430000000  0.5082430000000  0.5676990000000 1.0
C      1  0.5824230000000  0.5488720000000  0.5001110000000 1.0
C      1  0.5843660000000  0.4509740000000  0.5034810000000 1.0
C      1  0.5644700000000  0.4758320000000  0.4960360000000 1.0
C      1  0.5594470000000  0.5248210000000  0.5082130000000 1.0
C      1  0.4369620000000  0.4612020000000  0.5132060000000 1.0
C      1  0.4319160000000  0.5410270000000  0.4918640000000 1.0
C      1  0.5135630000000  0.5672170000000  0.4603330000000 1.0
C      1  0.5142840000000  0.4367850000000  0.5444330000000 1.0
C      1  0.4625830000000  0.4762790000000  0.5209320000000 1.0
C      1  0.4560010000000  0.5191200000000  0.4866500000000 1.0
C      1  0.5255110000000  0.4994820000000  0.4693420000000 1.0
C      1  0.5264810000000  0.5005830000000  0.5216140000000 1.0
C      1  0.5351920000000  0.5200570000000  0.4435650000000 1.0
C      1  0.5362610000000  0.4823910000000  0.5473550000000 1.0
C      1  0.5104690000000  0.5656460000000  0.5449180000000 1.0
C      1  0.5149110000000  0.4289330000000  0.4653490000000 1.0
C      1  0.5113140000000  0.5289530000000  0.5290630000000 1.0
C      1  0.5158640000000  0.4687790000000  0.4658730000000 1.0
C      1  0.5366840000000  0.5041860000000  0.5724010000000 1.0
C      1  0.5341580000000  0.4918920000000  0.4287960000000 1.0
C      1  0.5109360000000  0.5079630000000  0.5817870000000 1.0
C      1  0.5076290000000  0.4846390000000  0.4219000000000 1.0
C      1  0.5432560000000  0.5000160000000  0.4949490000000 1.0
END
