TITL C-2782229-3092-938 0.000308990000533309 125000 -610.397629264271 0 0 106 (C1) n - 1
REM
REM in /home/nfs/bkarasulu/CARBON/AIRSS/Generating-Clusters/REBO/Higher-Symm/SD-CG/HFTN-CG
REM
REM
REM
REM
REM
REM ./C.cell (12c818d87b63d06a65506943cc24bca4)
REM
REM compiler GCC version 9.2.1 20190827 (Red Hat 9.2.1-1)
REM options -cpp -mtune=generic -march=x86-64 -g -O0 -fpre-include=/usr/include/finclude/math-vector-fortran.h
REM seed 458324509 -819672988 222104954 -1686998455 116219978 827843436 1534633579 1260378879 358612868 -2136145691 -338327626 949396649 658167682 -870332634 -482144144 1535057064 -710008551 -1543490568 -1619207025 1251734236 -693690326 1732581927 1188895394 -1729813618 316307362 -852719327 232884494 565020798 -1344446478 -1214512337 60757396 -1813835998 1131119239
REM
CELL 1.54180   50.00000   50.00000   50.00000   90.00000   90.00000   90.00000
LATT -1
SFAC C  
C      1  0.5189720000000  0.5264470000000  0.4138120000000 1.0
C      1  0.5062100000000  0.4741990000000  0.4138700000000 1.0
C      1  0.4421150000000  0.5691430000000  0.4820190000000 1.0
C      1  0.4426340000000  0.4345110000000  0.4921640000000 1.0
C      1  0.4958120000000  0.5378670000000  0.4027710000000 1.0
C      1  0.4790300000000  0.4701810000000  0.4081290000000 1.0
C      1  0.5608970000000  0.4544050000000  0.4285380000000 1.0
C      1  0.5713740000000  0.5425390000000  0.4583550000000 1.0
C      1  0.5151880000000  0.4529540000000  0.5173250000000 1.0
C      1  0.5109880000000  0.5445910000000  0.5173530000000 1.0
C      1  0.4879860000000  0.4269870000000  0.4815680000000 1.0
C      1  0.4870850000000  0.5749070000000  0.4685790000000 1.0
C      1  0.4911760000000  0.4683850000000  0.5280210000000 1.0
C      1  0.4849330000000  0.5286000000000  0.5221170000000 1.0
C      1  0.5136990000000  0.5294400000000  0.4689080000000 1.0
C      1  0.5110840000000  0.4706500000000  0.4693280000000 1.0
C      1  0.5161320000000  0.4617910000000  0.4407210000000 1.0
C      1  0.5266320000000  0.5370940000000  0.4421190000000 1.0
C      1  0.5415020000000  0.4729350000000  0.5159410000000 1.0
C      1  0.5375200000000  0.5257650000000  0.5172440000000 1.0
C      1  0.5680480000000  0.5316050000000  0.5280200000000 1.0
C      1  0.5928160000000  0.4640000000000  0.5176090000000 1.0
C      1  0.5716460000000  0.5120930000000  0.4585740000000 1.0
C      1  0.5647900000000  0.4817460000000  0.4338200000000 1.0
C      1  0.5014850000000  0.4360730000000  0.5754500000000 1.0
C      1  0.5045040000000  0.5565930000000  0.5683140000000 1.0
C      1  0.4132550000000  0.4871220000000  0.5243770000000 1.0
C      1  0.4128030000000  0.5226550000000  0.5211200000000 1.0
C      1  0.5787690000000  0.5526890000000  0.4844120000000 1.0
C      1  0.5836560000000  0.4546080000000  0.4798590000000 1.0
C      1  0.4827400000000  0.5125860000000  0.5513210000000 1.0
C      1  0.5045090000000  0.4798270000000  0.5565360000000 1.0
C      1  0.5394050000000  0.4277030000000  0.4658850000000 1.0
C      1  0.5368320000000  0.5760170000000  0.4686950000000 1.0
C      1  0.4390960000000  0.5439730000000  0.4632230000000 1.0
C      1  0.4390500000000  0.4559290000000  0.4687470000000 1.0
C      1  0.5594030000000  0.5191010000000  0.5558490000000 1.0
C      1  0.5599270000000  0.4681620000000  0.5684840000000 1.0
C      1  0.6279080000000  0.4812280000000  0.4838310000000 1.0
C      1  0.6154570000000  0.5341700000000  0.5141110000000 1.0
C      1  0.4761170000000  0.4758060000000  0.6001270000000 1.0
C      1  0.4722870000000  0.5270820000000  0.5989150000000 1.0
C      1  0.5234170000000  0.4702220000000  0.3919850000000 1.0
C      1  0.5404800000000  0.5239100000000  0.3959330000000 1.0
C      1  0.6007830000000  0.4801370000000  0.4903600000000 1.0
C      1  0.5889800000000  0.5306440000000  0.5052280000000 1.0
C      1  0.5255980000000  0.4489310000000  0.4883040000000 1.0
C      1  0.5247460000000  0.5522890000000  0.4902030000000 1.0
C      1  0.5103380000000  0.5891990000000  0.4612320000000 1.0
C      1  0.5120020000000  0.4138200000000  0.4749190000000 1.0
C      1  0.4387970000000  0.4775670000000  0.5691350000000 1.0
C      1  0.4348440000000  0.5304220000000  0.5668220000000 1.0
C      1  0.4916030000000  0.5283290000000  0.5759980000000 1.0
C      1  0.4974930000000  0.4669160000000  0.5803950000000 1.0
C      1  0.5584230000000  0.4419570000000  0.4887660000000 1.0
C      1  0.5549290000000  0.5690810000000  0.4946790000000 1.0
C      1  0.5349600000000  0.4801870000000  0.5824060000000 1.0
C      1  0.5343750000000  0.5072710000000  0.5760940000000 1.0
C      1  0.4372510000000  0.4693920000000  0.4453100000000 1.0
C      1  0.4374380000000  0.5267570000000  0.4424310000000 1.0
C      1  0.4611530000000  0.5341380000000  0.4843330000000 1.0
C      1  0.4609550000000  0.4696680000000  0.4875090000000 1.0
C      1  0.4669630000000  0.5538480000000  0.5317020000000 1.0
C      1  0.4696420000000  0.4469400000000  0.5358550000000 1.0
C      1  0.5404080000000  0.4478350000000  0.5392040000000 1.0
C      1  0.5243200000000  0.5591960000000  0.5431330000000 1.0
C      1  0.5483720000000  0.5577590000000  0.5222060000000 1.0
C      1  0.5671930000000  0.4519970000000  0.5185150000000 1.0
C      1  0.4578060000000  0.4605100000000  0.5811090000000 1.0
C      1  0.4556710000000  0.5454170000000  0.5796400000000 1.0
C      1  0.5313570000000  0.4490860000000  0.5689480000000 1.0
C      1  0.5337260000000  0.5386930000000  0.5673870000000 1.0
C      1  0.4466910000000  0.5614530000000  0.5096630000000 1.0
C      1  0.4472840000000  0.4476990000000  0.5178770000000 1.0
C      1  0.4131070000000  0.5159360000000  0.5520790000000 1.0
C      1  0.4136180000000  0.4860350000000  0.5562750000000 1.0
C      1  0.4867880000000  0.4556160000000  0.4823750000000 1.0
C      1  0.4877280000000  0.5470060000000  0.4760120000000 1.0
C      1  0.5482040000000  0.5552430000000  0.4478490000000 1.0
C      1  0.5377590000000  0.4426950000000  0.4395080000000 1.0
C      1  0.4417450000000  0.5298310000000  0.5121950000000 1.0
C      1  0.4408790000000  0.4777990000000  0.5137570000000 1.0
C      1  0.4719660000000  0.4408520000000  0.5642440000000 1.0
C      1  0.4725890000000  0.5594680000000  0.5599780000000 1.0
C      1  0.4616360000000  0.5870490000000  0.4715790000000 1.0
C      1  0.4625950000000  0.4150520000000  0.4858590000000 1.0
C      1  0.5414410000000  0.4978610000000  0.4510730000000 1.0
C      1  0.4275930000000  0.4992410000000  0.4827520000000 1.0
C      1  0.4209840000000  0.4970050000000  0.4215850000000 1.0
C      1  0.3997800000000  0.4971240000000  0.4388520000000 1.0
C      1  0.5851980000000  0.5057310000000  0.4860830000000 1.0
C      1  0.5112300000000  0.5021340000000  0.5355450000000 1.0
C      1  0.4000180000000  0.4982920000000  0.4663640000000 1.0
C      1  0.5892890000000  0.4980720000000  0.4334560000000 1.0
C      1  0.3978190000000  0.5026950000000  0.4991920000000 1.0
C      1  0.4705100000000  0.5014310000000  0.6107640000000 1.0
C      1  0.4832790000000  0.4978880000000  0.4365920000000 1.0
C      1  0.5292320000000  0.4987530000000  0.5074940000000 1.0
C      1  0.4521160000000  0.4976190000000  0.4343480000000 1.0
C      1  0.5137360000000  0.5007410000000  0.4320760000000 1.0
C      1  0.4517220000000  0.5048230000000  0.5268150000000 1.0
C      1  0.4795810000000  0.4955800000000  0.5133090000000 1.0
C      1  0.4582780000000  0.5025570000000  0.4875990000000 1.0
C      1  0.5743130000000  0.4894200000000  0.5584560000000 1.0
C      1  0.5207920000000  0.4995420000000  0.4779200000000 1.0
C      1  0.4510730000000  0.5044160000000  0.5571090000000 1.0
END
