TITL C-2782237-5345-931 27.3400015160746 125000 -1058.33659398299 0 0 183 (C1) n - 1
REM
REM in /home/nfs/bkarasulu/CARBON/AIRSS/Generating-Clusters/REBO/Higher-Symm/SD-CG/HFTN-CG
REM
REM
REM
REM
REM
REM ./C.cell (12c818d87b63d06a65506943cc24bca4)
REM
REM compiler GCC version 9.2.1 20190827 (Red Hat 9.2.1-1)
REM options -cpp -mtune=generic -march=x86-64 -g -O0 -fpre-include=/usr/include/finclude/math-vector-fortran.h
REM seed -1373167770 936568528 1919880817 -1941244192 -357264130 -659426314 -1918194837 -1872434181 64018146 2022628760 -1557426948 1758701960 -1888673899 -479393778 -1759908072 827364839 1018602553 1032598501 90715877 371122684 -246145086 615464756 -1428086859 337986931 -1385419921 1937610096 1918092517 -1279361976 2016560184 -433376133 -1241445086 1434763747 -633308432
REM
CELL 1.54180   50.00000   50.00000   50.00000   90.00000   90.00000   90.00000
LATT -1
SFAC C  
C      1  0.5567580000000  0.5648310000000  0.4443340000000 1.0
C      1  0.5511090000000  0.4900920000000  0.4899760000000 1.0
C      1  0.5302850000000  0.5844000000000  0.4551180000000 1.0
C      1  0.5520550000000  0.4983910000000  0.5166320000000 1.0
C      1  0.5711020000000  0.4802310000000  0.4428130000000 1.0
C      1  0.4994370000000  0.4940800000000  0.5196510000000 1.0
C      1  0.5167160000000  0.5331240000000  0.4421440000000 1.0
C      1  0.4310400000000  0.4989900000000  0.4506270000000 1.0
C      1  0.3939420000000  0.4599250000000  0.5083560000000 1.0
C      1  0.5315720000000  0.4820740000000  0.4412070000000 1.0
C      1  0.5601760000000  0.5380500000000  0.5138660000000 1.0
C      1  0.4759350000000  0.5710520000000  0.5662590000000 1.0
C      1  0.5883070000000  0.5527940000000  0.5204080000000 1.0
C      1  0.5253800000000  0.6077530000000  0.5261870000000 1.0
C      1  0.4000710000000  0.4941470000000  0.4259050000000 1.0
C      1  0.4888240000000  0.3891420000000  0.5396280000000 1.0
C      1  0.5210980000000  0.5601790000000  0.4855760000000 1.0
C      1  0.6098640000000  0.4586780000000  0.5088900000000 1.0
C      1  0.5434090000000  0.5680880000000  0.5746090000000 1.0
C      1  0.4916180000000  0.5507830000000  0.4792250000000 1.0
C      1  0.5213520000000  0.5233290000000  0.4701420000000 1.0
C      1  0.4219410000000  0.5658300000000  0.4693500000000 1.0
C      1  0.4716910000000  0.4984330000000  0.5010760000000 1.0
C      1  0.4275940000000  0.4382800000000  0.5436960000000 1.0
C      1  0.4919620000000  0.5432090000000  0.5553790000000 1.0
C      1  0.5807340000000  0.5164420000000  0.4854300000000 1.0
C      1  0.4073120000000  0.5744610000000  0.5049760000000 1.0
C      1  0.5033650000000  0.5939890000000  0.5034440000000 1.0
C      1  0.4560940000000  0.4522110000000  0.4711560000000 1.0
C      1  0.5379130000000  0.5852700000000  0.4856600000000 1.0
C      1  0.4755290000000  0.4588990000000  0.5051470000000 1.0
C      1  0.5006340000000  0.4615500000000  0.5509700000000 1.0
C      1  0.5478200000000  0.5137470000000  0.4011650000000 1.0
C      1  0.5540110000000  0.5381980000000  0.5448920000000 1.0
C      1  0.5237890000000  0.5408450000000  0.5529540000000 1.0
C      1  0.5596820000000  0.4263830000000  0.5641890000000 1.0
C      1  0.5020770000000  0.4509400000000  0.5234090000000 1.0
C      1  0.5288630000000  0.4771540000000  0.5617320000000 1.0
C      1  0.5188290000000  0.5121020000000  0.4174870000000 1.0
C      1  0.4969290000000  0.5187290000000  0.5764290000000 1.0
C      1  0.4619980000000  0.5582980000000  0.4911650000000 1.0
C      1  0.4981550000000  0.3917230000000  0.4682280000000 1.0
C      1  0.5055330000000  0.4040520000000  0.4947480000000 1.0
C      1  0.4858180000000  0.5295970000000  0.4310480000000 1.0
C      1  0.5288280000000  0.4663820000000  0.5129950000000 1.0
C      1  0.4507750000000  0.4118660000000  0.4983680000000 1.0
C      1  0.5075520000000  0.5180730000000  0.6025290000000 1.0
C      1  0.4185250000000  0.4838710000000  0.4081930000000 1.0
C      1  0.4875090000000  0.5540580000000  0.5933590000000 1.0
C      1  0.4677290000000  0.5142410000000  0.3989230000000 1.0
C      1  0.5428230000000  0.5049660000000  0.5891970000000 1.0
C      1  0.5169290000000  0.3891350000000  0.4488550000000 1.0
C      1  0.5119710000000  0.4363610000000  0.4938140000000 1.0
C      1  0.5530390000000  0.5087940000000  0.4399720000000 1.0
C      1  0.4663750000000  0.5875320000000  0.4780680000000 1.0
C      1  0.4561910000000  0.5556190000000  0.5210180000000 1.0
C      1  0.5565380000000  0.4470880000000  0.5871510000000 1.0
C      1  0.4501650000000  0.5271680000000  0.5756830000000 1.0
C      1  0.5629980000000  0.5796680000000  0.5523780000000 1.0
C      1  0.5576500000000  0.5381030000000  0.4229610000000 1.0
C      1  0.5026380000000  0.4749540000000  0.4918840000000 1.0
C      1  0.4720130000000  0.3951840000000  0.4614300000000 1.0
C      1  0.5977590000000  0.4679820000000  0.5306200000000 1.0
C      1  0.5615700000000  0.4839600000000  0.4101440000000 1.0
C      1  0.5736010000000  0.4392900000000  0.4956340000000 1.0
C      1  0.3985700000000  0.5217150000000  0.5121110000000 1.0
C      1  0.4918910000000  0.5355060000000  0.3993860000000 1.0
C      1  0.4802040000000  0.4486160000000  0.6009610000000 1.0
C      1  0.4227210000000  0.4699430000000  0.5396560000000 1.0
C      1  0.4493890000000  0.4741310000000  0.4941290000000 1.0
C      1  0.5503760000000  0.5295130000000  0.4832850000000 1.0
C      1  0.4951820000000  0.5957480000000  0.5615650000000 1.0
C      1  0.4226380000000  0.4981510000000  0.5757110000000 1.0
C      1  0.5853530000000  0.4301050000000  0.5222300000000 1.0
C      1  0.4767770000000  0.4648230000000  0.4314550000000 1.0
C      1  0.5102550000000  0.5696900000000  0.4084000000000 1.0
C      1  0.3993350000000  0.4895930000000  0.5244570000000 1.0
C      1  0.6004610000000  0.4880470000000  0.4834460000000 1.0
C      1  0.5250680000000  0.5097990000000  0.5275190000000 1.0
C      1  0.4739150000000  0.5486430000000  0.4539330000000 1.0
C      1  0.6016500000000  0.4847190000000  0.5595900000000 1.0
C      1  0.4534350000000  0.4667170000000  0.5547320000000 1.0
C      1  0.4942470000000  0.5310670000000  0.5057320000000 1.0
C      1  0.5649960000000  0.4539860000000  0.4135210000000 1.0
C      1  0.5149470000000  0.4104150000000  0.5348980000000 1.0
C      1  0.4990210000000  0.4733530000000  0.3968780000000 1.0
C      1  0.4764690000000  0.5350600000000  0.5290940000000 1.0
C      1  0.4015130000000  0.5479830000000  0.4905600000000 1.0
C      1  0.4486650000000  0.4366970000000  0.4355250000000 1.0
C      1  0.4970800000000  0.6124620000000  0.5384700000000 1.0
C      1  0.5472450000000  0.4613200000000  0.5406720000000 1.0
C      1  0.4246000000000  0.5382340000000  0.4495710000000 1.0
C      1  0.4827920000000  0.4721600000000  0.4644030000000 1.0
C      1  0.5182990000000  0.5717180000000  0.5246270000000 1.0
C      1  0.4416240000000  0.5372340000000  0.4886580000000 1.0
C      1  0.4512870000000  0.5761350000000  0.5465650000000 1.0
C      1  0.5560360000000  0.4203970000000  0.4517520000000 1.0
C      1  0.5734240000000  0.4378700000000  0.4365420000000 1.0
C      1  0.5261210000000  0.5406770000000  0.5130670000000 1.0
C      1  0.4307670000000  0.4529930000000  0.4110140000000 1.0
C      1  0.6004140000000  0.5074400000000  0.5339750000000 1.0
C      1  0.4670940000000  0.4322700000000  0.5189790000000 1.0
C      1  0.4377960000000  0.4686550000000  0.4396570000000 1.0
C      1  0.4471380000000  0.4819110000000  0.5847220000000 1.0
C      1  0.4994370000000  0.5905640000000  0.4698130000000 1.0
C      1  0.5874560000000  0.5129890000000  0.5720780000000 1.0
C      1  0.4415270000000  0.5123950000000  0.5007220000000 1.0
C      1  0.5310300000000  0.5086330000000  0.5588300000000 1.0
C      1  0.4418900000000  0.4944980000000  0.5276960000000 1.0
C      1  0.4233320000000  0.4423070000000  0.4758010000000 1.0
C      1  0.4927380000000  0.4802190000000  0.6014060000000 1.0
C      1  0.4417010000000  0.4321550000000  0.5702060000000 1.0
C      1  0.4274140000000  0.5539140000000  0.5384770000000 1.0
C      1  0.5068720000000  0.4495980000000  0.5802590000000 1.0
C      1  0.5424700000000  0.4510890000000  0.4884070000000 1.0
C      1  0.4365580000000  0.5020660000000  0.3979080000000 1.0
C      1  0.5317200000000  0.4644020000000  0.5916840000000 1.0
C      1  0.3907610000000  0.5185020000000  0.4788080000000 1.0
C      1  0.4225150000000  0.5083120000000  0.5507830000000 1.0
C      1  0.4522540000000  0.5953080000000  0.5194820000000 1.0
C      1  0.5504160000000  0.4602460000000  0.4603450000000 1.0
C      1  0.5798310000000  0.5681250000000  0.4963070000000 1.0
C      1  0.5888070000000  0.5016060000000  0.4561810000000 1.0
C      1  0.4609630000000  0.5187090000000  0.5526350000000 1.0
C      1  0.4736980000000  0.4896390000000  0.5403800000000 1.0
C      1  0.5169600000000  0.5740650000000  0.5567940000000 1.0
C      1  0.4918280000000  0.5108670000000  0.4784210000000 1.0
C      1  0.4671510000000  0.5787670000000  0.4463590000000 1.0
C      1  0.4022250000000  0.5154860000000  0.4513620000000 1.0
C      1  0.5854340000000  0.4343440000000  0.5486090000000 1.0
C      1  0.6064600000000  0.5121830000000  0.5067070000000 1.0
C      1  0.4312440000000  0.5510660000000  0.4201190000000 1.0
C      1  0.4805340000000  0.4024280000000  0.5119480000000 1.0
C      1  0.4817350000000  0.4347410000000  0.4434620000000 1.0
C      1  0.4682820000000  0.5007190000000  0.5994470000000 1.0
C      1  0.4916060000000  0.4339400000000  0.4721620000000 1.0
C      1  0.5708430000000  0.5354810000000  0.5685390000000 1.0
C      1  0.5166160000000  0.5554340000000  0.5921840000000 1.0
C      1  0.5522110000000  0.5942880000000  0.5300730000000 1.0
C      1  0.5691920000000  0.4909600000000  0.5820330000000 1.0
C      1  0.4272320000000  0.4249660000000  0.5185830000000 1.0
C      1  0.4534930000000  0.5215890000000  0.4528670000000 1.0
C      1  0.5871890000000  0.5656010000000  0.5460220000000 1.0
C      1  0.5458460000000  0.5380600000000  0.5906570000000 1.0
C      1  0.4928760000000  0.4976060000000  0.4115370000000 1.0
C      1  0.4617600000000  0.4645680000000  0.4081830000000 1.0
C      1  0.5007690000000  0.4482350000000  0.3978170000000 1.0
C      1  0.5311890000000  0.4481990000000  0.4373380000000 1.0
C      1  0.4401120000000  0.5332070000000  0.4016580000000 1.0
C      1  0.5719640000000  0.5528200000000  0.4713630000000 1.0
C      1  0.5260490000000  0.5597370000000  0.4343190000000 1.0
C      1  0.3862980000000  0.4892730000000  0.4929300000000 1.0
C      1  0.5962970000000  0.4471060000000  0.4508670000000 1.0
C      1  0.4114100000000  0.5311190000000  0.5385730000000 1.0
C      1  0.5256050000000  0.5401040000000  0.3994920000000 1.0
C      1  0.5058660000000  0.4332440000000  0.4237940000000 1.0
C      1  0.4974890000000  0.5850140000000  0.4360640000000 1.0
C      1  0.5732890000000  0.4904450000000  0.5325590000000 1.0
C      1  0.5566970000000  0.4149560000000  0.4811720000000 1.0
C      1  0.4913480000000  0.4890080000000  0.5688430000000 1.0
C      1  0.5329210000000  0.4945120000000  0.4709920000000 1.0
C      1  0.4200280000000  0.4903910000000  0.4904830000000 1.0
C      1  0.5598520000000  0.5868800000000  0.5031810000000 1.0
C      1  0.5366240000000  0.4088380000000  0.5080480000000 1.0
C      1  0.4677470000000  0.5323890000000  0.5997570000000 1.0
C      1  0.5231900000000  0.4894300000000  0.6107790000000 1.0
C      1  0.4099570000000  0.4384500000000  0.5002900000000 1.0
C      1  0.4507980000000  0.4508640000000  0.5914450000000 1.0
C      1  0.4902830000000  0.4172390000000  0.5576490000000 1.0
C      1  0.5420990000000  0.4279590000000  0.5359680000000 1.0
C      1  0.4944640000000  0.4202810000000  0.5885630000000 1.0
C      1  0.4864180000000  0.5642900000000  0.3877910000000 1.0
C      1  0.5958740000000  0.4564480000000  0.4799060000000 1.0
C      1  0.4768140000000  0.6084620000000  0.5167810000000 1.0
C      1  0.5293230000000  0.4140400000000  0.4369500000000 1.0
C      1  0.5739290000000  0.4635730000000  0.5623480000000 1.0
C      1  0.4807410000000  0.5012660000000  0.4473840000000 1.0
C      1  0.4518720000000  0.4193770000000  0.4650960000000 1.0
C      1  0.4671010000000  0.4360150000000  0.5488030000000 1.0
C      1  0.4370090000000  0.5743850000000  0.4400370000000 1.0
C      1  0.4352380000000  0.5876270000000  0.4924030000000 1.0
C      1  0.5776400000000  0.5311800000000  0.4485340000000 1.0
C      1  0.4212930000000  0.4709370000000  0.4658390000000 1.0
END
