TITL C-2782227-3064-670 -0.00107029776185685 125000 -185.417085362309 0 0 33 (C1) n - 1
REM
REM in /home/nfs/bkarasulu/CARBON/AIRSS/Generating-Clusters/REBO/Higher-Symm/SD-CG/HFTN-CG
REM
REM
REM
REM
REM
REM ./C.cell (12c818d87b63d06a65506943cc24bca4)
REM
REM compiler GCC version 9.2.1 20190827 (Red Hat 9.2.1-1)
REM options -cpp -mtune=generic -march=x86-64 -g -O0 -fpre-include=/usr/include/finclude/math-vector-fortran.h
REM seed -154170755 1721222331 192649368 829939145 2049037796 -1600770933 922049266 -1615304555 -1950348449 -1511061285 537095606 -233385914 -695686286 -62586948 801397240 319549752 -80187797 784081034 1236199760 -937973511 -499791530 727527843 1936110307 2063330763 1521724521 1733659858 -2059038646 1613000629 266692247 -1934608420 -1107093028 -1149260742 1927775844
REM
CELL 1.54180   50.00000   50.00000   50.00000   90.00000   90.00000   90.00000
LATT -1
SFAC C  
C      1  0.5648460000000  0.4800320000000  0.5606480000000 1.0
C      1  0.4066740000000  0.5297100000000  0.5056520000000 1.0
C      1  0.4745050000000  0.4639160000000  0.5261160000000 1.0
C      1  0.5404240000000  0.4748560000000  0.4509790000000 1.0
C      1  0.5185120000000  0.5511840000000  0.5107540000000 1.0
C      1  0.4688070000000  0.4778950000000  0.4472660000000 1.0
C      1  0.5390790000000  0.4943850000000  0.5215480000000 1.0
C      1  0.4510820000000  0.5125620000000  0.4953200000000 1.0
C      1  0.5701500000000  0.5493880000000  0.4922310000000 1.0
C      1  0.4466760000000  0.4504630000000  0.4862370000000 1.0
C      1  0.5117980000000  0.5348330000000  0.5393440000000 1.0
C      1  0.4673130000000  0.5110640000000  0.4473440000000 1.0
C      1  0.5605480000000  0.4529170000000  0.4920290000000 1.0
C      1  0.4595780000000  0.5037690000000  0.5501970000000 1.0
C      1  0.4312830000000  0.5213440000000  0.5136350000000 1.0
C      1  0.5566040000000  0.4760930000000  0.5350550000000 1.0
C      1  0.5427610000000  0.4704600000000  0.4787490000000 1.0
C      1  0.4764140000000  0.4915170000000  0.5308220000000 1.0
C      1  0.5480840000000  0.5431240000000  0.5070260000000 1.0
C      1  0.4459200000000  0.4702150000000  0.4665290000000 1.0
C      1  0.4879260000000  0.5380800000000  0.5165250000000 1.0
C      1  0.4958520000000  0.4962170000000  0.4565060000000 1.0
C      1  0.4668180000000  0.5560230000000  0.5190040000000 1.0
C      1  0.5204790000000  0.4896410000000  0.4397240000000 1.0
C      1  0.5913360000000  0.5554020000000  0.4780260000000 1.0
C      1  0.4604800000000  0.4476150000000  0.5095040000000 1.0
C      1  0.5385090000000  0.5222510000000  0.5290630000000 1.0
C      1  0.4463910000000  0.5021630000000  0.4692720000000 1.0
C      1  0.4381750000000  0.5187490000000  0.5412100000000 1.0
C      1  0.5661030000000  0.4547620000000  0.5188710000000 1.0
C      1  0.5267340000000  0.4876200000000  0.4960250000000 1.0
C      1  0.4805990000000  0.5101720000000  0.5061200000000 1.0
C      1  0.5019390000000  0.4983580000000  0.4866190000000 1.0
END
