TITL C-2782228-2999-654 0.00546949728922502 125000 -942.54428153626 0 0 159 (C1) n - 1
REM
REM in /home/nfs/bkarasulu/CARBON/AIRSS/Generating-Clusters/REBO/Higher-Symm/SD-CG/HFTN-CG
REM
REM
REM
REM
REM
REM ./C.cell (12c818d87b63d06a65506943cc24bca4)
REM
REM compiler GCC version 9.2.1 20190827 (Red Hat 9.2.1-1)
REM options -cpp -mtune=generic -march=x86-64 -g -O0 -fpre-include=/usr/include/finclude/math-vector-fortran.h
REM seed 1867120888 2114300367 -1024416992 -869146455 568876612 -298747354 -797534122 1751261337 -757956082 77851263 -1223217853 -369421877 -1534643232 1422561639 897489672 485216341 1042376358 808248591 -774131116 206234265 -2011712402 1303891650 -274734580 244587041 -1559285189 1917761130 -1717451042 1544241163 1263757853 557890603 -1632928641 -356748871 -876010874
REM
CELL 1.54180   50.00000   50.00000   50.00000   90.00000   90.00000   90.00000
LATT -1
SFAC C  
C      1  0.5205520000000  0.4866790000000  0.5098930000000 1.0
C      1  0.4906490000000  0.4745100000000  0.5097690000000 1.0
C      1  0.4727450000000  0.4993740000000  0.5121450000000 1.0
C      1  0.4906190000000  0.5248050000000  0.5104950000000 1.0
C      1  0.5194530000000  0.5165460000000  0.5096160000000 1.0
C      1  0.3933810000000  0.5299300000000  0.5129690000000 1.0
C      1  0.5010440000000  0.6127320000000  0.5098450000000 1.0
C      1  0.6027660000000  0.5351470000000  0.5119000000000 1.0
C      1  0.5670110000000  0.4122800000000  0.5151630000000 1.0
C      1  0.4373990000000  0.4081330000000  0.5022400000000 1.0
C      1  0.5029400000000  0.4796900000000  0.5932360000000 1.0
C      1  0.4774370000000  0.4943750000000  0.5934310000000 1.0
C      1  0.4836180000000  0.5232090000000  0.5943520000000 1.0
C      1  0.5126350000000  0.5266640000000  0.5919570000000 1.0
C      1  0.5246320000000  0.4996890000000  0.5920740000000 1.0
C      1  0.4507500000000  0.4573940000000  0.4163930000000 1.0
C      1  0.4351870000000  0.5390260000000  0.4231750000000 1.0
C      1  0.5121360000000  0.5683420000000  0.4207220000000 1.0
C      1  0.5728740000000  0.5111280000000  0.4196280000000 1.0
C      1  0.5373860000000  0.4320320000000  0.4193270000000 1.0
C      1  0.5629460000000  0.5495720000000  0.4775730000000 1.0
C      1  0.5718090000000  0.4524800000000  0.4803970000000 1.0
C      1  0.4791820000000  0.4234080000000  0.4755100000000 1.0
C      1  0.4178320000000  0.4954700000000  0.4802000000000 1.0
C      1  0.4721840000000  0.5769570000000  0.4824460000000 1.0
C      1  0.5355110000000  0.4317240000000  0.4515420000000 1.0
C      1  0.4486590000000  0.4548300000000  0.4465530000000 1.0
C      1  0.4348660000000  0.5352080000000  0.4531110000000 1.0
C      1  0.5119420000000  0.5709090000000  0.4504790000000 1.0
C      1  0.5713330000000  0.5091530000000  0.4502520000000 1.0
C      1  0.5050160000000  0.4335010000000  0.4088550000000 1.0
C      1  0.4420170000000  0.4866740000000  0.4046930000000 1.0
C      1  0.4601160000000  0.5568320000000  0.4110000000000 1.0
C      1  0.5345810000000  0.5493370000000  0.4095490000000 1.0
C      1  0.5653590000000  0.4831420000000  0.4065580000000 1.0
C      1  0.5451080000000  0.5283590000000  0.4575580000000 1.0
C      1  0.5452250000000  0.4624100000000  0.4635770000000 1.0
C      1  0.4794750000000  0.4515900000000  0.4576150000000 1.0
C      1  0.4436010000000  0.5033440000000  0.4592620000000 1.0
C      1  0.4855510000000  0.5541060000000  0.4614470000000 1.0
C      1  0.4888670000000  0.4476470000000  0.4961530000000 1.0
C      1  0.4469460000000  0.4944990000000  0.4977140000000 1.0
C      1  0.4720530000000  0.5485660000000  0.4985670000000 1.0
C      1  0.5386540000000  0.5367030000000  0.4961240000000 1.0
C      1  0.5449960000000  0.4750730000000  0.4995990000000 1.0
C      1  0.4564750000000  0.5571880000000  0.5267600000000 1.0
C      1  0.5460010000000  0.5580740000000  0.5212800000000 1.0
C      1  0.5683190000000  0.4722970000000  0.5227370000000 1.0
C      1  0.4948130000000  0.4303670000000  0.5228130000000 1.0
C      1  0.4261160000000  0.4785410000000  0.5189440000000 1.0
C      1  0.5310420000000  0.4679050000000  0.4356080000000 1.0
C      1  0.4839960000000  0.4737000000000  0.4313740000000 1.0
C      1  0.4617780000000  0.5063710000000  0.4329900000000 1.0
C      1  0.4865610000000  0.5376520000000  0.4338660000000 1.0
C      1  0.5277220000000  0.5156120000000  0.4309460000000 1.0
C      1  0.5854840000000  0.4871150000000  0.5661240000000 1.0
C      1  0.5095160000000  0.4197100000000  0.5683980000000 1.0
C      1  0.4303990000000  0.4550570000000  0.5528040000000 1.0
C      1  0.4332600000000  0.5550430000000  0.5661060000000 1.0
C      1  0.5462190000000  0.5768460000000  0.5605500000000 1.0
C      1  0.4490000000000  0.4666700000000  0.4781910000000 1.0
C      1  0.4478010000000  0.5326100000000  0.4845110000000 1.0
C      1  0.5209900000000  0.5583740000000  0.4788530000000 1.0
C      1  0.5612310000000  0.4953910000000  0.4794370000000 1.0
C      1  0.5173420000000  0.4390380000000  0.4794230000000 1.0
C      1  0.4497160000000  0.4148190000000  0.4768520000000 1.0
C      1  0.4012250000000  0.5211540000000  0.4863540000000 1.0
C      1  0.4916510000000  0.6004440000000  0.4852520000000 1.0
C      1  0.5910020000000  0.5378840000000  0.4848310000000 1.0
C      1  0.5681250000000  0.4246230000000  0.4884570000000 1.0
C      1  0.4822160000000  0.4040700000000  0.5548060000000 1.0
C      1  0.4050870000000  0.4767770000000  0.5530650000000 1.0
C      1  0.4637370000000  0.5922420000000  0.5532000000000 1.0
C      1  0.5766040000000  0.5608710000000  0.5567720000000 1.0
C      1  0.5887320000000  0.4555380000000  0.5531790000000 1.0
C      1  0.4687390000000  0.5261550000000  0.4067820000000 1.0
C      1  0.5081820000000  0.5306150000000  0.4083370000000 1.0
C      1  0.5395150000000  0.4895860000000  0.4212100000000 1.0
C      1  0.5072270000000  0.4557670000000  0.4293100000000 1.0
C      1  0.4744220000000  0.4870550000000  0.4046380000000 1.0
C      1  0.4385270000000  0.5340470000000  0.5144330000000 1.0
C      1  0.5196480000000  0.5696830000000  0.5077460000000 1.0
C      1  0.5716250000000  0.5021430000000  0.5090730000000 1.0
C      1  0.5241530000000  0.4366900000000  0.5104650000000 1.0
C      1  0.4446090000000  0.4560590000000  0.5076900000000 1.0
C      1  0.6045850000000  0.4930950000000  0.4883760000000 1.0
C      1  0.5273970000000  0.4011170000000  0.4924860000000 1.0
C      1  0.4124440000000  0.4432750000000  0.4830160000000 1.0
C      1  0.4182910000000  0.5646970000000  0.4929510000000 1.0
C      1  0.5385850000000  0.5976660000000  0.4863470000000 1.0
C      1  0.6030510000000  0.4890330000000  0.5371600000000 1.0
C      1  0.5192540000000  0.4040700000000  0.5403520000000 1.0
C      1  0.4112060000000  0.4437900000000  0.5313490000000 1.0
C      1  0.4206220000000  0.5654080000000  0.5420990000000 1.0
C      1  0.5466430000000  0.5954400000000  0.5350660000000 1.0
C      1  0.5860160000000  0.5450870000000  0.5359130000000 1.0
C      1  0.5606580000000  0.4375720000000  0.5541360000000 1.0
C      1  0.4552550000000  0.4233400000000  0.5533290000000 1.0
C      1  0.4139020000000  0.5083440000000  0.5529320000000 1.0
C      1  0.4902280000000  0.5949330000000  0.5435670000000 1.0
C      1  0.4749200000000  0.5204130000000  0.5556510000000 1.0
C      1  0.5139200000000  0.5405590000000  0.5545290000000 1.0
C      1  0.5373760000000  0.5008350000000  0.5542990000000 1.0
C      1  0.5155800000000  0.4562270000000  0.5533850000000 1.0
C      1  0.4587470000000  0.4688740000000  0.5534620000000 1.0
C      1  0.4424620000000  0.5801610000000  0.4972900000000 1.0
C      1  0.5606290000000  0.5790610000000  0.4888830000000 1.0
C      1  0.5932510000000  0.4666580000000  0.4920460000000 1.0
C      1  0.4988060000000  0.4037690000000  0.4932160000000 1.0
C      1  0.4021180000000  0.4696040000000  0.4886690000000 1.0
C      1  0.4849890000000  0.5717280000000  0.4103900000000 1.0
C      1  0.5591210000000  0.5348850000000  0.4097810000000 1.0
C      1  0.5560700000000  0.4527460000000  0.4083640000000 1.0
C      1  0.4746320000000  0.4427210000000  0.4059740000000 1.0
C      1  0.4306460000000  0.5131110000000  0.4089030000000 1.0
C      1  0.4533930000000  0.4857010000000  0.5802590000000 1.0
C      1  0.4616350000000  0.5401900000000  0.5781440000000 1.0
C      1  0.5274300000000  0.5543260000000  0.5788270000000 1.0
C      1  0.5546620000000  0.4927140000000  0.5798520000000 1.0
C      1  0.5033830000000  0.4505310000000  0.5823740000000 1.0
C      1  0.5691080000000  0.5803800000000  0.5184330000000 1.0
C      1  0.5984470000000  0.4584390000000  0.5230370000000 1.0
C      1  0.4898470000000  0.3980880000000  0.5241960000000 1.0
C      1  0.3935990000000  0.4708590000000  0.5215880000000 1.0
C      1  0.4432680000000  0.5867190000000  0.5298770000000 1.0
C      1  0.4590820000000  0.4992970000000  0.5403360000000 1.0
C      1  0.4861030000000  0.5460660000000  0.5359070000000 1.0
C      1  0.5372880000000  0.5281040000000  0.5351340000000 1.0
C      1  0.5437810000000  0.4721740000000  0.5440460000000 1.0
C      1  0.4833530000000  0.4501660000000  0.5452120000000 1.0
C      1  0.5199000000000  0.4844890000000  0.4700360000000 1.0
C      1  0.4919500000000  0.4776750000000  0.4700870000000 1.0
C      1  0.4752720000000  0.5012620000000  0.4701920000000 1.0
C      1  0.4930300000000  0.5239350000000  0.4707480000000 1.0
C      1  0.5199150000000  0.5133650000000  0.4698480000000 1.0
C      1  0.4777840000000  0.4286510000000  0.5783370000000 1.0
C      1  0.4249380000000  0.4911130000000  0.5775790000000 1.0
C      1  0.4584780000000  0.5732130000000  0.5737330000000 1.0
C      1  0.5602720000000  0.5572130000000  0.5846270000000 1.0
C      1  0.5656880000000  0.4614650000000  0.5776990000000 1.0
C      1  0.4166050000000  0.4275400000000  0.5084670000000 1.0
C      1  0.4055090000000  0.5559280000000  0.5194190000000 1.0
C      1  0.5298540000000  0.6077420000000  0.5142880000000 1.0
C      1  0.6108350000000  0.5064180000000  0.5150470000000 1.0
C      1  0.5399150000000  0.4013770000000  0.5204260000000 1.0
C      1  0.4118010000000  0.5445170000000  0.4727370000000 1.0
C      1  0.5152950000000  0.5964830000000  0.4689630000000 1.0
C      1  0.5954380000000  0.5136060000000  0.4701890000000 1.0
C      1  0.5461940000000  0.4121690000000  0.4736880000000 1.0
C      1  0.4320100000000  0.4337380000000  0.4636130000000 1.0
C      1  0.4331680000000  0.5145910000000  0.5339780000000 1.0
C      1  0.4996300000000  0.5741550000000  0.5266800000000 1.0
C      1  0.5680150000000  0.5228540000000  0.5271800000000 1.0
C      1  0.5436920000000  0.4414800000000  0.5292150000000 1.0
C      1  0.4560530000000  0.4391940000000  0.5268390000000 1.0
C      1  0.4913130000000  0.5100030000000  0.3889770000000 1.0
C      1  0.4957090000000  0.5047880000000  0.4359000000000 1.0
C      1  0.5056710000000  0.4824090000000  0.5385190000000 1.0
C      1  0.5046720000000  0.5082450000000  0.5564300000000 1.0
END
