TITL C-2782229-3092-1266 5.4412988438525e-05 125000 -132.939830486219 0 0 24 (C1) n - 1
REM
REM in /home/nfs/bkarasulu/CARBON/AIRSS/Generating-Clusters/REBO/Higher-Symm/SD-CG/HFTN-CG
REM
REM
REM
REM
REM
REM ./C.cell (12c818d87b63d06a65506943cc24bca4)
REM
REM compiler GCC version 9.2.1 20190827 (Red Hat 9.2.1-1)
REM options -cpp -mtune=generic -march=x86-64 -g -O0 -fpre-include=/usr/include/finclude/math-vector-fortran.h
REM seed 529681718 822272238 -1289044618 -1267855153 1853235701 339003403 715917205 -866107576 -739300606 -1261023032 875136457 -1498207897 -1367680717 1822706691 -2009685593 1044095517 -1271914914 1889805664 -1736945782 -1149943613 196810685 -691313576 -1824346115 -2083480222 26624326 -1185967495 -1366234326 -1024225997 -1843843900 -1894913497 1694532540 -629459060 -590368352
REM
CELL 1.54180   50.00000   50.00000   50.00000   90.00000   90.00000   90.00000
LATT -1
SFAC C  
C      1  0.5348600000000  0.4651140000000  0.5138100000000 1.0
C      1  0.4755600000000  0.4578110000000  0.5097840000000 1.0
C      1  0.4566640000000  0.5256990000000  0.5090310000000 1.0
C      1  0.4988320000000  0.5541380000000  0.5132230000000 1.0
C      1  0.5359670000000  0.5137860000000  0.5048040000000 1.0
C      1  0.4982200000000  0.5227560000000  0.5196500000000 1.0
C      1  0.5253090000000  0.5111410000000  0.5349850000000 1.0
C      1  0.5193610000000  0.4775580000000  0.5373600000000 1.0
C      1  0.4853910000000  0.4743680000000  0.5333560000000 1.0
C      1  0.4714380000000  0.5056410000000  0.5320810000000 1.0
C      1  0.4967730000000  0.4537990000000  0.4906420000000 1.0
C      1  0.4553040000000  0.4974010000000  0.4953900000000 1.0
C      1  0.4994490000000  0.5313150000000  0.4771130000000 1.0
C      1  0.5267250000000  0.5367580000000  0.4905070000000 1.0
C      1  0.5058640000000  0.4821150000000  0.4790620000000 1.0
C      1  0.5209270000000  0.4423930000000  0.5023820000000 1.0
C      1  0.4517520000000  0.4697860000000  0.4993710000000 1.0
C      1  0.4741870000000  0.5441390000000  0.4960500000000 1.0
C      1  0.5260090000000  0.5638130000000  0.5043380000000 1.0
C      1  0.5339130000000  0.4871880000000  0.4937960000000 1.0
C      1  0.5008940000000  0.5056180000000  0.4563550000000 1.0
C      1  0.4988590000000  0.5043240000000  0.4303930000000 1.0
C      1  0.4982190000000  0.4998370000000  0.5522630000000 1.0
C      1  0.4865910000000  0.5047150000000  0.4932520000000 1.0
END
