TITL C-2782234-8014-172 1.19619707543238e-07 125000 -163.974588181827 0 0 30 (C3v) n - 1
REM
REM in /home/nfs/bkarasulu/CARBON/AIRSS/Generating-Clusters/REBO/Higher-Symm/SD-CG/HFTN-CG
REM
REM
REM
REM
REM
REM ./C.cell (12c818d87b63d06a65506943cc24bca4)
REM
REM compiler GCC version 9.2.1 20190827 (Red Hat 9.2.1-1)
REM options -cpp -mtune=generic -march=x86-64 -g -O0 -fpre-include=/usr/include/finclude/math-vector-fortran.h
REM seed 2112887133 -42270499 213823190 -904288346 -929843349 -123248556 -1587720857 1221322962 218879241 -1671461962 1697295986 1205327380 -1907332900 1585765466 1413929195 2078598398 -919543530 1138171285 -1938327794 1957222366 1524240548 1718379870 1650589572 1984605611 -1783781274 854733911 -1902462807 -1380187681 1775633902 -1224449394 1064653781 -1410585310 716951458
REM
CELL 1.54180   50.00000   50.00000   50.00000   90.00000   90.00000   90.00000
LATT -1
SFAC C  
C      1  0.4654950000000  0.4517980000000  0.4564430000000 1.0
C      1  0.4660600000000  0.4865660000000  0.5638660000000 1.0
C      1  0.4661980000000  0.5622130000000  0.4800420000000 1.0
C      1  0.5612470000000  0.4736460000000  0.4763180000000 1.0
C      1  0.5615510000000  0.4923300000000  0.5340480000000 1.0
C      1  0.5616250000000  0.5329840000000  0.4890010000000 1.0
C      1  0.5109190000000  0.4871060000000  0.5600030000000 1.0
C      1  0.5110490000000  0.5583510000000  0.4810560000000 1.0
C      1  0.5103860000000  0.4543610000000  0.4588300000000 1.0
C      1  0.5832600000000  0.4893940000000  0.5471380000000 1.0
C      1  0.5833630000000  0.5456690000000  0.4847810000000 1.0
C      1  0.5828400000000  0.4635300000000  0.4672240000000 1.0
C      1  0.5356590000000  0.4856340000000  0.4870950000000 1.0
C      1  0.5358240000000  0.4958100000000  0.5185350000000 1.0
C      1  0.5358640000000  0.5179500000000  0.4940020000000 1.0
C      1  0.4437230000000  0.4696960000000  0.5231420000000 1.0
C      1  0.4440660000000  0.5355010000000  0.5152370000000 1.0
C      1  0.4436600000000  0.4957530000000  0.4622000000000 1.0
C      1  0.4440360000000  0.5188800000000  0.5336540000000 1.0
C      1  0.4438150000000  0.5200140000000  0.4673860000000 1.0
C      1  0.4435980000000  0.4620570000000  0.4995390000000 1.0
C      1  0.4598600000000  0.4923640000000  0.5369210000000 1.0
C      1  0.4599400000000  0.5360130000000  0.4885550000000 1.0
C      1  0.4595340000000  0.4723030000000  0.4749380000000 1.0
C      1  0.5106530000000  0.4926310000000  0.5341580000000 1.0
C      1  0.5107270000000  0.5332080000000  0.4891960000000 1.0
C      1  0.5103500000000  0.4739820000000  0.4765370000000 1.0
C      1  0.4847730000000  0.4856030000000  0.4869820000000 1.0
C      1  0.4849420000000  0.4960070000000  0.5191290000000 1.0
C      1  0.4849830000000  0.5186450000000  0.4940440000000 1.0
END
