TITL C-2782226-7400-719 0.00217855880543824 125000 -653.462162578315 0 0 108 (C2) n - 1
REM
REM in /home/nfs/bkarasulu/CARBON/AIRSS/Generating-Clusters/REBO/Higher-Symm/SD-CG/HFTN-CG
REM
REM
REM
REM
REM
REM ./C.cell (12c818d87b63d06a65506943cc24bca4)
REM
REM compiler GCC version 9.2.1 20190827 (Red Hat 9.2.1-1)
REM options -cpp -mtune=generic -march=x86-64 -g -O0 -fpre-include=/usr/include/finclude/math-vector-fortran.h
REM seed 263511705 -1263644463 -857684034 902438261 -2080635727 -1155201010 -1445341021 -1576819591 509834491 304028447 149764351 171394620 1544436237 -1487155049 446918917 -1262456134 -1705192988 59850231 -382323330 -531061115 1514177804 -153736153 1801942031 -577423684 -592040081 1022588016 -770797376 -1060958472 -2094570701 -1806842054 -1115415451 1659573916 1531113407
REM
CELL 1.54180   50.00000   50.00000   50.00000   90.00000   90.00000   90.00000
LATT -1
SFAC C  
C      1  0.5268200000000  0.4588370000000  0.4259880000000 1.0
C      1  0.4578580000000  0.4731120000000  0.5736510000000 1.0
C      1  0.4731670000000  0.5411500000000  0.4259860000000 1.0
C      1  0.5421550000000  0.5269010000000  0.5736390000000 1.0
C      1  0.4613210000000  0.5801630000000  0.4874430000000 1.0
C      1  0.5863590000000  0.5387840000000  0.5126180000000 1.0
C      1  0.5386770000000  0.4198340000000  0.4874510000000 1.0
C      1  0.4136430000000  0.4612190000000  0.5126400000000 1.0
C      1  0.5290470000000  0.5376930000000  0.4881330000000 1.0
C      1  0.5390720000000  0.4743210000000  0.5142310000000 1.0
C      1  0.4709510000000  0.4623050000000  0.4881440000000 1.0
C      1  0.4609310000000  0.5256820000000  0.5142330000000 1.0
C      1  0.5836260000000  0.4834010000000  0.4940770000000 1.0
C      1  0.4837990000000  0.4194060000000  0.5046530000000 1.0
C      1  0.4163730000000  0.5165980000000  0.4940880000000 1.0
C      1  0.5162010000000  0.5805950000000  0.5046360000000 1.0
C      1  0.4734230000000  0.5775260000000  0.5347190000000 1.0
C      1  0.5746750000000  0.5268290000000  0.4677210000000 1.0
C      1  0.5265830000000  0.4224800000000  0.5347280000000 1.0
C      1  0.4253200000000  0.4731650000000  0.4677380000000 1.0
C      1  0.5657910000000  0.5189240000000  0.5566110000000 1.0
C      1  0.5168440000000  0.4364430000000  0.4429980000000 1.0
C      1  0.4342190000000  0.4810860000000  0.5566260000000 1.0
C      1  0.4831460000000  0.5635470000000  0.4429890000000 1.0
C      1  0.4167420000000  0.5081580000000  0.5453930000000 1.0
C      1  0.5087370000000  0.5826830000000  0.4553970000000 1.0
C      1  0.5832660000000  0.4918500000000  0.5453800000000 1.0
C      1  0.4912550000000  0.4173090000000  0.4554130000000 1.0
C      1  0.4601500000000  0.5036350000000  0.4228800000000 1.0
C      1  0.5042050000000  0.5389310000000  0.5749640000000 1.0
C      1  0.5398360000000  0.4963510000000  0.4228740000000 1.0
C      1  0.4958080000000  0.4610820000000  0.5749720000000 1.0
C      1  0.5710830000000  0.4449830000000  0.5224910000000 1.0
C      1  0.4424370000000  0.4280500000000  0.4793640000000 1.0
C      1  0.4289210000000  0.5550210000000  0.5224940000000 1.0
C      1  0.5575590000000  0.5719460000000  0.4793410000000 1.0
C      1  0.4536280000000  0.4166530000000  0.5038500000000 1.0
C      1  0.4143540000000  0.5464200000000  0.4983750000000 1.0
C      1  0.5463720000000  0.5833470000000  0.5038270000000 1.0
C      1  0.5856460000000  0.4535790000000  0.4983680000000 1.0
C      1  0.5492440000000  0.4637210000000  0.5651380000000 1.0
C      1  0.4632620000000  0.4520500000000  0.4403450000000 1.0
C      1  0.4507670000000  0.5362910000000  0.5651400000000 1.0
C      1  0.5367270000000  0.5479390000000  0.4403300000000 1.0
C      1  0.5372950000000  0.5351280000000  0.5171020000000 1.0
C      1  0.5388880000000  0.4608620000000  0.4865160000000 1.0
C      1  0.4627080000000  0.4648750000000  0.5171150000000 1.0
C      1  0.4611100000000  0.5391360000000  0.4865160000000 1.0
C      1  0.4184350000000  0.5045820000000  0.4651250000000 1.0
C      1  0.5055020000000  0.5786010000000  0.5332530000000 1.0
C      1  0.5815590000000  0.4954120000000  0.4651110000000 1.0
C      1  0.4945030000000  0.4214040000000  0.5332680000000 1.0
C      1  0.5098180000000  0.5587900000000  0.4874120000000 1.0
C      1  0.5628140000000  0.4930390000000  0.5111630000000 1.0
C      1  0.4901800000000  0.4412080000000  0.4874240000000 1.0
C      1  0.4371880000000  0.5069630000000  0.5111730000000 1.0
C      1  0.5665770000000  0.4523900000000  0.4754320000000 1.0
C      1  0.4552030000000  0.4359470000000  0.5270580000000 1.0
C      1  0.4334190000000  0.5476050000000  0.4754350000000 1.0
C      1  0.5448010000000  0.5640580000000  0.5270390000000 1.0
C      1  0.5341150000000  0.4540980000000  0.5386020000000 1.0
C      1  0.4567030000000  0.4716600000000  0.4635100000000 1.0
C      1  0.4658920000000  0.5459090000000  0.5386000000000 1.0
C      1  0.5432900000000  0.5283340000000  0.4634980000000 1.0
C      1  0.5314320000000  0.5558710000000  0.5732570000000 1.0
C      1  0.5557890000000  0.4680180000000  0.4300780000000 1.0
C      1  0.4685810000000  0.4441420000000  0.5732730000000 1.0
C      1  0.4441990000000  0.5319700000000  0.4300820000000 1.0
C      1  0.5152790000000  0.5078740000000  0.5805000000000 1.0
C      1  0.5088170000000  0.4853870000000  0.4160430000000 1.0
C      1  0.4847350000000  0.4921400000000  0.5805040000000 1.0
C      1  0.4911680000000  0.5145980000000  0.4160420000000 1.0
C      1  0.5720810000000  0.4654800000000  0.5449390000000 1.0
C      1  0.4641150000000  0.4273340000000  0.4560530000000 1.0
C      1  0.4279270000000  0.5345280000000  0.5449450000000 1.0
C      1  0.5358770000000  0.5726580000000  0.4560330000000 1.0
C      1  0.4514390000000  0.5742170000000  0.5143730000000 1.0
C      1  0.5786630000000  0.5492570000000  0.4857910000000 1.0
C      1  0.5485640000000  0.4257860000000  0.5143780000000 1.0
C      1  0.4213340000000  0.4507400000000  0.4858140000000 1.0
C      1  0.5966110000000  0.5223990000000  0.5405940000000 1.0
C      1  0.5227710000000  0.4069260000000  0.4607750000000 1.0
C      1  0.4033970000000  0.4776080000000  0.5406150000000 1.0
C      1  0.4772220000000  0.5930670000000  0.4607630000000 1.0
C      1  0.4974520000000  0.5473340000000  0.5439550000000 1.0
C      1  0.5494320000000  0.4991630000000  0.4542790000000 1.0
C      1  0.5025550000000  0.4526740000000  0.5439630000000 1.0
C      1  0.4505600000000  0.5008290000000  0.4542870000000 1.0
C      1  0.4830430000000  0.5103000000000  0.5341120000000 1.0
C      1  0.4980160000000  0.5145380000000  0.4553070000000 1.0
C      1  0.5169630000000  0.4897060000000  0.5341110000000 1.0
C      1  0.5019760000000  0.4854540000000  0.4553090000000 1.0
C      1  0.4384510000000  0.4802240000000  0.5231240000000 1.0
C      1  0.4837670000000  0.5572930000000  0.4754680000000 1.0
C      1  0.5615530000000  0.5197800000000  0.5231100000000 1.0
C      1  0.5162290000000  0.4427030000000  0.4754760000000 1.0
C      1  0.5732500000000  0.4671830000000  0.4515830000000 1.0
C      1  0.4679230000000  0.4266170000000  0.5519370000000 1.0
C      1  0.4267420000000  0.5328080000000  0.4515900000000 1.0
C      1  0.5320860000000  0.5733920000000  0.5519190000000 1.0
C      1  0.5200850000000  0.5223750000000  0.4314680000000 1.0
C      1  0.5210580000000  0.4808550000000  0.5652470000000 1.0
C      1  0.4799030000000  0.4776130000000  0.4314750000000 1.0
C      1  0.4789540000000  0.5191570000000  0.5652470000000 1.0
C      1  0.5279970000000  0.4792200000000  0.4642050000000 1.0
C      1  0.4860100000000  0.4771620000000  0.5306750000000 1.0
C      1  0.4719970000000  0.5207740000000  0.4642070000000 1.0
C      1  0.5139960000000  0.5228440000000  0.5306690000000 1.0
END
