TITL C-2782240-8521-126 -0.00167530684634094 125000 -1034.35854437604 0 0 174 (C1) n - 1
REM
REM in /home/nfs/bkarasulu/CARBON/AIRSS/Generating-Clusters/REBO/Higher-Symm/SD-CG/HFTN-CG
REM
REM
REM
REM
REM
REM ./C.cell (12c818d87b63d06a65506943cc24bca4)
REM
REM compiler GCC version 9.2.1 20190827 (Red Hat 9.2.1-1)
REM options -cpp -mtune=generic -march=x86-64 -g -O0 -fpre-include=/usr/include/finclude/math-vector-fortran.h
REM seed -1549845139 142715698 391433435 1370428503 1055258758 -1376935975 -1762753306 592625836 -806535891 -1680046704 -1485828549 -848888466 1109835800 -1004540239 302719263 2109612243 299949470 -1086822151 1818094992 -348023499 -1871129727 492735102 2037013385 1491358358 136401390 765382106 -101784176 -833557366 -1452880175 678411069 2022664067 -175711106 495217823
REM
CELL 1.54180   50.00000   50.00000   50.00000   90.00000   90.00000   90.00000
LATT -1
SFAC C  
C      1  0.4347600000000  0.5853280000000  0.4908470000000 1.0
C      1  0.4351420000000  0.5505570000000  0.5692490000000 1.0
C      1  0.4359080000000  0.4659450000000  0.5782170000000 1.0
C      1  0.4361930000000  0.4146000000000  0.5115000000000 1.0
C      1  0.4366440000000  0.4488190000000  0.4332590000000 1.0
C      1  0.4352730000000  0.5340470000000  0.4221570000000 1.0
C      1  0.5633620000000  0.4156720000000  0.4893390000000 1.0
C      1  0.5645000000000  0.4472890000000  0.5670690000000 1.0
C      1  0.5654710000000  0.5315630000000  0.5771660000000 1.0
C      1  0.5662600000000  0.5828860000000  0.5100100000000 1.0
C      1  0.5661160000000  0.5493570000000  0.4302660000000 1.0
C      1  0.5632440000000  0.4651980000000  0.4210620000000 1.0
C      1  0.6003770000000  0.4557030000000  0.4714740000000 1.0
C      1  0.6006940000000  0.5005480000000  0.4421410000000 1.0
C      1  0.6018930000000  0.5459240000000  0.4738240000000 1.0
C      1  0.6006410000000  0.5434040000000  0.5256990000000 1.0
C      1  0.5964170000000  0.4984850000000  0.5485020000000 1.0
C      1  0.5986730000000  0.4553000000000  0.5224030000000 1.0
C      1  0.3994650000000  0.5487180000000  0.4694060000000 1.0
C      1  0.4006770000000  0.4976140000000  0.4475340000000 1.0
C      1  0.4018810000000  0.4532210000000  0.4759040000000 1.0
C      1  0.3999330000000  0.4507610000000  0.5314710000000 1.0
C      1  0.3996380000000  0.5017600000000  0.5531650000000 1.0
C      1  0.3996140000000  0.5461920000000  0.5251400000000 1.0
C      1  0.4111340000000  0.5275160000000  0.4452020000000 1.0
C      1  0.4110780000000  0.5622870000000  0.4973860000000 1.0
C      1  0.4119570000000  0.5334290000000  0.5511660000000 1.0
C      1  0.4113260000000  0.4723330000000  0.5554790000000 1.0
C      1  0.4129290000000  0.4375140000000  0.5040130000000 1.0
C      1  0.4136210000000  0.4662280000000  0.4500490000000 1.0
C      1  0.5886960000000  0.4704650000000  0.4430650000000 1.0
C      1  0.5864900000000  0.4399520000000  0.4951420000000 1.0
C      1  0.5854240000000  0.4663010000000  0.5481620000000 1.0
C      1  0.5859720000000  0.5288820000000  0.5509700000000 1.0
C      1  0.5892750000000  0.5602680000000  0.5019930000000 1.0
C      1  0.5902080000000  0.5326390000000  0.4476590000000 1.0
C      1  0.4254450000000  0.4785000000000  0.5186330000000 1.0
C      1  0.4339430000000  0.4728460000000  0.4895620000000 1.0
C      1  0.4333930000000  0.4930960000000  0.4723870000000 1.0
C      1  0.4254770000000  0.5213980000000  0.4819350000000 1.0
C      1  0.4331610000000  0.5271130000000  0.5112210000000 1.0
C      1  0.4327500000000  0.5067830000000  0.5282590000000 1.0
C      1  0.5634260000000  0.5228990000000  0.5181810000000 1.0
C      1  0.5669920000000  0.5276490000000  0.4920660000000 1.0
C      1  0.5750830000000  0.5053020000000  0.4724850000000 1.0
C      1  0.5659130000000  0.4778070000000  0.4825270000000 1.0
C      1  0.5640040000000  0.4734520000000  0.5088160000000 1.0
C      1  0.5657530000000  0.4950600000000  0.5286070000000 1.0
C      1  0.4768520000000  0.4388150000000  0.4082570000000 1.0
C      1  0.4770950000000  0.5474570000000  0.4009830000000 1.0
C      1  0.4789100000000  0.6074610000000  0.4949590000000 1.0
C      1  0.4771060000000  0.5618990000000  0.5917370000000 1.0
C      1  0.4760890000000  0.4508580000000  0.5997820000000 1.0
C      1  0.4774500000000  0.3903780000000  0.5081470000000 1.0
C      1  0.5234950000000  0.5615290000000  0.4091590000000 1.0
C      1  0.5227000000000  0.4518710000000  0.3995190000000 1.0
C      1  0.5229410000000  0.3898910000000  0.4921540000000 1.0
C      1  0.5226180000000  0.4380390000000  0.5904340000000 1.0
C      1  0.5240750000000  0.5483830000000  0.5987190000000 1.0
C      1  0.5238260000000  0.6072130000000  0.5035700000000 1.0
C      1  0.4899740000000  0.4871370000000  0.4240120000000 1.0
C      1  0.4894040000000  0.5586610000000  0.4505350000000 1.0
C      1  0.4865390000000  0.5734470000000  0.5306370000000 1.0
C      1  0.4890200000000  0.5134640000000  0.5770820000000 1.0
C      1  0.4884400000000  0.4413740000000  0.5493240000000 1.0
C      1  0.4894400000000  0.4274810000000  0.4731140000000 1.0
C      1  0.5116280000000  0.5136070000000  0.4243730000000 1.0
C      1  0.5106850000000  0.4414860000000  0.4501980000000 1.0
C      1  0.5107030000000  0.4282220000000  0.5266200000000 1.0
C      1  0.5099030000000  0.4863760000000  0.5775030000000 1.0
C      1  0.5106810000000  0.5586620000000  0.5498820000000 1.0
C      1  0.5140760000000  0.5736350000000  0.4689320000000 1.0
C      1  0.4375530000000  0.5434990000000  0.4605600000000 1.0
C      1  0.4372740000000  0.5573370000000  0.5187400000000 1.0
C      1  0.4376360000000  0.5123970000000  0.5588860000000 1.0
C      1  0.4379440000000  0.4571430000000  0.5396700000000 1.0
C      1  0.4395400000000  0.4423930000000  0.4834080000000 1.0
C      1  0.4388220000000  0.4875070000000  0.4416980000000 1.0
C      1  0.5623660000000  0.4569090000000  0.4597780000000 1.0
C      1  0.5608440000000  0.4435270000000  0.5173870000000 1.0
C      1  0.5600760000000  0.4858870000000  0.5594370000000 1.0
C      1  0.5585430000000  0.5451980000000  0.5405910000000 1.0
C      1  0.5640550000000  0.5568410000000  0.4801520000000 1.0
C      1  0.5630470000000  0.5118810000000  0.4426540000000 1.0
C      1  0.4523860000000  0.5471110000000  0.3998110000000 1.0
C      1  0.4543160000000  0.6096070000000  0.4931220000000 1.0
C      1  0.4524200000000  0.5633890000000  0.5916060000000 1.0
C      1  0.4513440000000  0.4523280000000  0.6011640000000 1.0
C      1  0.4528170000000  0.3898930000000  0.5101360000000 1.0
C      1  0.4521750000000  0.4370200000000  0.4091710000000 1.0
C      1  0.5474620000000  0.4527470000000  0.3978090000000 1.0
C      1  0.5476090000000  0.3891290000000  0.4898410000000 1.0
C      1  0.5472120000000  0.4369180000000  0.5891280000000 1.0
C      1  0.5487600000000  0.5476090000000  0.5981880000000 1.0
C      1  0.5487080000000  0.6086520000000  0.5041680000000 1.0
C      1  0.5481950000000  0.5623100000000  0.4084860000000 1.0
C      1  0.4260500000000  0.4043560000000  0.4541770000000 1.0
C      1  0.4195080000000  0.4938530000000  0.3963210000000 1.0
C      1  0.4217000000000  0.5871420000000  0.4423710000000 1.0
C      1  0.4176550000000  0.5927090000000  0.5479710000000 1.0
C      1  0.4179710000000  0.5052480000000  0.6040660000000 1.0
C      1  0.4237330000000  0.4138980000000  0.5598500000000 1.0
C      1  0.5850640000000  0.5912490000000  0.4508940000000 1.0
C      1  0.5794760000000  0.5055810000000  0.3957470000000 1.0
C      1  0.5785210000000  0.4133440000000  0.4413860000000 1.0
C      1  0.5769760000000  0.4048490000000  0.5439910000000 1.0
C      1  0.5743280000000  0.4919680000000  0.6068900000000 1.0
C      1  0.5651080000000  0.5909050000000  0.5594930000000 1.0
C      1  0.5379210000000  0.5310790000000  0.4371970000000 1.0
C      1  0.5386680000000  0.5718350000000  0.4923440000000 1.0
C      1  0.5353210000000  0.5383300000000  0.5616810000000 1.0
C      1  0.5342350000000  0.4675160000000  0.5632570000000 1.0
C      1  0.5353970000000  0.4297590000000  0.5031960000000 1.0
C      1  0.5361890000000  0.4623180000000  0.4416150000000 1.0
C      1  0.4645140000000  0.4684900000000  0.4367250000000 1.0
C      1  0.4657350000000  0.4304730000000  0.4969370000000 1.0
C      1  0.4635890000000  0.4628850000000  0.5583890000000 1.0
C      1  0.4630940000000  0.5313670000000  0.5642300000000 1.0
C      1  0.4625720000000  0.5728370000000  0.5065090000000 1.0
C      1  0.4634410000000  0.5387950000000  0.4409680000000 1.0
C      1  0.5673350000000  0.5018090000000  0.5835350000000 1.0
C      1  0.5683690000000  0.4297560000000  0.5427020000000 1.0
C      1  0.5689820000000  0.4275300000000  0.4614340000000 1.0
C      1  0.5697060000000  0.4953460000000  0.4180220000000 1.0
C      1  0.5728880000000  0.5680900000000  0.4539270000000 1.0
C      1  0.5634460000000  0.5745520000000  0.5389730000000 1.0
C      1  0.4294260000000  0.4958310000000  0.5823010000000 1.0
C      1  0.4290000000000  0.5690740000000  0.5452350000000 1.0
C      1  0.4306170000000  0.5729390000000  0.4627540000000 1.0
C      1  0.4302500000000  0.5038000000000  0.4182300000000 1.0
C      1  0.4334180000000  0.4294950000000  0.4570200000000 1.0
C      1  0.4317980000000  0.4275680000000  0.5387310000000 1.0
C      1  0.4836930000000  0.5061040000000  0.4707500000000 1.0
C      1  0.4848290000000  0.5307880000000  0.4896290000000 1.0
C      1  0.4853540000000  0.5242740000000  0.5199860000000 1.0
C      1  0.4867600000000  0.4949990000000  0.5297200000000 1.0
C      1  0.4797210000000  0.4731020000000  0.5121040000000 1.0
C      1  0.4819270000000  0.4775250000000  0.4822700000000 1.0
C      1  0.5155250000000  0.4959770000000  0.4714640000000 1.0
C      1  0.5136000000000  0.4721290000000  0.4909270000000 1.0
C      1  0.5204450000000  0.4764880000000  0.5187750000000 1.0
C      1  0.5186440000000  0.5048590000000  0.5299930000000 1.0
C      1  0.5176310000000  0.5305910000000  0.5121910000000 1.0
C      1  0.5170840000000  0.5248960000000  0.4816390000000 1.0
C      1  0.3914460000000  0.5215950000000  0.4853150000000 1.0
C      1  0.3831710000000  0.5251880000000  0.5136890000000 1.0
C      1  0.3820320000000  0.5019430000000  0.5292780000000 1.0
C      1  0.3914940000000  0.4774300000000  0.5152040000000 1.0
C      1  0.3840710000000  0.4735440000000  0.4866920000000 1.0
C      1  0.3826100000000  0.4968050000000  0.4711290000000 1.0
C      1  0.6169810000000  0.4761220000000  0.4840990000000 1.0
C      1  0.6179970000000  0.4746300000000  0.5123990000000 1.0
C      1  0.6185980000000  0.4990250000000  0.5275240000000 1.0
C      1  0.6202220000000  0.5249690000000  0.5150510000000 1.0
C      1  0.6209690000000  0.5264220000000  0.4865950000000 1.0
C      1  0.6090820000000  0.5025150000000  0.4730050000000 1.0
C      1  0.4750630000000  0.5442250000000  0.5391230000000 1.0
C      1  0.4761630000000  0.4907340000000  0.5569960000000 1.0
C      1  0.4763710000000  0.4473290000000  0.5195440000000 1.0
C      1  0.4755920000000  0.4558650000000  0.4627150000000 1.0
C      1  0.4761200000000  0.5108580000000  0.4425410000000 1.0
C      1  0.4797560000000  0.5596030000000  0.4831260000000 1.0
C      1  0.5232420000000  0.4567170000000  0.5371500000000 1.0
C      1  0.5244060000000  0.5097400000000  0.5589930000000 1.0
C      1  0.5217440000000  0.5601630000000  0.5177100000000 1.0
C      1  0.5263170000000  0.5445990000000  0.4618370000000 1.0
C      1  0.5244850000000  0.4904010000000  0.4438650000000 1.0
C      1  0.5235350000000  0.4463890000000  0.4802620000000 1.0
C      1  0.5002070000000  0.5451230000000  0.4213750000000 1.0
C      1  0.5001800000000  0.4549810000000  0.4208060000000 1.0
C      1  0.5003000000000  0.4097000000000  0.5000220000000 1.0
C      1  0.5008820000000  0.5822930000000  0.5000620000000 1.0
C      1  0.4989170000000  0.4542290000000  0.5790270000000 1.0
C      1  0.5001540000000  0.5453680000000  0.5793580000000 1.0
END
