TITL C-2782226-7400-1457 0.00726341460050589 125000 -850.943017410217 0 0 142 (C1) n - 1
REM
REM in /home/nfs/bkarasulu/CARBON/AIRSS/Generating-Clusters/REBO/Higher-Symm/SD-CG/HFTN-CG
REM
REM
REM
REM
REM
REM ./C.cell (12c818d87b63d06a65506943cc24bca4)
REM
REM compiler GCC version 9.2.1 20190827 (Red Hat 9.2.1-1)
REM options -cpp -mtune=generic -march=x86-64 -g -O0 -fpre-include=/usr/include/finclude/math-vector-fortran.h
REM seed -1008412954 -673112537 205251900 931968163 -284974223 200095248 1728829802 -80913981 -1886542950 1286753469 -1684903500 -930240990 86662347 1104449859 -2069590862 1590543082 -931810653 975695899 1552086025 1881339408 -1721936673 1028564632 -683672867 524127252 333521739 -78942530 -749040123 -153111367 2029244104 1215776363 -68895601 -1346260346 492437292
REM
CELL 1.54180   50.00000   50.00000   50.00000   90.00000   90.00000   90.00000
LATT -1
SFAC C  
C      1  0.5098590000000  0.4141390000000  0.4195130000000 1.0
C      1  0.5008460000000  0.6005860000000  0.4893170000000 1.0
C      1  0.5141330000000  0.4681170000000  0.6074550000000 1.0
C      1  0.4934320000000  0.5827510000000  0.4184300000000 1.0
C      1  0.4962700000000  0.3998520000000  0.4881430000000 1.0
C      1  0.4942920000000  0.5366160000000  0.6128700000000 1.0
C      1  0.5797310000000  0.4784480000000  0.4608790000000 1.0
C      1  0.5779660000000  0.5385580000000  0.5047200000000 1.0
C      1  0.5700600000000  0.4728220000000  0.5276720000000 1.0
C      1  0.4202740000000  0.5204370000000  0.4606920000000 1.0
C      1  0.4210600000000  0.4560360000000  0.4988650000000 1.0
C      1  0.4266850000000  0.5233640000000  0.5324550000000 1.0
C      1  0.4979930000000  0.4544100000000  0.5869370000000 1.0
C      1  0.4958170000000  0.4394180000000  0.4128130000000 1.0
C      1  0.4843220000000  0.6255850000000  0.4992910000000 1.0
C      1  0.5032560000000  0.5556290000000  0.5919710000000 1.0
C      1  0.5051930000000  0.5558300000000  0.4166810000000 1.0
C      1  0.5145890000000  0.3790340000000  0.5018450000000 1.0
C      1  0.4427200000000  0.4057100000000  0.4985010000000 1.0
C      1  0.4448330000000  0.5447210000000  0.4207640000000 1.0
C      1  0.4516720000000  0.5481710000000  0.5778650000000 1.0
C      1  0.5526490000000  0.5949480000000  0.5029560000000 1.0
C      1  0.5599960000000  0.4524920000000  0.4239500000000 1.0
C      1  0.5612870000000  0.4549750000000  0.5791150000000 1.0
C      1  0.5751220000000  0.5208730000000  0.4386600000000 1.0
C      1  0.5749970000000  0.5336220000000  0.5529270000000 1.0
C      1  0.5641840000000  0.4272440000000  0.5070110000000 1.0
C      1  0.4296200000000  0.4821810000000  0.4337920000000 1.0
C      1  0.4244840000000  0.4553640000000  0.5469760000000 1.0
C      1  0.4293780000000  0.5672190000000  0.5125800000000 1.0
C      1  0.4937430000000  0.5456330000000  0.5624960000000 1.0
C      1  0.4979520000000  0.4270990000000  0.5027290000000 1.0
C      1  0.4958740000000  0.5317680000000  0.4391230000000 1.0
C      1  0.4992280000000  0.4630180000000  0.5558090000000 1.0
C      1  0.5042300000000  0.5789320000000  0.5062110000000 1.0
C      1  0.5009160000000  0.4666780000000  0.4327290000000 1.0
C      1  0.4451590000000  0.5608990000000  0.4439470000000 1.0
C      1  0.4519620000000  0.5202330000000  0.5786070000000 1.0
C      1  0.4470320000000  0.4193990000000  0.4745960000000 1.0
C      1  0.5559740000000  0.4301640000000  0.4382350000000 1.0
C      1  0.5578740000000  0.4823710000000  0.5745220000000 1.0
C      1  0.5512520000000  0.5794540000000  0.4799860000000 1.0
C      1  0.4367060000000  0.5067240000000  0.5548050000000 1.0
C      1  0.4325720000000  0.4468660000000  0.4733010000000 1.0
C      1  0.4267150000000  0.5485980000000  0.4657200000000 1.0
C      1  0.5588820000000  0.4901350000000  0.5475500000000 1.0
C      1  0.5678490000000  0.5523110000000  0.4804230000000 1.0
C      1  0.5690400000000  0.4537460000000  0.4676140000000 1.0
C      1  0.4927890000000  0.5094880000000  0.6048210000000 1.0
C      1  0.4906180000000  0.4035480000000  0.4608030000000 1.0
C      1  0.4862100000000  0.5911730000000  0.4442960000000 1.0
C      1  0.5173140000000  0.4949340000000  0.6054620000000 1.0
C      1  0.5082090000000  0.5948080000000  0.4623020000000 1.0
C      1  0.5138230000000  0.4053320000000  0.4449100000000 1.0
C      1  0.5388370000000  0.4140660000000  0.4608700000000 1.0
C      1  0.5316810000000  0.5789050000000  0.4593780000000 1.0
C      1  0.5417400000000  0.5046370000000  0.5914780000000 1.0
C      1  0.4623430000000  0.5803460000000  0.4560330000000 1.0
C      1  0.4677440000000  0.4193750000000  0.4552590000000 1.0
C      1  0.4708280000000  0.5009350000000  0.5887360000000 1.0
C      1  0.4351780000000  0.4576610000000  0.4432210000000 1.0
C      1  0.4167700000000  0.5680390000000  0.4885110000000 1.0
C      1  0.4349570000000  0.4755300000000  0.5613140000000 1.0
C      1  0.5660240000000  0.5437290000000  0.4496780000000 1.0
C      1  0.5657280000000  0.4257410000000  0.4783480000000 1.0
C      1  0.5687330000000  0.5206650000000  0.5780840000000 1.0
C      1  0.4120240000000  0.5101730000000  0.5130510000000 1.0
C      1  0.4085560000000  0.4807740000000  0.4993260000000 1.0
C      1  0.4070600000000  0.5073390000000  0.4813240000000 1.0
C      1  0.5895080000000  0.4845420000000  0.5112170000000 1.0
C      1  0.5924340000000  0.5151000000000  0.5009100000000 1.0
C      1  0.5970240000000  0.4900800000000  0.4804490000000 1.0
C      1  0.5290160000000  0.4063480000000  0.5169250000000 1.0
C      1  0.5288740000000  0.5311510000000  0.4167340000000 1.0
C      1  0.5307360000000  0.5556270000000  0.5723430000000 1.0
C      1  0.4663060000000  0.5984650000000  0.5093100000000 1.0
C      1  0.4707410000000  0.4624310000000  0.4074900000000 1.0
C      1  0.4719200000000  0.4388110000000  0.5719490000000 1.0
C      1  0.4472740000000  0.4068530000000  0.5258180000000 1.0
C      1  0.4467750000000  0.5200260000000  0.4075180000000 1.0
C      1  0.4562120000000  0.5719340000000  0.5646810000000 1.0
C      1  0.5444970000000  0.5979610000000  0.5287730000000 1.0
C      1  0.5543080000000  0.4762340000000  0.4110410000000 1.0
C      1  0.5534940000000  0.4309510000000  0.5676820000000 1.0
C      1  0.5202760000000  0.4809110000000  0.5436780000000 1.0
C      1  0.5228480000000  0.4674180000000  0.4535600000000 1.0
C      1  0.5240250000000  0.5577550000000  0.4996580000000 1.0
C      1  0.4798770000000  0.5212740000000  0.5500740000000 1.0
C      1  0.4783480000000  0.5363630000000  0.4646080000000 1.0
C      1  0.4822350000000  0.4544050000000  0.4964640000000 1.0
C      1  0.4558850000000  0.4879260000000  0.4023160000000 1.0
C      1  0.4605670000000  0.5910800000000  0.5387850000000 1.0
C      1  0.4576820000000  0.4210660000000  0.5533050000000 1.0
C      1  0.5440540000000  0.5071300000000  0.4084660000000 1.0
C      1  0.5429240000000  0.4141340000000  0.5419120000000 1.0
C      1  0.5366230000000  0.5847280000000  0.5578740000000 1.0
C      1  0.5537690000000  0.4495010000000  0.5219100000000 1.0
C      1  0.5634000000000  0.4963840000000  0.4458520000000 1.0
C      1  0.5622130000000  0.5414200000000  0.5287150000000 1.0
C      1  0.4428310000000  0.5464410000000  0.5260280000000 1.0
C      1  0.4392230000000  0.5059570000000  0.4451560000000 1.0
C      1  0.4352460000000  0.4475020000000  0.5220890000000 1.0
C      1  0.4652250000000  0.4469080000000  0.4372410000000 1.0
C      1  0.4603290000000  0.5810690000000  0.4866910000000 1.0
C      1  0.4656380000000  0.4722470000000  0.5717120000000 1.0
C      1  0.5353410000000  0.5509210000000  0.4423970000000 1.0
C      1  0.5278320000000  0.4267550000000  0.4904690000000 1.0
C      1  0.5379040000000  0.5276230000000  0.5664650000000 1.0
C      1  0.4744590000000  0.5124710000000  0.3942790000000 1.0
C      1  0.4818330000000  0.5910200000000  0.5623050000000 1.0
C      1  0.4762720000000  0.4004350000000  0.5372940000000 1.0
C      1  0.5284480000000  0.4832480000000  0.3931240000000 1.0
C      1  0.5254460000000  0.4149370000000  0.5691860000000 1.0
C      1  0.5153930000000  0.6040550000000  0.5395330000000 1.0
C      1  0.5268090000000  0.4534290000000  0.5291290000000 1.0
C      1  0.5332590000000  0.4971010000000  0.4533810000000 1.0
C      1  0.5348860000000  0.5490960000000  0.5264250000000 1.0
C      1  0.4706090000000  0.5449320000000  0.5309440000000 1.0
C      1  0.4698860000000  0.5059150000000  0.4546570000000 1.0
C      1  0.4628600000000  0.4435870000000  0.5206930000000 1.0
C      1  0.4663610000000  0.4937000000000  0.5448390000000 1.0
C      1  0.4647020000000  0.4575300000000  0.4698970000000 1.0
C      1  0.4547440000000  0.5506350000000  0.4817070000000 1.0
C      1  0.5340200000000  0.5099730000000  0.5401220000000 1.0
C      1  0.5358370000000  0.5426760000000  0.4756820000000 1.0
C      1  0.5375800000000  0.4539330000000  0.4774990000000 1.0
C      1  0.4707890000000  0.4944320000000  0.5137840000000 1.0
C      1  0.4665760000000  0.4874830000000  0.4805730000000 1.0
C      1  0.4655540000000  0.5199150000000  0.4917840000000 1.0
C      1  0.5212700000000  0.5050040000000  0.5118680000000 1.0
C      1  0.5319440000000  0.5132810000000  0.4806040000000 1.0
C      1  0.5284580000000  0.4805600000000  0.4906040000000 1.0
C      1  0.5012810000000  0.4229770000000  0.5792800000000 1.0
C      1  0.5035070000000  0.4692640000000  0.3992150000000 1.0
C      1  0.4930350000000  0.6111210000000  0.5271020000000 1.0
C      1  0.5070550000000  0.5819040000000  0.5727300000000 1.0
C      1  0.4972020000000  0.5253810000000  0.4054490000000 1.0
C      1  0.4997760000000  0.3926390000000  0.5272450000000 1.0
C      1  0.5023040000000  0.5580010000000  0.5329640000000 1.0
C      1  0.4948190000000  0.4415570000000  0.5321360000000 1.0
C      1  0.5008780000000  0.4986080000000  0.4423060000000 1.0
C      1  0.4984550000000  0.4802870000000  0.5050440000000 1.0
END
