TITL C-2782238-9940-71 0.000146129162500647 125000 -418.25866507134 0 0 74 (C1) n - 1
REM
REM in /home/nfs/bkarasulu/CARBON/AIRSS/Generating-Clusters/REBO/Higher-Symm/SD-CG/HFTN-CG
REM
REM
REM
REM
REM
REM ./C.cell (12c818d87b63d06a65506943cc24bca4)
REM
REM compiler GCC version 9.2.1 20190827 (Red Hat 9.2.1-1)
REM options -cpp -mtune=generic -march=x86-64 -g -O0 -fpre-include=/usr/include/finclude/math-vector-fortran.h
REM seed 123281585 2028222332 1951876933 1768866580 -1642891351 -1968482076 -825155127 -550682018 145945191 471176233 717308527 1320799239 506202280 39378006 2145345405 -2053477691 1361994066 835800929 -1784918080 -1010833853 1498536400 -147875074 -1811520276 -541909698 1151036523 -332424753 881075604 1893415807 2073270010 -921006688 -1322112564 1361220067 803413881
REM
CELL 1.54180   50.00000   50.00000   50.00000   90.00000   90.00000   90.00000
LATT -1
SFAC C  
C      1  0.5225220000000  0.5033870000000  0.5946110000000 1.0
C      1  0.5236260000000  0.4415650000000  0.5691340000000 1.0
C      1  0.4697020000000  0.5060290000000  0.5944880000000 1.0
C      1  0.4762600000000  0.5454770000000  0.5947800000000 1.0
C      1  0.5101750000000  0.5363140000000  0.5756950000000 1.0
C      1  0.4938300000000  0.5388200000000  0.5480640000000 1.0
C      1  0.5468250000000  0.5280660000000  0.5477660000000 1.0
C      1  0.5344920000000  0.4675040000000  0.5563450000000 1.0
C      1  0.4837810000000  0.4402160000000  0.5420490000000 1.0
C      1  0.4601480000000  0.4913370000000  0.5452720000000 1.0
C      1  0.4706670000000  0.5021700000000  0.4066790000000 1.0
C      1  0.4915250000000  0.5276480000000  0.4059580000000 1.0
C      1  0.5222100000000  0.5158570000000  0.4073530000000 1.0
C      1  0.5205020000000  0.4831490000000  0.4094130000000 1.0
C      1  0.4886930000000  0.4749640000000  0.4096910000000 1.0
C      1  0.4922920000000  0.4502060000000  0.4544120000000 1.0
C      1  0.4430380000000  0.4879000000000  0.4531860000000 1.0
C      1  0.4661830000000  0.5520040000000  0.4445450000000 1.0
C      1  0.5350100000000  0.5444130000000  0.4482070000000 1.0
C      1  0.5534510000000  0.4813810000000  0.4506570000000 1.0
C      1  0.4341040000000  0.5116830000000  0.5228180000000 1.0
C      1  0.5017480000000  0.5672690000000  0.5213380000000 1.0
C      1  0.5737400000000  0.5216910000000  0.5191080000000 1.0
C      1  0.5444690000000  0.4413690000000  0.5277850000000 1.0
C      1  0.4617720000000  0.4335630000000  0.5082610000000 1.0
C      1  0.5676400000000  0.5031760000000  0.4718240000000 1.0
C      1  0.5121660000000  0.4552360000000  0.4811250000000 1.0
C      1  0.4374020000000  0.4583540000000  0.4692360000000 1.0
C      1  0.4427420000000  0.5450570000000  0.4675180000000 1.0
C      1  0.5154950000000  0.5522390000000  0.4750760000000 1.0
C      1  0.5333650000000  0.4894980000000  0.5776820000000 1.0
C      1  0.4974150000000  0.4350560000000  0.5649630000000 1.0
C      1  0.4591920000000  0.4975030000000  0.5740380000000 1.0
C      1  0.4739150000000  0.5521860000000  0.5705610000000 1.0
C      1  0.5370680000000  0.5366920000000  0.5723030000000 1.0
C      1  0.5418360000000  0.4865580000000  0.5076660000000 1.0
C      1  0.5010510000000  0.4534980000000  0.5085910000000 1.0
C      1  0.4722210000000  0.4792600000000  0.4988010000000 1.0
C      1  0.4682480000000  0.5295040000000  0.4941150000000 1.0
C      1  0.5310990000000  0.5397400000000  0.5002080000000 1.0
C      1  0.4430590000000  0.4810870000000  0.5173780000000 1.0
C      1  0.4747210000000  0.5466420000000  0.5222800000000 1.0
C      1  0.5524390000000  0.5480740000000  0.5241090000000 1.0
C      1  0.5602220000000  0.4698390000000  0.5341540000000 1.0
C      1  0.4927840000000  0.4221060000000  0.5164800000000 1.0
C      1  0.5458760000000  0.4988730000000  0.4240090000000 1.0
C      1  0.5103970000000  0.4584390000000  0.4290670000000 1.0
C      1  0.4587220000000  0.4772860000000  0.4247880000000 1.0
C      1  0.4619160000000  0.5303000000000  0.4210970000000 1.0
C      1  0.5147280000000  0.5442980000000  0.4232900000000 1.0
C      1  0.4424740000000  0.4527760000000  0.5011560000000 1.0
C      1  0.4449780000000  0.5337190000000  0.5262590000000 1.0
C      1  0.5262570000000  0.5697870000000  0.5258750000000 1.0
C      1  0.5770600000000  0.4970370000000  0.5233710000000 1.0
C      1  0.5260690000000  0.4257330000000  0.5225500000000 1.0
C      1  0.4704060000000  0.4647830000000  0.4752640000000 1.0
C      1  0.4462070000000  0.5124130000000  0.4767180000000 1.0
C      1  0.4828030000000  0.5452880000000  0.4735830000000 1.0
C      1  0.5484770000000  0.5300840000000  0.4761630000000 1.0
C      1  0.5399260000000  0.4746790000000  0.4812840000000 1.0
C      1  0.5313020000000  0.4574560000000  0.4529440000000 1.0
C      1  0.4605570000000  0.4531260000000  0.4449850000000 1.0
C      1  0.4417570000000  0.5205410000000  0.4437280000000 1.0
C      1  0.4981980000000  0.5591430000000  0.4463640000000 1.0
C      1  0.5571000000000  0.5204660000000  0.4442990000000 1.0
C      1  0.5110830000000  0.5275090000000  0.5219930000000 1.0
C      1  0.5401860000000  0.5043200000000  0.5366450000000 1.0
C      1  0.5187060000000  0.4726820000000  0.5286210000000 1.0
C      1  0.4789600000000  0.4691290000000  0.5300320000000 1.0
C      1  0.4735280000000  0.5069070000000  0.5181600000000 1.0
C      1  0.4968680000000  0.5209980000000  0.6019960000000 1.0
C      1  0.5041310000000  0.4981580000000  0.5135940000000 1.0
C      1  0.5054210000000  0.4947460000000  0.4827530000000 1.0
C      1  0.5064690000000  0.4919500000000  0.4574080000000 1.0
END
