TITL C-2782240-8521-849 -0.00135599398325904 125000 -894.900297252221 0 0 154 (C1) n - 1
REM
REM in /home/nfs/bkarasulu/CARBON/AIRSS/Generating-Clusters/REBO/Higher-Symm/SD-CG/HFTN-CG
REM
REM
REM
REM
REM
REM ./C.cell (12c818d87b63d06a65506943cc24bca4)
REM
REM compiler GCC version 9.2.1 20190827 (Red Hat 9.2.1-1)
REM options -cpp -mtune=generic -march=x86-64 -g -O0 -fpre-include=/usr/include/finclude/math-vector-fortran.h
REM seed -211025958 779755263 -2006172486 -1424349557 -488265530 -2108210902 36418350 1429684649 -147590537 2099666423 -442682328 -42773692 197525153 -1260881845 1123393932 811074998 -1375142836 1353513665 1229273745 -446021967 1212947777 878218781 -1492352410 -247955102 -1868998110 916837752 -2147150353 1982705418 76889228 -481443798 -1807958389 431459680 598398332
REM
CELL 1.54180   50.00000   50.00000   50.00000   90.00000   90.00000   90.00000
LATT -1
SFAC C  
C      1  0.4839440000000  0.5348800000000  0.5944960000000 1.0
C      1  0.5229170000000  0.5206490000000  0.5914280000000 1.0
C      1  0.5369300000000  0.4658550000000  0.5825370000000 1.0
C      1  0.5032100000000  0.4715150000000  0.5848150000000 1.0
C      1  0.4623150000000  0.5031320000000  0.5854730000000 1.0
C      1  0.4719250000000  0.4071460000000  0.5146130000000 1.0
C      1  0.3988750000000  0.4957900000000  0.5239040000000 1.0
C      1  0.4681070000000  0.5963000000000  0.5116460000000 1.0
C      1  0.5760170000000  0.5572250000000  0.5219590000000 1.0
C      1  0.5885360000000  0.4470350000000  0.5269040000000 1.0
C      1  0.4885850000000  0.5947370000000  0.4763860000000 1.0
C      1  0.5891170000000  0.5329440000000  0.4817760000000 1.0
C      1  0.5692640000000  0.4261690000000  0.4832530000000 1.0
C      1  0.4515470000000  0.4155350000000  0.4813390000000 1.0
C      1  0.4006150000000  0.5171830000000  0.4885960000000 1.0
C      1  0.4778480000000  0.4723170000000  0.5657230000000 1.0
C      1  0.4566330000000  0.5290740000000  0.5659990000000 1.0
C      1  0.5020440000000  0.5511040000000  0.5762950000000 1.0
C      1  0.5390870000000  0.5039400000000  0.5712960000000 1.0
C      1  0.5216920000000  0.4478180000000  0.5577220000000 1.0
C      1  0.5884460000000  0.4882060000000  0.5728050000000 1.0
C      1  0.5328330000000  0.4141480000000  0.5760880000000 1.0
C      1  0.4340010000000  0.4506580000000  0.5785790000000 1.0
C      1  0.4259180000000  0.5481780000000  0.5828300000000 1.0
C      1  0.5243670000000  0.5842880000000  0.5768400000000 1.0
C      1  0.4529700000000  0.5415370000000  0.5960240000000 1.0
C      1  0.5322420000000  0.5533500000000  0.5888630000000 1.0
C      1  0.5632540000000  0.4833440000000  0.5808820000000 1.0
C      1  0.5163760000000  0.4400450000000  0.5899120000000 1.0
C      1  0.4494020000000  0.4740600000000  0.5823380000000 1.0
C      1  0.5264610000000  0.4901010000000  0.4192010000000 1.0
C      1  0.5000190000000  0.4719300000000  0.4156400000000 1.0
C      1  0.4723120000000  0.4883870000000  0.4165020000000 1.0
C      1  0.4865040000000  0.5144270000000  0.4284520000000 1.0
C      1  0.5170380000000  0.5212950000000  0.4199130000000 1.0
C      1  0.4439490000000  0.5578580000000  0.4206370000000 1.0
C      1  0.5260840000000  0.5738440000000  0.4363280000000 1.0
C      1  0.5746330000000  0.5049150000000  0.4380630000000 1.0
C      1  0.4875410000000  0.4079720000000  0.4134510000000 1.0
C      1  0.4361460000000  0.4486800000000  0.4370040000000 1.0
C      1  0.5109190000000  0.4543950000000  0.4690140000000 1.0
C      1  0.4490840000000  0.4730390000000  0.4656360000000 1.0
C      1  0.4509170000000  0.5336820000000  0.4692930000000 1.0
C      1  0.5255960000000  0.5538520000000  0.4699850000000 1.0
C      1  0.5572540000000  0.4939900000000  0.4720060000000 1.0
C      1  0.4666250000000  0.5163740000000  0.5369040000000 1.0
C      1  0.4907920000000  0.5515030000000  0.5475030000000 1.0
C      1  0.5334370000000  0.5198030000000  0.5433160000000 1.0
C      1  0.5217070000000  0.4662930000000  0.5300650000000 1.0
C      1  0.4793840000000  0.4579080000000  0.5380570000000 1.0
C      1  0.4536570000000  0.5591010000000  0.5136700000000 1.0
C      1  0.5360680000000  0.5582250000000  0.5226840000000 1.0
C      1  0.5707390000000  0.4858040000000  0.5294950000000 1.0
C      1  0.5062100000000  0.4267350000000  0.5092070000000 1.0
C      1  0.4322740000000  0.4738430000000  0.5254830000000 1.0
C      1  0.5437900000000  0.4813920000000  0.5464010000000 1.0
C      1  0.4987880000000  0.4352120000000  0.5391590000000 1.0
C      1  0.4549090000000  0.4879070000000  0.5457670000000 1.0
C      1  0.4603860000000  0.5548710000000  0.5455900000000 1.0
C      1  0.5299750000000  0.5514740000000  0.5549220000000 1.0
C      1  0.5607210000000  0.4477910000000  0.4640640000000 1.0
C      1  0.4555940000000  0.4326750000000  0.4535200000000 1.0
C      1  0.4106140000000  0.5027090000000  0.4606410000000 1.0
C      1  0.4970720000000  0.5757450000000  0.4511450000000 1.0
C      1  0.5711680000000  0.5303970000000  0.4548290000000 1.0
C      1  0.5491710000000  0.4096220000000  0.4964290000000 1.0
C      1  0.4329360000000  0.4237350000000  0.5011970000000 1.0
C      1  0.4091350000000  0.5422140000000  0.5005070000000 1.0
C      1  0.5089030000000  0.5962860000000  0.4960830000000 1.0
C      1  0.6000880000000  0.5141240000000  0.5000620000000 1.0
C      1  0.5582210000000  0.4573540000000  0.5172500000000 1.0
C      1  0.4751110000000  0.4391300000000  0.5031690000000 1.0
C      1  0.4295290000000  0.5041140000000  0.5128880000000 1.0
C      1  0.4834100000000  0.5668170000000  0.5043770000000 1.0
C      1  0.5525800000000  0.5347480000000  0.5094700000000 1.0
C      1  0.4827080000000  0.4781740000000  0.3694290000000 1.0
C      1  0.4527870000000  0.5149170000000  0.3789720000000 1.0
C      1  0.4968140000000  0.5298050000000  0.3729050000000 1.0
C      1  0.5321280000000  0.5115210000000  0.3732590000000 1.0
C      1  0.5212150000000  0.4738030000000  0.3695200000000 1.0
C      1  0.4714380000000  0.6092780000000  0.5346120000000 1.0
C      1  0.5842040000000  0.5669460000000  0.5458460000000 1.0
C      1  0.5942840000000  0.4326260000000  0.5484940000000 1.0
C      1  0.4641790000000  0.3977850000000  0.5379750000000 1.0
C      1  0.3861140000000  0.5020560000000  0.5462590000000 1.0
C      1  0.5209660000000  0.5947620000000  0.5281620000000 1.0
C      1  0.5975880000000  0.5151280000000  0.5311830000000 1.0
C      1  0.5480190000000  0.4091230000000  0.5286840000000 1.0
C      1  0.4332270000000  0.4252980000000  0.5336630000000 1.0
C      1  0.4132380000000  0.5452550000000  0.5331160000000 1.0
C      1  0.4503300000000  0.4019920000000  0.5612580000000 1.0
C      1  0.3882820000000  0.5217040000000  0.5653270000000 1.0
C      1  0.4875190000000  0.6120120000000  0.5568650000000 1.0
C      1  0.5921340000000  0.5763620000000  0.5689820000000 1.0
C      1  0.5804160000000  0.4141370000000  0.5633420000000 1.0
C      1  0.4938440000000  0.5552680000000  0.4787100000000 1.0
C      1  0.5500770000000  0.5242920000000  0.4809850000000 1.0
C      1  0.5373310000000  0.4596940000000  0.4753760000000 1.0
C      1  0.4717110000000  0.4521010000000  0.4765070000000 1.0
C      1  0.4366430000000  0.5106010000000  0.4730060000000 1.0
C      1  0.5041960000000  0.5657120000000  0.5257020000000 1.0
C      1  0.5659010000000  0.5180390000000  0.5330830000000 1.0
C      1  0.5345080000000  0.4369190000000  0.5214590000000 1.0
C      1  0.4521050000000  0.4492320000000  0.5248560000000 1.0
C      1  0.4400860000000  0.5303200000000  0.5225220000000 1.0
C      1  0.5548050000000  0.5694150000000  0.4780250000000 1.0
C      1  0.5852700000000  0.4768270000000  0.4762620000000 1.0
C      1  0.5018520000000  0.4260810000000  0.4638670000000 1.0
C      1  0.4179580000000  0.4657700000000  0.4735520000000 1.0
C      1  0.4485320000000  0.5636190000000  0.4595980000000 1.0
C      1  0.4172660000000  0.4767760000000  0.4419850000000 1.0
C      1  0.4713810000000  0.5663590000000  0.4369440000000 1.0
C      1  0.5561190000000  0.5596270000000  0.4454790000000 1.0
C      1  0.5764660000000  0.4714660000000  0.4453660000000 1.0
C      1  0.4827850000000  0.4253190000000  0.4402740000000 1.0
C      1  0.5002370000000  0.4557120000000  0.3854770000000 1.0
C      1  0.4629060000000  0.4896990000000  0.3867780000000 1.0
C      1  0.4718880000000  0.5350510000000  0.3848900000000 1.0
C      1  0.5203790000000  0.5324980000000  0.3914620000000 1.0
C      1  0.5401370000000  0.4873840000000  0.3903680000000 1.0
C      1  0.4797210000000  0.5127550000000  0.5061450000000 1.0
C      1  0.5093060000000  0.5191600000000  0.5012830000000 1.0
C      1  0.5294290000000  0.5025170000000  0.5158190000000 1.0
C      1  0.5059920000000  0.4796660000000  0.5059500000000 1.0
C      1  0.4745550000000  0.4796000000000  0.5120700000000 1.0
C      1  0.4327280000000  0.4261820000000  0.5640670000000 1.0
C      1  0.4078340000000  0.5422210000000  0.5611290000000 1.0
C      1  0.5136130000000  0.6002170000000  0.5572990000000 1.0
C      1  0.6052930000000  0.5002760000000  0.5544760000000 1.0
C      1  0.5533040000000  0.4077090000000  0.5568370000000 1.0
C      1  0.4321520000000  0.5626230000000  0.4894170000000 1.0
C      1  0.5388200000000  0.5831720000000  0.5012520000000 1.0
C      1  0.5931790000000  0.4815970000000  0.5073380000000 1.0
C      1  0.5182500000000  0.4068590000000  0.4858420000000 1.0
C      1  0.4192180000000  0.4527040000000  0.5024540000000 1.0
C      1  0.4788220000000  0.5289090000000  0.4775680000000 1.0
C      1  0.5179230000000  0.5226650000000  0.4724820000000 1.0
C      1  0.5452630000000  0.4806930000000  0.4990990000000 1.0
C      1  0.4919900000000  0.4791640000000  0.4747340000000 1.0
C      1  0.4504540000000  0.4889600000000  0.4934080000000 1.0
C      1  0.5291950000000  0.5400470000000  0.4385070000000 1.0
C      1  0.5461970000000  0.4864050000000  0.4405920000000 1.0
C      1  0.4945400000000  0.4393950000000  0.4128770000000 1.0
C      1  0.4502350000000  0.4792580000000  0.4330350000000 1.0
C      1  0.4726230000000  0.5401030000000  0.4154530000000 1.0
C      1  0.5897420000000  0.4496160000000  0.4941890000000 1.0
C      1  0.4839720000000  0.4052900000000  0.4840430000000 1.0
C      1  0.4010660000000  0.4834980000000  0.4943030000000 1.0
C      1  0.4561300000000  0.5865900000000  0.4829410000000 1.0
C      1  0.5799750000000  0.5580380000000  0.4923310000000 1.0
C      1  0.4930600000000  0.5069490000000  0.4592060000000 1.0
C      1  0.4994380000000  0.5203300000000  0.5456680000000 1.0
C      1  0.4944880000000  0.5025490000000  0.5945750000000 1.0
C      1  0.5040690000000  0.5006550000000  0.3567870000000 1.0
END
