TITL C-2782238-9940-568 -9.81617111605188e-07 125000 -234.895846075901 0 0 39 (C3) n - 1
REM
REM in /home/nfs/bkarasulu/CARBON/AIRSS/Generating-Clusters/REBO/Higher-Symm/SD-CG/HFTN-CG
REM
REM
REM
REM
REM
REM ./C.cell (12c818d87b63d06a65506943cc24bca4)
REM
REM compiler GCC version 9.2.1 20190827 (Red Hat 9.2.1-1)
REM options -cpp -mtune=generic -march=x86-64 -g -O0 -fpre-include=/usr/include/finclude/math-vector-fortran.h
REM seed 993599677 1442773138 -1386771838 -1452885282 210851739 2078811201 -453974505 -2469263 1992112590 -580138166 -1839670439 2114440106 -1465036224 141307055 1760083596 -692805094 -2094395692 1399268896 2116066176 -2025308671 603546905 1249155380 -1154951328 769865900 -2042058915 296481815 -1502409875 -356634511 59829159 1368518792 1947293448 -1439096917 -214346887
REM
CELL 1.54180   50.00000   50.00000   50.00000   90.00000   90.00000   90.00000
LATT -1
SFAC C  
C      1  0.5404390000000  0.4695100000000  0.5387040000000 1.0
C      1  0.5428770000000  0.5466010000000  0.5072710000000 1.0
C      1  0.5421490000000  0.4808090000000  0.4562030000000 1.0
C      1  0.5139570000000  0.4456450000000  0.5053120000000 1.0
C      1  0.5153720000000  0.5310000000000  0.5444990000000 1.0
C      1  0.5167800000000  0.5222230000000  0.4509900000000 1.0
C      1  0.4909930000000  0.5175410000000  0.5490880000000 1.0
C      1  0.4929450000000  0.5341730000000  0.4602400000000 1.0
C      1  0.4903310000000  0.4489170000000  0.4902250000000 1.0
C      1  0.5175480000000  0.4673040000000  0.4536630000000 1.0
C      1  0.5160450000000  0.4753280000000  0.5515550000000 1.0
C      1  0.5189970000000  0.5560770000000  0.4956950000000 1.0
C      1  0.4940030000000  0.5493220000000  0.4846910000000 1.0
C      1  0.4922140000000  0.4624510000000  0.4648920000000 1.0
C      1  0.4913820000000  0.4887760000000  0.5500280000000 1.0
C      1  0.4651430000000  0.5309060000000  0.5468430000000 1.0
C      1  0.4667330000000  0.5269000000000  0.4496600000000 1.0
C      1  0.4638130000000  0.4447540000000  0.5016860000000 1.0
C      1  0.5609790000000  0.5154070000000  0.5405920000000 1.0
C      1  0.5624800000000  0.5242620000000  0.4666670000000 1.0
C      1  0.5602920000000  0.4558200000000  0.4959320000000 1.0
C      1  0.5635930000000  0.5395500000000  0.4892680000000 1.0
C      1  0.5621390000000  0.4676820000000  0.4714040000000 1.0
C      1  0.5614060000000  0.4881740000000  0.5425780000000 1.0
C      1  0.5409720000000  0.5338790000000  0.5327890000000 1.0
C      1  0.5417290000000  0.5093300000000  0.4544670000000 1.0
C      1  0.5393170000000  0.4537950000000  0.5148620000000 1.0
C      1  0.4716450000000  0.5497290000000  0.5017280000000 1.0
C      1  0.4706830000000  0.4781450000000  0.4559220000000 1.0
C      1  0.4691150000000  0.4743000000000  0.5408120000000 1.0
C      1  0.4480510000000  0.4240840000000  0.4935780000000 1.0
C      1  0.4494690000000  0.5350270000000  0.5687240000000 1.0
C      1  0.4520240000000  0.5445830000000  0.4350850000000 1.0
C      1  0.4552830000000  0.5358570000000  0.5199660000000 1.0
C      1  0.4555070000000  0.5016920000000  0.4587510000000 1.0
C      1  0.4535810000000  0.4657810000000  0.5189280000000 1.0
C      1  0.4370140000000  0.5023350000000  0.4802220000000 1.0
C      1  0.4361140000000  0.4849910000000  0.5075570000000 1.0
C      1  0.4368840000000  0.5173380000000  0.5089220000000 1.0
END
