TITL C-2782228-2999-535 0.00131356767204033 125000 -861.300966488863 0 0 149 (C1) n - 1
REM
REM in /home/nfs/bkarasulu/CARBON/AIRSS/Generating-Clusters/REBO/Higher-Symm/SD-CG/HFTN-CG
REM
REM
REM
REM
REM
REM ./C.cell (12c818d87b63d06a65506943cc24bca4)
REM
REM compiler GCC version 9.2.1 20190827 (Red Hat 9.2.1-1)
REM options -cpp -mtune=generic -march=x86-64 -g -O0 -fpre-include=/usr/include/finclude/math-vector-fortran.h
REM seed 1830724258 -345069112 -348493767 236614592 1712944883 -1644424492 -1934728678 930342716 1470185669 2142531652 244493530 -1813894267 92846983 -1854300394 1802732511 81012694 330453744 141156048 349469589 1048988203 -535380588 660190249 974921714 564165920 18033387 296785180 1759095400 309815440 -722373414 -1025133324 1381285515 1805818191 550094119
REM
CELL 1.54180   50.00000   50.00000   50.00000   90.00000   90.00000   90.00000
LATT -1
SFAC C  
C      1  0.5505040000000  0.4903600000000  0.4195910000000 1.0
C      1  0.4494790000000  0.5107510000000  0.4132840000000 1.0
C      1  0.4496770000000  0.4866410000000  0.5872360000000 1.0
C      1  0.5476620000000  0.5125350000000  0.5801220000000 1.0
C      1  0.4812190000000  0.4803530000000  0.4547780000000 1.0
C      1  0.5173940000000  0.5176020000000  0.4558710000000 1.0
C      1  0.5135560000000  0.4825860000000  0.5416410000000 1.0
C      1  0.4818340000000  0.5169610000000  0.5464840000000 1.0
C      1  0.5112510000000  0.5554540000000  0.4855010000000 1.0
C      1  0.4886060000000  0.4493710000000  0.4787330000000 1.0
C      1  0.4956120000000  0.5568180000000  0.5149340000000 1.0
C      1  0.5033500000000  0.4486720000000  0.5225820000000 1.0
C      1  0.4759910000000  0.5361450000000  0.4960010000000 1.0
C      1  0.5150440000000  0.4668830000000  0.5031270000000 1.0
C      1  0.5298990000000  0.5379340000000  0.5084090000000 1.0
C      1  0.4762540000000  0.4680760000000  0.4953710000000 1.0
C      1  0.4913950000000  0.5129230000000  0.4037580000000 1.0
C      1  0.5095950000000  0.4855200000000  0.4055770000000 1.0
C      1  0.5052100000000  0.5127610000000  0.5864490000000 1.0
C      1  0.4896280000000  0.4841740000000  0.5874570000000 1.0
C      1  0.5585770000000  0.5842010000000  0.4656490000000 1.0
C      1  0.4446220000000  0.4088370000000  0.4634570000000 1.0
C      1  0.4470740000000  0.5889780000000  0.5317300000000 1.0
C      1  0.5545600000000  0.4171120000000  0.5349480000000 1.0
C      1  0.4704010000000  0.4873950000000  0.4000340000000 1.0
C      1  0.5306360000000  0.5094230000000  0.3994060000000 1.0
C      1  0.5270720000000  0.4918890000000  0.5984540000000 1.0
C      1  0.4707280000000  0.5070650000000  0.6049180000000 1.0
C      1  0.5086920000000  0.4267010000000  0.4633880000000 1.0
C      1  0.4922460000000  0.5718510000000  0.4623810000000 1.0
C      1  0.4834680000000  0.4280720000000  0.5386290000000 1.0
C      1  0.5138260000000  0.5736990000000  0.5383830000000 1.0
C      1  0.5157880000000  0.5269190000000  0.5609030000000 1.0
C      1  0.4767250000000  0.4722100000000  0.5618140000000 1.0
C      1  0.4893340000000  0.5285220000000  0.4323180000000 1.0
C      1  0.5132110000000  0.4723080000000  0.4352800000000 1.0
C      1  0.5501190000000  0.4052430000000  0.4830640000000 1.0
C      1  0.4493400000000  0.5919820000000  0.4820550000000 1.0
C      1  0.4467840000000  0.4035380000000  0.5165050000000 1.0
C      1  0.5529590000000  0.6003680000000  0.5168530000000 1.0
C      1  0.5658740000000  0.5009170000000  0.4481650000000 1.0
C      1  0.4366590000000  0.5119580000000  0.4510950000000 1.0
C      1  0.4291460000000  0.4942660000000  0.5615080000000 1.0
C      1  0.5660030000000  0.5035460000000  0.5534090000000 1.0
C      1  0.4774520000000  0.5594620000000  0.5726630000000 1.0
C      1  0.5215630000000  0.4428070000000  0.5737130000000 1.0
C      1  0.5226380000000  0.5588510000000  0.4250970000000 1.0
C      1  0.4865470000000  0.4361510000000  0.4206180000000 1.0
C      1  0.5544910000000  0.5491180000000  0.5294160000000 1.0
C      1  0.4342820000000  0.4491290000000  0.5383120000000 1.0
C      1  0.4548360000000  0.5469020000000  0.4719760000000 1.0
C      1  0.5559530000000  0.4531010000000  0.4627260000000 1.0
C      1  0.4318630000000  0.5431890000000  0.5568490000000 1.0
C      1  0.5678860000000  0.4453590000000  0.5470980000000 1.0
C      1  0.5721000000000  0.5556880000000  0.4528400000000 1.0
C      1  0.4393890000000  0.4329790000000  0.4487440000000 1.0
C      1  0.4296700000000  0.5416980000000  0.5068170000000 1.0
C      1  0.5725900000000  0.4648730000000  0.4969600000000 1.0
C      1  0.5699120000000  0.5311350000000  0.4981990000000 1.0
C      1  0.4372030000000  0.4601020000000  0.4965640000000 1.0
C      1  0.5364100000000  0.5154020000000  0.5408820000000 1.0
C      1  0.4563410000000  0.4864690000000  0.5436690000000 1.0
C      1  0.4647290000000  0.5155930000000  0.4494360000000 1.0
C      1  0.5382060000000  0.4820230000000  0.4564270000000 1.0
C      1  0.4577160000000  0.4816070000000  0.4297760000000 1.0
C      1  0.5377890000000  0.5211800000000  0.4288940000000 1.0
C      1  0.5352910000000  0.4827580000000  0.5679800000000 1.0
C      1  0.4660390000000  0.5126180000000  0.5721980000000 1.0
C      1  0.4895050000000  0.4118320000000  0.4423830000000 1.0
C      1  0.5138170000000  0.5821810000000  0.4417840000000 1.0
C      1  0.5093530000000  0.4205900000000  0.5565620000000 1.0
C      1  0.4895930000000  0.5831000000000  0.5557760000000 1.0
C      1  0.4514640000000  0.5402820000000  0.5769010000000 1.0
C      1  0.5559450000000  0.4626760000000  0.5701500000000 1.0
C      1  0.5578250000000  0.5419310000000  0.4285760000000 1.0
C      1  0.4406210000000  0.4547670000000  0.4288850000000 1.0
C      1  0.5071370000000  0.5176970000000  0.5236460000000 1.0
C      1  0.4844750000000  0.4836760000000  0.5245090000000 1.0
C      1  0.4888030000000  0.5172480000000  0.4706540000000 1.0
C      1  0.5094560000000  0.4828860000000  0.4736180000000 1.0
C      1  0.4500570000000  0.4572430000000  0.4675020000000 1.0
C      1  0.5535810000000  0.5465300000000  0.4775390000000 1.0
C      1  0.5533300000000  0.4537310000000  0.5192890000000 1.0
C      1  0.4474480000000  0.5479740000000  0.5321560000000 1.0
C      1  0.4062940000000  0.4880680000000  0.5178170000000 1.0
C      1  0.6002900000000  0.5176590000000  0.5196560000000 1.0
C      1  0.5915260000000  0.4956520000000  0.4781730000000 1.0
C      1  0.4035960000000  0.5187610000000  0.4875240000000 1.0
C      1  0.4369390000000  0.5115230000000  0.4926240000000 1.0
C      1  0.5597010000000  0.4940390000000  0.4869790000000 1.0
C      1  0.5552350000000  0.5082390000000  0.5152990000000 1.0
C      1  0.4460830000000  0.4880530000000  0.5143410000000 1.0
C      1  0.5654130000000  0.4347180000000  0.4854560000000 1.0
C      1  0.4285610000000  0.5669540000000  0.4757570000000 1.0
C      1  0.4326180000000  0.4334620000000  0.5116110000000 1.0
C      1  0.5688910000000  0.5729950000000  0.5173780000000 1.0
C      1  0.4075630000000  0.5197850000000  0.5213050000000 1.0
C      1  0.5932310000000  0.4871670000000  0.5113790000000 1.0
C      1  0.6005350000000  0.5316930000000  0.4920430000000 1.0
C      1  0.4131010000000  0.4794620000000  0.4918070000000 1.0
C      1  0.4220470000000  0.5371280000000  0.4662620000000 1.0
C      1  0.5787530000000  0.4728990000000  0.4578260000000 1.0
C      1  0.5796670000000  0.5285040000000  0.5387770000000 1.0
C      1  0.4188330000000  0.4734250000000  0.5396810000000 1.0
C      1  0.5136000000000  0.5388570000000  0.4024180000000 1.0
C      1  0.4884990000000  0.4603420000000  0.3966880000000 1.0
C      1  0.4855650000000  0.5370100000000  0.5970960000000 1.0
C      1  0.5121500000000  0.4612200000000  0.5965350000000 1.0
C      1  0.5850910000000  0.5254270000000  0.4620240000000 1.0
C      1  0.4136750000000  0.4952500000000  0.4650330000000 1.0
C      1  0.4155220000000  0.5207310000000  0.5519930000000 1.0
C      1  0.5777410000000  0.4773240000000  0.5400230000000 1.0
C      1  0.4882540000000  0.3961680000000  0.4881210000000 1.0
C      1  0.5125510000000  0.5992250000000  0.4860180000000 1.0
C      1  0.5099780000000  0.3995030000000  0.5144340000000 1.0
C      1  0.4903510000000  0.6028690000000  0.5119510000000 1.0
C      1  0.5366740000000  0.5177880000000  0.4813390000000 1.0
C      1  0.4564850000000  0.4886670000000  0.4767060000000 1.0
C      1  0.4636150000000  0.5172900000000  0.5195210000000 1.0
C      1  0.5380330000000  0.4824680000000  0.5184180000000 1.0
C      1  0.4763850000000  0.4043920000000  0.5187320000000 1.0
C      1  0.5235040000000  0.5972960000000  0.5174590000000 1.0
C      1  0.5207120000000  0.4055430000000  0.4835870000000 1.0
C      1  0.4788830000000  0.5942050000000  0.4816660000000 1.0
C      1  0.4332840000000  0.5757040000000  0.5073820000000 1.0
C      1  0.5658780000000  0.4117470000000  0.5097560000000 1.0
C      1  0.5698600000000  0.5909740000000  0.4908330000000 1.0
C      1  0.4320260000000  0.4080480000000  0.4889470000000 1.0
C      1  0.4822330000000  0.5514140000000  0.4073530000000 1.0
C      1  0.5167650000000  0.4469360000000  0.4101550000000 1.0
C      1  0.5139960000000  0.5513810000000  0.5845650000000 1.0
C      1  0.4822750000000  0.4495890000000  0.6059400000000 1.0
C      1  0.5375910000000  0.5588910000000  0.5533250000000 1.0
C      1  0.4609390000000  0.4438180000000  0.5541500000000 1.0
C      1  0.4708430000000  0.5542880000000  0.4454270000000 1.0
C      1  0.5291380000000  0.4444650000000  0.4473380000000 1.0
C      1  0.4719480000000  0.3996920000000  0.4627080000000 1.0
C      1  0.5311910000000  0.5920890000000  0.4629200000000 1.0
C      1  0.5273390000000  0.4087460000000  0.5376970000000 1.0
C      1  0.4730880000000  0.5962600000000  0.5358090000000 1.0
C      1  0.5287700000000  0.4524490000000  0.5428180000000 1.0
C      1  0.4774330000000  0.5486610000000  0.5400230000000 1.0
C      1  0.4759370000000  0.4487610000000  0.4469900000000 1.0
C      1  0.5277140000000  0.5480200000000  0.4567320000000 1.0
C      1  0.5468370000000  0.4583510000000  0.4202400000000 1.0
C      1  0.4538090000000  0.5396010000000  0.4189120000000 1.0
C      1  0.4616290000000  0.4556510000000  0.5863170000000 1.0
C      1  0.5448830000000  0.5441390000000  0.5810220000000 1.0
C      1  0.4966890000000  0.5020470000000  0.4986570000000 1.0
END
