TITL C-2782240-8521-1310 0.0008794996301746 125000 -1017.44716525034 0 0 174 (C1) n - 1
REM
REM in /home/nfs/bkarasulu/CARBON/AIRSS/Generating-Clusters/REBO/Higher-Symm/SD-CG/HFTN-CG
REM
REM
REM
REM
REM
REM ./C.cell (12c818d87b63d06a65506943cc24bca4)
REM
REM compiler GCC version 9.2.1 20190827 (Red Hat 9.2.1-1)
REM options -cpp -mtune=generic -march=x86-64 -g -O0 -fpre-include=/usr/include/finclude/math-vector-fortran.h
REM seed 1828308086 130000592 -1022095886 -398557729 163823466 118170004 1586552097 503407134 1308668409 -855593628 -255940131 176048717 488973093 1850990909 -1262390913 2078893641 556519131 -2114681753 -1039906203 -1049443177 458907364 2085220778 -556906189 -1603761353 1704001778 1389183321 1840717672 163066841 227192297 1700022273 35710456 -1236797506 371498097
REM
CELL 1.54180   50.00000   50.00000   50.00000   90.00000   90.00000   90.00000
LATT -1
SFAC C  
C      1  0.4313680000000  0.5244960000000  0.4424660000000 1.0
C      1  0.5677600000000  0.4749120000000  0.5523440000000 1.0
C      1  0.5434230000000  0.5141220000000  0.4511120000000 1.0
C      1  0.4580910000000  0.4855990000000  0.5501110000000 1.0
C      1  0.5347540000000  0.5644880000000  0.5872880000000 1.0
C      1  0.4640610000000  0.4338310000000  0.4147370000000 1.0
C      1  0.3968580000000  0.5115920000000  0.4571040000000 1.0
C      1  0.6038540000000  0.4877720000000  0.5421040000000 1.0
C      1  0.5040250000000  0.5984910000000  0.4550350000000 1.0
C      1  0.4946170000000  0.4022420000000  0.5475500000000 1.0
C      1  0.4825520000000  0.5712530000000  0.5301650000000 1.0
C      1  0.5204160000000  0.4207720000000  0.4853620000000 1.0
C      1  0.4327110000000  0.4618010000000  0.5907240000000 1.0
C      1  0.5692000000000  0.5420330000000  0.4129730000000 1.0
C      1  0.5145060000000  0.4668690000000  0.5399380000000 1.0
C      1  0.4852160000000  0.5337840000000  0.4578520000000 1.0
C      1  0.4440000000000  0.4101750000000  0.4815720000000 1.0
C      1  0.5548420000000  0.5889220000000  0.5205370000000 1.0
C      1  0.4616590000000  0.5656920000000  0.5763500000000 1.0
C      1  0.5342180000000  0.4314490000000  0.4266490000000 1.0
C      1  0.4680580000000  0.5034350000000  0.3911510000000 1.0
C      1  0.5329160000000  0.4975260000000  0.6053190000000 1.0
C      1  0.4257250000000  0.5093920000000  0.4147410000000 1.0
C      1  0.5737010000000  0.4881200000000  0.5810130000000 1.0
C      1  0.5226450000000  0.3979050000000  0.5180430000000 1.0
C      1  0.4733660000000  0.6010550000000  0.4819250000000 1.0
C      1  0.4229630000000  0.4832290000000  0.4988880000000 1.0
C      1  0.5818750000000  0.5198880000000  0.5040460000000 1.0
C      1  0.4853290000000  0.5888180000000  0.5698620000000 1.0
C      1  0.5130100000000  0.4089280000000  0.4346370000000 1.0
C      1  0.5527830000000  0.5122110000000  0.5152170000000 1.0
C      1  0.4506960000000  0.4869090000000  0.4810630000000 1.0
C      1  0.4012470000000  0.5244920000000  0.4288230000000 1.0
C      1  0.5968810000000  0.4708590000000  0.5673100000000 1.0
C      1  0.4635600000000  0.4624090000000  0.5997340000000 1.0
C      1  0.5385350000000  0.5413380000000  0.4027780000000 1.0
C      1  0.5166560000000  0.5740180000000  0.4945300000000 1.0
C      1  0.4813170000000  0.4241340000000  0.5080090000000 1.0
C      1  0.5005550000000  0.5313400000000  0.5809250000000 1.0
C      1  0.5032690000000  0.4763720000000  0.4126790000000 1.0
C      1  0.5126490000000  0.5205890000000  0.4599440000000 1.0
C      1  0.4869890000000  0.4795450000000  0.5379100000000 1.0
C      1  0.4362340000000  0.4405390000000  0.4691100000000 1.0
C      1  0.5649010000000  0.5591600000000  0.5318840000000 1.0
C      1  0.4557400000000  0.5455530000000  0.4182960000000 1.0
C      1  0.5449880000000  0.4559700000000  0.5788300000000 1.0
C      1  0.5047320000000  0.5600320000000  0.4657560000000 1.0
C      1  0.4941370000000  0.4402700000000  0.5354390000000 1.0
C      1  0.4480820000000  0.4570540000000  0.4173310000000 1.0
C      1  0.5512780000000  0.5423530000000  0.5822230000000 1.0
C      1  0.4830400000000  0.4939170000000  0.4585680000000 1.0
C      1  0.5160180000000  0.5068000000000  0.5384780000000 1.0
C      1  0.4753370000000  0.5758790000000  0.4709470000000 1.0
C      1  0.5231570000000  0.4238760000000  0.5282140000000 1.0
C      1  0.5324860000000  0.6032490000000  0.5024660000000 1.0
C      1  0.4634220000000  0.3955930000000  0.5021030000000 1.0
C      1  0.5260310000000  0.3967240000000  0.4619650000000 1.0
C      1  0.4699520000000  0.6055700000000  0.5457340000000 1.0
C      1  0.5299990000000  0.4796170000000  0.5637400000000 1.0
C      1  0.4699880000000  0.5221100000000  0.4337930000000 1.0
C      1  0.5417240000000  0.5391090000000  0.5240930000000 1.0
C      1  0.4615940000000  0.4592400000000  0.4732870000000 1.0
C      1  0.5427530000000  0.4324370000000  0.5618920000000 1.0
C      1  0.4574590000000  0.5686120000000  0.4360350000000 1.0
C      1  0.4411020000000  0.5467270000000  0.5569460000000 1.0
C      1  0.5563450000000  0.4530760000000  0.4414220000000 1.0
C      1  0.4428370000000  0.5253540000000  0.5234410000000 1.0
C      1  0.5558140000000  0.4743980000000  0.4750460000000 1.0
C      1  0.4326260000000  0.4876110000000  0.5298640000000 1.0
C      1  0.5659320000000  0.5130730000000  0.4758030000000 1.0
C      1  0.4524910000000  0.6041030000000  0.4991990000000 1.0
C      1  0.5427080000000  0.3913780000000  0.5007690000000 1.0
C      1  0.4738900000000  0.5435340000000  0.5952820000000 1.0
C      1  0.5317500000000  0.4597730000000  0.4080000000000 1.0
C      1  0.3965780000000  0.4917890000000  0.4827130000000 1.0
C      1  0.6084180000000  0.5105420000000  0.5192110000000 1.0
C      1  0.5510370000000  0.5645160000000  0.4765270000000 1.0
C      1  0.4465720000000  0.4359830000000  0.5259090000000 1.0
C      1  0.5803680000000  0.5168990000000  0.4187760000000 1.0
C      1  0.4214390000000  0.4865640000000  0.5838690000000 1.0
C      1  0.5464380000000  0.4904530000000  0.5357520000000 1.0
C      1  0.4528500000000  0.5105520000000  0.4608190000000 1.0
C      1  0.5594270000000  0.5441800000000  0.4515280000000 1.0
C      1  0.4424130000000  0.4562490000000  0.5524660000000 1.0
C      1  0.5386650000000  0.5211290000000  0.5595120000000 1.0
C      1  0.4607520000000  0.4788350000000  0.4385280000000 1.0
C      1  0.4802240000000  0.4285350000000  0.5642770000000 1.0
C      1  0.5200410000000  0.5729330000000  0.4382510000000 1.0
C      1  0.5801130000000  0.4431290000000  0.5165270000000 1.0
C      1  0.4210970000000  0.5573220000000  0.4805300000000 1.0
C      1  0.5538340000000  0.5087410000000  0.5875330000000 1.0
C      1  0.4477180000000  0.4903300000000  0.4090500000000 1.0
C      1  0.5421240000000  0.4843550000000  0.4388890000000 1.0
C      1  0.4565730000000  0.5160490000000  0.5597360000000 1.0
C      1  0.5898420000000  0.5455860000000  0.4562670000000 1.0
C      1  0.4136330000000  0.4547260000000  0.5447350000000 1.0
C      1  0.4958690000000  0.5031420000000  0.4281870000000 1.0
C      1  0.5055100000000  0.5009230000000  0.5706370000000 1.0
C      1  0.5160710000000  0.4513040000000  0.4881770000000 1.0
C      1  0.4855030000000  0.5447810000000  0.5089260000000 1.0
C      1  0.4805920000000  0.4197720000000  0.4323040000000 1.0
C      1  0.5176380000000  0.5773520000000  0.5693680000000 1.0
C      1  0.5721410000000  0.5676060000000  0.5001190000000 1.0
C      1  0.4268840000000  0.4326890000000  0.5004780000000 1.0
C      1  0.4824510000000  0.5838010000000  0.4327030000000 1.0
C      1  0.5181580000000  0.4176060000000  0.5671600000000 1.0
C      1  0.4680630000000  0.5390530000000  0.4840780000000 1.0
C      1  0.5318780000000  0.4602880000000  0.5144530000000 1.0
C      1  0.5290180000000  0.5758400000000  0.5371770000000 1.0
C      1  0.4703350000000  0.4204000000000  0.4648020000000 1.0
C      1  0.5011790000000  0.4347240000000  0.5875250000000 1.0
C      1  0.5003590000000  0.5661430000000  0.4135860000000 1.0
C      1  0.5196480000000  0.5157080000000  0.4072050000000 1.0
C      1  0.4835100000000  0.4864190000000  0.5921840000000 1.0
C      1  0.4853490000000  0.5509640000000  0.5576910000000 1.0
C      1  0.5141840000000  0.4560530000000  0.4371820000000 1.0
C      1  0.5922580000000  0.5193420000000  0.5477980000000 1.0
C      1  0.4080390000000  0.4796500000000  0.4532550000000 1.0
C      1  0.5156860000000  0.5535050000000  0.5170630000000 1.0
C      1  0.4863180000000  0.4417250000000  0.4836650000000 1.0
C      1  0.4329560000000  0.5648220000000  0.5305010000000 1.0
C      1  0.5677470000000  0.4340580000000  0.4672290000000 1.0
C      1  0.5788630000000  0.4770720000000  0.4519710000000 1.0
C      1  0.4194900000000  0.5224160000000  0.5464310000000 1.0
C      1  0.5842230000000  0.5072860000000  0.4473050000000 1.0
C      1  0.4119110000000  0.4930050000000  0.5560640000000 1.0
C      1  0.5300010000000  0.4692100000000  0.6022790000000 1.0
C      1  0.4717370000000  0.5319450000000  0.3952100000000 1.0
C      1  0.5039700000000  0.4991090000000  0.4849130000000 1.0
C      1  0.4926150000000  0.5015360000000  0.5141300000000 1.0
C      1  0.5007620000000  0.3931610000000  0.4849450000000 1.0
C      1  0.4902080000000  0.6026090000000  0.5180280000000 1.0
C      1  0.5353860000000  0.5081650000000  0.4897370000000 1.0
C      1  0.4605160000000  0.4903650000000  0.5105010000000 1.0
C      1  0.5264820000000  0.4668010000000  0.4640340000000 1.0
C      1  0.4713000000000  0.5332330000000  0.5346210000000 1.0
C      1  0.5586140000000  0.4732070000000  0.5018110000000 1.0
C      1  0.4409020000000  0.5260480000000  0.4954290000000 1.0
C      1  0.5686720000000  0.5366890000000  0.5534100000000 1.0
C      1  0.4317900000000  0.4624880000000  0.4469460000000 1.0
C      1  0.5900530000000  0.4756440000000  0.5140330000000 1.0
C      1  0.4146980000000  0.5270320000000  0.4788960000000 1.0
C      1  0.5030370000000  0.4600090000000  0.5998120000000 1.0
C      1  0.4988190000000  0.5413550000000  0.4000480000000 1.0
C      1  0.5973270000000  0.4682090000000  0.4755750000000 1.0
C      1  0.4032980000000  0.5285980000000  0.5192160000000 1.0
C      1  0.5336060000000  0.5916710000000  0.4706110000000 1.0
C      1  0.4641300000000  0.4090190000000  0.5334540000000 1.0
C      1  0.4675910000000  0.4590690000000  0.5218320000000 1.0
C      1  0.5309130000000  0.5400670000000  0.4788350000000 1.0
C      1  0.4479420000000  0.5610320000000  0.4671520000000 1.0
C      1  0.5526670000000  0.4384850000000  0.5299740000000 1.0
C      1  0.5075080000000  0.5984950000000  0.5453980000000 1.0
C      1  0.4876920000000  0.3945710000000  0.4535650000000 1.0
C      1  0.4557270000000  0.4411270000000  0.5755300000000 1.0
C      1  0.5453280000000  0.5608520000000  0.4287700000000 1.0
C      1  0.4106320000000  0.4558690000000  0.5136750000000 1.0
C      1  0.5925560000000  0.5466390000000  0.4888100000000 1.0
C      1  0.3932680000000  0.4824660000000  0.5301750000000 1.0
C      1  0.6050010000000  0.5191850000000  0.4716150000000 1.0
C      1  0.4529370000000  0.5869630000000  0.5251530000000 1.0
C      1  0.5518350000000  0.4116310000000  0.4759810000000 1.0
C      1  0.4895230000000  0.4869550000000  0.3867440000000 1.0
C      1  0.5120000000000  0.5150120000000  0.6074500000000 1.0
C      1  0.4159450000000  0.5534240000000  0.5104870000000 1.0
C      1  0.5854120000000  0.4451860000000  0.4863750000000 1.0
C      1  0.5399780000000  0.4911690000000  0.4072690000000 1.0
C      1  0.4650830000000  0.5130060000000  0.5903120000000 1.0
C      1  0.3910300000000  0.5042260000000  0.5106180000000 1.0
C      1  0.6084020000000  0.4933700000000  0.4907350000000 1.0
C      1  0.4928020000000  0.3869060000000  0.5169780000000 1.0
C      1  0.5028200000000  0.6106830000000  0.4873420000000 1.0
C      1  0.4341230000000  0.5074990000000  0.5966730000000 1.0
C      1  0.5699660000000  0.4976620000000  0.4018090000000 1.0
END
