TITL C-2782232-2968-1382 0.000587700958523604 125000 -298.390500282354 0 0 52 (C1) n - 1
REM
REM in /home/nfs/bkarasulu/CARBON/AIRSS/Generating-Clusters/REBO/Higher-Symm/SD-CG/HFTN-CG
REM
REM
REM
REM
REM
REM ./C.cell (12c818d87b63d06a65506943cc24bca4)
REM
REM compiler GCC version 9.2.1 20190827 (Red Hat 9.2.1-1)
REM options -cpp -mtune=generic -march=x86-64 -g -O0 -fpre-include=/usr/include/finclude/math-vector-fortran.h
REM seed -365799902 644137248 -2135856549 -299876823 -2097885157 1125454096 587145801 1474291094 191492052 -891858998 -814973255 1214506624 -1782455684 -426180156 1688620550 -247470556 -640917486 850029260 1563489918 -1639820621 197857283 1326711049 -1913666117 -331344679 1000913467 1047494269 1425057157 2080650113 -258198949 525201882 -1797763574 -742882459 12129445
REM
CELL 1.54180   50.00000   50.00000   50.00000   90.00000   90.00000   90.00000
LATT -1
SFAC C  
C      1  0.5686340000000  0.5265020000000  0.4803700000000 1.0
C      1  0.5450810000000  0.4489880000000  0.4478650000000 1.0
C      1  0.4381620000000  0.4983000000000  0.5306870000000 1.0
C      1  0.5541070000000  0.5145740000000  0.5540850000000 1.0
C      1  0.4789310000000  0.4504410000000  0.4657880000000 1.0
C      1  0.4886090000000  0.4445810000000  0.4920920000000 1.0
C      1  0.5328920000000  0.5572660000000  0.5379210000000 1.0
C      1  0.4465110000000  0.4555070000000  0.5127070000000 1.0
C      1  0.4602810000000  0.5024020000000  0.4615690000000 1.0
C      1  0.4851190000000  0.5459530000000  0.5445040000000 1.0
C      1  0.5170380000000  0.5073750000000  0.5326910000000 1.0
C      1  0.5069900000000  0.5697360000000  0.5412030000000 1.0
C      1  0.4933990000000  0.5454730000000  0.5125740000000 1.0
C      1  0.5150910000000  0.5219300000000  0.5095210000000 1.0
C      1  0.4874850000000  0.4930200000000  0.5100300000000 1.0
C      1  0.5455090000000  0.4601090000000  0.5360470000000 1.0
C      1  0.4780820000000  0.5208470000000  0.4946500000000 1.0
C      1  0.4458520000000  0.5250090000000  0.4919600000000 1.0
C      1  0.4772770000000  0.5624630000000  0.4905890000000 1.0
C      1  0.5195480000000  0.4759320000000  0.5419890000000 1.0
C      1  0.5673320000000  0.4490380000000  0.5127110000000 1.0
C      1  0.5185930000000  0.4815850000000  0.5024140000000 1.0
C      1  0.5039350000000  0.4974320000000  0.4332310000000 1.0
C      1  0.4917330000000  0.5003720000000  0.4710680000000 1.0
C      1  0.5035070000000  0.5221490000000  0.5591380000000 1.0
C      1  0.5243620000000  0.4563760000000  0.4619490000000 1.0
C      1  0.4817300000000  0.5105490000000  0.4205860000000 1.0
C      1  0.5344050000000  0.5345110000000  0.5561670000000 1.0
C      1  0.4564110000000  0.5473650000000  0.4478520000000 1.0
C      1  0.5192450000000  0.5193760000000  0.4778760000000 1.0
C      1  0.4598450000000  0.5291550000000  0.5419300000000 1.0
C      1  0.4403600000000  0.4759580000000  0.4577800000000 1.0
C      1  0.5179780000000  0.4521260000000  0.4922600000000 1.0
C      1  0.4928940000000  0.4895690000000  0.5586880000000 1.0
C      1  0.5758010000000  0.4703880000000  0.4953260000000 1.0
C      1  0.4700630000000  0.4979590000000  0.5380120000000 1.0
C      1  0.5478440000000  0.4890580000000  0.5085960000000 1.0
C      1  0.4329600000000  0.4801430000000  0.5096500000000 1.0
C      1  0.4983960000000  0.4723340000000  0.4529350000000 1.0
C      1  0.4890060000000  0.4629130000000  0.5371180000000 1.0
C      1  0.4617390000000  0.5212160000000  0.4380540000000 1.0
C      1  0.4744900000000  0.4508410000000  0.5160970000000 1.0
C      1  0.4573570000000  0.5500880000000  0.4762750000000 1.0
C      1  0.4350950000000  0.4956430000000  0.4834920000000 1.0
C      1  0.5438250000000  0.5384360000000  0.4872750000000 1.0
C      1  0.5714570000000  0.4999870000000  0.4878400000000 1.0
C      1  0.5418280000000  0.5534170000000  0.5111280000000 1.0
C      1  0.4523340000000  0.4517910000000  0.4568880000000 1.0
C      1  0.5556930000000  0.4923840000000  0.5395710000000 1.0
C      1  0.5373170000000  0.4385860000000  0.5112010000000 1.0
C      1  0.4360890000000  0.5287010000000  0.5219200000000 1.0
C      1  0.5217810000000  0.5141460000000  0.4461300000000 1.0
END
