TITL C-2782232-2968-398 -0.000977300773098517 125000 -272.646583487345 0 0 48 (C3) n - 1
REM
REM in /home/nfs/bkarasulu/CARBON/AIRSS/Generating-Clusters/REBO/Higher-Symm/SD-CG/HFTN-CG
REM
REM
REM
REM
REM
REM ./C.cell (12c818d87b63d06a65506943cc24bca4)
REM
REM compiler GCC version 9.2.1 20190827 (Red Hat 9.2.1-1)
REM options -cpp -mtune=generic -march=x86-64 -g -O0 -fpre-include=/usr/include/finclude/math-vector-fortran.h
REM seed 47223467 -442409157 1389005873 509295374 -2019441614 -127366353 1777281749 -1985989603 -1707018209 -1114470670 -860162306 615402626 463245835 -994759869 1674979375 1363529530 917773119 -523028574 -1055173874 -1107341389 1268721183 -1216299925 -1460647534 -1274243318 -37700442 -949282376 -347831227 475228505 -583687328 1911557723 -2017561581 1637134881 4905952
REM
CELL 1.54180   50.00000   50.00000   50.00000   90.00000   90.00000   90.00000
LATT -1
SFAC C  
C      1  0.4444080000000  0.5299570000000  0.5345320000000 1.0
C      1  0.5023250000000  0.4368000000000  0.5343610000000 1.0
C      1  0.5540400000000  0.5335360000000  0.5336960000000 1.0
C      1  0.4443220000000  0.4693720000000  0.5289350000000 1.0
C      1  0.5015660000000  0.5638410000000  0.5282340000000 1.0
C      1  0.5547560000000  0.4670290000000  0.5281090000000 1.0
C      1  0.4581430000000  0.5142460000000  0.5006730000000 1.0
C      1  0.5085970000000  0.4566260000000  0.5004570000000 1.0
C      1  0.5332690000000  0.5291310000000  0.5000650000000 1.0
C      1  0.4604080000000  0.4819820000000  0.4950750000000 1.0
C      1  0.5041450000000  0.5432410000000  0.4945710000000 1.0
C      1  0.5353280000000  0.4747320000000  0.4945310000000 1.0
C      1  0.4548140000000  0.4503220000000  0.5027180000000 1.0
C      1  0.5656460000000  0.4857000000000  0.5017820000000 1.0
C      1  0.4795910000000  0.5639980000000  0.5022070000000 1.0
C      1  0.4527030000000  0.5469720000000  0.5070300000000 1.0
C      1  0.5643860000000  0.5175480000000  0.5062720000000 1.0
C      1  0.4830650000000  0.4355380000000  0.5071190000000 1.0
C      1  0.5103680000000  0.4413360000000  0.4591470000000 1.0
C      1  0.5450550000000  0.5384020000000  0.4586090000000 1.0
C      1  0.4436510000000  0.5199110000000  0.4594260000000 1.0
C      1  0.5149060000000  0.5542800000000  0.4579500000000 1.0
C      1  0.5391850000000  0.4594990000000  0.4580370000000 1.0
C      1  0.4449650000000  0.4858640000000  0.4586730000000 1.0
C      1  0.5234140000000  0.5176560000000  0.4709370000000 1.0
C      1  0.4726050000000  0.5115150000000  0.4713380000000 1.0
C      1  0.5033290000000  0.4705830000000  0.4712230000000 1.0
C      1  0.5268330000000  0.4902450000000  0.4669830000000 1.0
C      1  0.4778460000000  0.4812840000000  0.4673780000000 1.0
C      1  0.4945780000000  0.5281900000000  0.4671180000000 1.0
C      1  0.4497430000000  0.4538120000000  0.4690840000000 1.0
C      1  0.5646950000000  0.4796390000000  0.4681430000000 1.0
C      1  0.4848510000000  0.5662800000000  0.4684990000000 1.0
C      1  0.4569240000000  0.5480440000000  0.4733090000000 1.0
C      1  0.5629060000000  0.5129930000000  0.4726090000000 1.0
C      1  0.4795630000000  0.4387330000000  0.4734490000000 1.0
C      1  0.4748360000000  0.5171270000000  0.5297190000000 1.0
C      1  0.4981580000000  0.4695770000000  0.5296790000000 1.0
C      1  0.5276750000000  0.5135490000000  0.5293310000000 1.0
C      1  0.4735430000000  0.4853270000000  0.5260370000000 1.0
C      1  0.5007490000000  0.5305290000000  0.5257030000000 1.0
C      1  0.5262920000000  0.4843650000000  0.5256420000000 1.0
C      1  0.5483880000000  0.5589920000000  0.5411600000000 1.0
C      1  0.4252920000000  0.5123170000000  0.5422210000000 1.0
C      1  0.5272630000000  0.4290470000000  0.5416900000000 1.0
C      1  0.5513290000000  0.4422750000000  0.5386260000000 1.0
C      1  0.4246900000000  0.4848300000000  0.5394590000000 1.0
C      1  0.5248600000000  0.5732270000000  0.5384520000000 1.0
END
