TITL C-2782234-8014-437 -0.00233866318057836 125000 -1132.62124606617 0 0 196 (C1) n - 1
REM
REM in /home/nfs/bkarasulu/CARBON/AIRSS/Generating-Clusters/REBO/Higher-Symm/SD-CG/HFTN-CG
REM
REM
REM
REM
REM
REM ./C.cell (12c818d87b63d06a65506943cc24bca4)
REM
REM compiler GCC version 9.2.1 20190827 (Red Hat 9.2.1-1)
REM options -cpp -mtune=generic -march=x86-64 -g -O0 -fpre-include=/usr/include/finclude/math-vector-fortran.h
REM seed 574530669 921965199 -1267458730 1987279234 -541283639 1491316631 -229711861 1902233909 -905488744 1891581178 528491840 1696572369 -405610408 701570199 -420908170 -1070575018 -1235616503 -1988901778 795864764 -445227838 126762278 2113759638 -1968555088 -1140276246 58076500 1325056435 -700794717 158308921 -1392689105 -2111391845 1159771297 -932352813 -1722543804
REM
CELL 1.54180   50.00000   50.00000   50.00000   90.00000   90.00000   90.00000
LATT -1
SFAC C  
C      1  0.5770250000000  0.4688720000000  0.4088440000000 1.0
C      1  0.4244740000000  0.5340560000000  0.5885880000000 1.0
C      1  0.4268120000000  0.4136740000000  0.4856920000000 1.0
C      1  0.5731610000000  0.5860250000000  0.5146310000000 1.0
C      1  0.5429870000000  0.5569930000000  0.4781040000000 1.0
C      1  0.4559570000000  0.4427830000000  0.5224930000000 1.0
C      1  0.5510550000000  0.5039710000000  0.4518900000000 1.0
C      1  0.4487950000000  0.4977200000000  0.5477700000000 1.0
C      1  0.4307890000000  0.4835620000000  0.4369090000000 1.0
C      1  0.5685310000000  0.5151330000000  0.5612170000000 1.0
C      1  0.5129580000000  0.5647140000000  0.5180780000000 1.0
C      1  0.4864600000000  0.4349500000000  0.4821080000000 1.0
C      1  0.4780820000000  0.5346310000000  0.4041440000000 1.0
C      1  0.5211460000000  0.4644780000000  0.5960180000000 1.0
C      1  0.4630960000000  0.4562500000000  0.4047020000000 1.0
C      1  0.5380530000000  0.5425360000000  0.5952750000000 1.0
C      1  0.5060210000000  0.4890740000000  0.4370020000000 1.0
C      1  0.4945120000000  0.5112790000000  0.5625820000000 1.0
C      1  0.5844280000000  0.5711550000000  0.5402880000000 1.0
C      1  0.4157300000000  0.4281200000000  0.4597630000000 1.0
C      1  0.5514520000000  0.4766790000000  0.5025210000000 1.0
C      1  0.4497810000000  0.5211230000000  0.4951260000000 1.0
C      1  0.4361170000000  0.5364530000000  0.5222250000000 1.0
C      1  0.5647830000000  0.4626080000000  0.4743800000000 1.0
C      1  0.5321230000000  0.6077520000000  0.4899790000000 1.0
C      1  0.4673480000000  0.3921450000000  0.5110150000000 1.0
C      1  0.4124060000000  0.4798510000000  0.4621800000000 1.0
C      1  0.5868530000000  0.5194550000000  0.5360170000000 1.0
C      1  0.5514680000000  0.5411110000000  0.5350310000000 1.0
C      1  0.4478470000000  0.4581030000000  0.4644170000000 1.0
C      1  0.5183630000000  0.4372710000000  0.5564760000000 1.0
C      1  0.4795700000000  0.5608440000000  0.4451470000000 1.0
C      1  0.4457310000000  0.4243800000000  0.4439600000000 1.0
C      1  0.5542360000000  0.5746160000000  0.5558210000000 1.0
C      1  0.5591670000000  0.4951300000000  0.5941620000000 1.0
C      1  0.4417290000000  0.5033410000000  0.4042370000000 1.0
C      1  0.3912520000000  0.4682620000000  0.5026910000000 1.0
C      1  0.6089020000000  0.5322880000000  0.4960570000000 1.0
C      1  0.4236420000000  0.3987430000000  0.5321070000000 1.0
C      1  0.5749550000000  0.6018150000000  0.4674980000000 1.0
C      1  0.4851210000000  0.5385600000000  0.5317880000000 1.0
C      1  0.5167140000000  0.4607740000000  0.4666230000000 1.0
C      1  0.4862890000000  0.3949900000000  0.4824220000000 1.0
C      1  0.5139160000000  0.6046810000000  0.5189760000000 1.0
C      1  0.4277180000000  0.5080130000000  0.5261670000000 1.0
C      1  0.5728580000000  0.4916650000000  0.4719690000000 1.0
C      1  0.5819900000000  0.5111240000000  0.4387710000000 1.0
C      1  0.4174120000000  0.4904450000000  0.5600090000000 1.0
C      1  0.5391280000000  0.5853710000000  0.4382340000000 1.0
C      1  0.4577300000000  0.4148430000000  0.5634730000000 1.0
C      1  0.4667240000000  0.4236310000000  0.5024990000000 1.0
C      1  0.5330730000000  0.5762710000000  0.4983970000000 1.0
C      1  0.4885210000000  0.4680740000000  0.4785590000000 1.0
C      1  0.5137240000000  0.5312470000000  0.5205330000000 1.0
C      1  0.5894490000000  0.4450550000000  0.4999100000000 1.0
C      1  0.4099960000000  0.5558740000000  0.4998490000000 1.0
C      1  0.4556890000000  0.5428900000000  0.5442760000000 1.0
C      1  0.5450820000000  0.4569900000000  0.4528160000000 1.0
C      1  0.5410370000000  0.5124280000000  0.6108910000000 1.0
C      1  0.4601760000000  0.4859550000000  0.3883270000000 1.0
C      1  0.5571940000000  0.3979680000000  0.5163920000000 1.0
C      1  0.4391020000000  0.5999920000000  0.4843130000000 1.0
C      1  0.4376000000000  0.5751800000000  0.4622900000000 1.0
C      1  0.5599810000000  0.4233450000000  0.5376560000000 1.0
C      1  0.4545210000000  0.5077230000000  0.4365350000000 1.0
C      1  0.5447350000000  0.4909840000000  0.5627630000000 1.0
C      1  0.5427080000000  0.4155660000000  0.4757490000000 1.0
C      1  0.4581670000000  0.5843720000000  0.5251090000000 1.0
C      1  0.4282240000000  0.5019400000000  0.5865280000000 1.0
C      1  0.5729090000000  0.5010270000000  0.4110840000000 1.0
C      1  0.5495370000000  0.4728390000000  0.4270420000000 1.0
C      1  0.4520000000000  0.5311470000000  0.5707670000000 1.0
C      1  0.4134200000000  0.5565210000000  0.5343550000000 1.0
C      1  0.5908550000000  0.4450910000000  0.4656790000000 1.0
C      1  0.5491580000000  0.4544760000000  0.5797450000000 1.0
C      1  0.4496480000000  0.5441170000000  0.4202440000000 1.0
C      1  0.4530350000000  0.5708970000000  0.4373090000000 1.0
C      1  0.5453510000000  0.4275890000000  0.5631380000000 1.0
C      1  0.5173150000000  0.4291180000000  0.4575630000000 1.0
C      1  0.4829010000000  0.5696850000000  0.5438460000000 1.0
C      1  0.5655590000000  0.4240560000000  0.4872600000000 1.0
C      1  0.4332450000000  0.5757100000000  0.5155370000000 1.0
C      1  0.4985620000000  0.5702510000000  0.4630260000000 1.0
C      1  0.4989180000000  0.4274490000000  0.5392780000000 1.0
C      1  0.5257490000000  0.5619140000000  0.4551720000000 1.0
C      1  0.4721060000000  0.4374450000000  0.5462960000000 1.0
C      1  0.4262070000000  0.4893200000000  0.5007770000000 1.0
C      1  0.5739220000000  0.5097290000000  0.4978350000000 1.0
C      1  0.4842530000000  0.5342840000000  0.4358080000000 1.0
C      1  0.5147300000000  0.4647670000000  0.5641960000000 1.0
C      1  0.4824480000000  0.4985030000000  0.6109000000000 1.0
C      1  0.5182190000000  0.5006800000000  0.3898420000000 1.0
C      1  0.4934450000000  0.4706530000000  0.4040030000000 1.0
C      1  0.5077200000000  0.5286840000000  0.5958820000000 1.0
C      1  0.5916530000000  0.4526230000000  0.4322980000000 1.0
C      1  0.4191160000000  0.5584580000000  0.5654460000000 1.0
C      1  0.4010690000000  0.4530440000000  0.4738120000000 1.0
C      1  0.5991500000000  0.5466500000000  0.5253680000000 1.0
C      1  0.4910550000000  0.5712630000000  0.4935290000000 1.0
C      1  0.5057940000000  0.4287030000000  0.5093740000000 1.0
C      1  0.4312200000000  0.4621890000000  0.5357510000000 1.0
C      1  0.5677630000000  0.5381450000000  0.4642030000000 1.0
C      1  0.4110510000000  0.4424260000000  0.5077160000000 1.0
C      1  0.5885380000000  0.5578530000000  0.4917980000000 1.0
C      1  0.5052930000000  0.5434820000000  0.5656590000000 1.0
C      1  0.4934300000000  0.4574250000000  0.4346840000000 1.0
C      1  0.5251180000000  0.5581030000000  0.5475690000000 1.0
C      1  0.4744230000000  0.4412710000000  0.4527540000000 1.0
C      1  0.5624530000000  0.5534600000000  0.5123260000000 1.0
C      1  0.4374700000000  0.4461490000000  0.4877030000000 1.0
C      1  0.3961970000000  0.5070620000000  0.5390510000000 1.0
C      1  0.6040610000000  0.4943890000000  0.4587840000000 1.0
C      1  0.3858630000000  0.4958930000000  0.4584790000000 1.0
C      1  0.6147930000000  0.5053770000000  0.5399860000000 1.0
C      1  0.4798520000000  0.5281880000000  0.6104810000000 1.0
C      1  0.5222620000000  0.4712140000000  0.3918790000000 1.0
C      1  0.4601210000000  0.5709690000000  0.5879170000000 1.0
C      1  0.5428550000000  0.4336820000000  0.4272280000000 1.0
C      1  0.4522920000000  0.4752730000000  0.5149960000000 1.0
C      1  0.5473620000000  0.5246910000000  0.4856420000000 1.0
C      1  0.4964670000000  0.5606630000000  0.3951150000000 1.0
C      1  0.5018240000000  0.4392920000000  0.6051860000000 1.0
C      1  0.4376250000000  0.5786770000000  0.5733300000000 1.0
C      1  0.5717610000000  0.4294850000000  0.4419750000000 1.0
C      1  0.4668330000000  0.5042750000000  0.5721130000000 1.0
C      1  0.5329590000000  0.4978760000000  0.4268880000000 1.0
C      1  0.4411300000000  0.4581840000000  0.5849620000000 1.0
C      1  0.5578650000000  0.5440150000000  0.4144730000000 1.0
C      1  0.5475370000000  0.6065210000000  0.4623440000000 1.0
C      1  0.4508570000000  0.3937980000000  0.5382690000000 1.0
C      1  0.4769310000000  0.4237750000000  0.5887020000000 1.0
C      1  0.5205890000000  0.5768910000000  0.4122120000000 1.0
C      1  0.5507190000000  0.4636580000000  0.5467820000000 1.0
C      1  0.4473470000000  0.5346690000000  0.4531190000000 1.0
C      1  0.4751370000000  0.4652830000000  0.5609910000000 1.0
C      1  0.5239300000000  0.5350120000000  0.4386950000000 1.0
C      1  0.5151960000000  0.5678050000000  0.5953910000000 1.0
C      1  0.4864130000000  0.4314140000000  0.4054280000000 1.0
C      1  0.4673840000000  0.5423640000000  0.4795490000000 1.0
C      1  0.5324710000000  0.4568160000000  0.5188780000000 1.0
C      1  0.4030960000000  0.4744360000000  0.5330040000000 1.0
C      1  0.5963600000000  0.5267310000000  0.4659400000000 1.0
C      1  0.5603050000000  0.5008450000000  0.5249140000000 1.0
C      1  0.4400420000000  0.4967670000000  0.4733740000000 1.0
C      1  0.5334900000000  0.4874550000000  0.4759950000000 1.0
C      1  0.4672840000000  0.5115070000000  0.5226820000000 1.0
C      1  0.4302160000000  0.6222980000000  0.4931610000000 1.0
C      1  0.5652890000000  0.3752410000000  0.5078660000000 1.0
C      1  0.4559360000000  0.4855290000000  0.5968100000000 1.0
C      1  0.5442520000000  0.5164900000000  0.4021140000000 1.0
C      1  0.5188900000000  0.5258000000000  0.4710440000000 1.0
C      1  0.4809300000000  0.4744140000000  0.5287140000000 1.0
C      1  0.3946160000000  0.5020190000000  0.5053740000000 1.0
C      1  0.6059280000000  0.4985710000000  0.4925830000000 1.0
C      1  0.6082680000000  0.4716340000000  0.5081620000000 1.0
C      1  0.3936790000000  0.5292400000000  0.4899020000000 1.0
C      1  0.5548600000000  0.5432270000000  0.5694230000000 1.0
C      1  0.4451720000000  0.4555930000000  0.4299320000000 1.0
C      1  0.5632790000000  0.5614130000000  0.4414200000000 1.0
C      1  0.4342690000000  0.4392500000000  0.5590230000000 1.0
C      1  0.4992910000000  0.5388460000000  0.4909000000000 1.0
C      1  0.5002820000000  0.4613550000000  0.5086580000000 1.0
C      1  0.4162120000000  0.4256500000000  0.5332950000000 1.0
C      1  0.5824120000000  0.5748480000000  0.4664450000000 1.0
C      1  0.5059260000000  0.4871190000000  0.5449030000000 1.0
C      1  0.4941750000000  0.5125130000000  0.4546380000000 1.0
C      1  0.4091930000000  0.5325730000000  0.4413020000000 1.0
C      1  0.5920420000000  0.4670560000000  0.5537140000000 1.0
C      1  0.4872520000000  0.5017670000000  0.4996920000000 1.0
C      1  0.5136330000000  0.4977490000000  0.4990370000000 1.0
C      1  0.5118180000000  0.4042600000000  0.4785340000000 1.0
C      1  0.4887750000000  0.5957870000000  0.5248570000000 1.0
C      1  0.4468860000000  0.3940290000000  0.4845380000000 1.0
C      1  0.5532830000000  0.6058490000000  0.5159790000000 1.0
C      1  0.4638030000000  0.4004350000000  0.4599620000000 1.0
C      1  0.5368620000000  0.5993630000000  0.5407950000000 1.0
C      1  0.4793120000000  0.4975100000000  0.4208980000000 1.0
C      1  0.5205160000000  0.5014170000000  0.5789950000000 1.0
C      1  0.4605140000000  0.5747610000000  0.4864570000000 1.0
C      1  0.5362800000000  0.4236000000000  0.5143070000000 1.0
C      1  0.5476700000000  0.4536800000000  0.4000570000000 1.0
C      1  0.4546980000000  0.5434630000000  0.6018260000000 1.0
C      1  0.5137330000000  0.4918670000000  0.6100860000000 1.0
C      1  0.4867810000000  0.5073580000000  0.3899170000000 1.0
C      1  0.4809820000000  0.4560770000000  0.5869540000000 1.0
C      1  0.5179340000000  0.5444010000000  0.4130460000000 1.0
C      1  0.5103860000000  0.4292670000000  0.4256450000000 1.0
C      1  0.4876660000000  0.5705620000000  0.5754780000000 1.0
C      1  0.4175400000000  0.5124740000000  0.4232860000000 1.0
C      1  0.5825140000000  0.4857440000000  0.5730750000000 1.0
C      1  0.3898600000000  0.5237580000000  0.4623600000000 1.0
C      1  0.6125010000000  0.4774490000000  0.5358200000000 1.0
C      1  0.5278400000000  0.5031190000000  0.5268140000000 1.0
C      1  0.4727510000000  0.4955650000000  0.4721960000000 1.0
C      1  0.4203110000000  0.5496810000000  0.4681690000000 1.0
C      1  0.5773870000000  0.4482860000000  0.5315400000000 1.0
END
