TITL C-2782225-7408-1176 0.0017828197819139 125000 -116.736871811093 0 0 21 (C1) n - 1
REM
REM in /home/nfs/bkarasulu/CARBON/AIRSS/Generating-Clusters/REBO/Higher-Symm/SD-CG/HFTN-CG
REM
REM
REM
REM
REM
REM ./C.cell (12c818d87b63d06a65506943cc24bca4)
REM
REM compiler GCC version 9.2.1 20190827 (Red Hat 9.2.1-1)
REM options -cpp -mtune=generic -march=x86-64 -g -O0 -fpre-include=/usr/include/finclude/math-vector-fortran.h
REM seed 2024954701 -154738507 129949390 1997866070 -1823699795 1617042902 1438232498 -1956692896 -1475808996 1124046696 492212004 -1957903593 585052339 312699544 2041287821 -1113620046 -1796537879 1309348856 1386332741 1799634241 732822181 826865825 -1191464117 -1043836165 1844052212 1160860863 1392621477 241989980 333876767 -1997520646 -2023425356 1470406132 1147645356
REM
CELL 1.54180   50.00000   50.00000   50.00000   90.00000   90.00000   90.00000
LATT -1
SFAC C  
C      1  0.5251310000000  0.4851680000000  0.5391400000000 1.0
C      1  0.4959580000000  0.5311160000000  0.4396150000000 1.0
C      1  0.4638870000000  0.4803840000000  0.5004100000000 1.0
C      1  0.4903180000000  0.4740060000000  0.5722770000000 1.0
C      1  0.4538520000000  0.4957800000000  0.4728900000000 1.0
C      1  0.5189880000000  0.5232340000000  0.4632660000000 1.0
C      1  0.4429010000000  0.4565110000000  0.5979260000000 1.0
C      1  0.5732770000000  0.5420530000000  0.4615410000000 1.0
C      1  0.4775610000000  0.4679720000000  0.5219760000000 1.0
C      1  0.4608800000000  0.4629780000000  0.5797070000000 1.0
C      1  0.5474830000000  0.5380390000000  0.4548160000000 1.0
C      1  0.5230680000000  0.4947200000000  0.5068800000000 1.0
C      1  0.5062410000000  0.4696070000000  0.5187620000000 1.0
C      1  0.5100130000000  0.5062930000000  0.4848210000000 1.0
C      1  0.5983530000000  0.5459560000000  0.4680780000000 1.0
C      1  0.5158130000000  0.4837820000000  0.5657570000000 1.0
C      1  0.4494450000000  0.5098100000000  0.4489720000000 1.0
C      1  0.5242280000000  0.5439610000000  0.4341600000000 1.0
C      1  0.4694130000000  0.4656290000000  0.5487510000000 1.0
C      1  0.4836220000000  0.4988250000000  0.4832780000000 1.0
C      1  0.4695690000000  0.5241780000000  0.4369790000000 1.0
END
