TITL C-2782233-7966-1218 0.000229631756566689 125000 -405.940747356202 0 0 70 (C1) n - 1
REM
REM in /home/nfs/bkarasulu/CARBON/AIRSS/Generating-Clusters/REBO/Higher-Symm/SD-CG/HFTN-CG
REM
REM
REM
REM
REM
REM ./C.cell (12c818d87b63d06a65506943cc24bca4)
REM
REM compiler GCC version 9.2.1 20190827 (Red Hat 9.2.1-1)
REM options -cpp -mtune=generic -march=x86-64 -g -O0 -fpre-include=/usr/include/finclude/math-vector-fortran.h
REM seed 493346500 642525212 -1053873957 -888715527 -1625430139 343890715 -211578429 210786050 -390837155 1585891255 139128568 -277649917 -1481405335 1712198249 1671600025 -1302721931 841257806 -80116147 1995430439 -859205786 -783500485 2064010034 -403945099 -177776750 -344405784 -1072500182 1784106471 -346569606 -1876892309 -1464891383 -605238928 -1729637167 1805222560
REM
CELL 1.54180   50.00000   50.00000   50.00000   90.00000   90.00000   90.00000
LATT -1
SFAC C  
C      1  0.5183900000000  0.4875980000000  0.5093350000000 1.0
C      1  0.4853400000000  0.4851670000000  0.4814130000000 1.0
C      1  0.4852830000000  0.4885010000000  0.5152850000000 1.0
C      1  0.5183200000000  0.4878060000000  0.4757030000000 1.0
C      1  0.5231410000000  0.4720090000000  0.4494440000000 1.0
C      1  0.4706910000000  0.4804990000000  0.5423920000000 1.0
C      1  0.4676820000000  0.4763910000000  0.4569940000000 1.0
C      1  0.5297330000000  0.4757120000000  0.5510390000000 1.0
C      1  0.5213860000000  0.4876060000000  0.5752150000000 1.0
C      1  0.4761140000000  0.4857040000000  0.4287430000000 1.0
C      1  0.4734100000000  0.4900170000000  0.5716620000000 1.0
C      1  0.5266300000000  0.4881750000000  0.4268080000000 1.0
C      1  0.5279700000000  0.5188430000000  0.5190740000000 1.0
C      1  0.4913350000000  0.5162000000000  0.4834220000000 1.0
C      1  0.4954350000000  0.5195330000000  0.5146540000000 1.0
C      1  0.5240040000000  0.5195910000000  0.4866620000000 1.0
C      1  0.4262490000000  0.4661530000000  0.5295890000000 1.0
C      1  0.5673870000000  0.4623280000000  0.4647960000000 1.0
C      1  0.5743030000000  0.4652530000000  0.5337100000000 1.0
C      1  0.4220960000000  0.4622650000000  0.4670340000000 1.0
C      1  0.4879390000000  0.5607610000000  0.5470520000000 1.0
C      1  0.5118260000000  0.5603560000000  0.4553600000000 1.0
C      1  0.5186040000000  0.5608240000000  0.5536950000000 1.0
C      1  0.4808960000000  0.5582910000000  0.4487390000000 1.0
C      1  0.5261960000000  0.4384320000000  0.4845150000000 1.0
C      1  0.4704170000000  0.4382750000000  0.5170120000000 1.0
C      1  0.4649530000000  0.4360100000000  0.4857120000000 1.0
C      1  0.5311470000000  0.4432090000000  0.5150840000000 1.0
C      1  0.5383770000000  0.5455910000000  0.5307670000000 1.0
C      1  0.4719880000000  0.5358930000000  0.4730610000000 1.0
C      1  0.4759930000000  0.5389690000000  0.5244490000000 1.0
C      1  0.5342160000000  0.5468880000000  0.4764650000000 1.0
C      1  0.4811720000000  0.4486660000000  0.4660060000000 1.0
C      1  0.5154500000000  0.4563330000000  0.5352220000000 1.0
C      1  0.5096350000000  0.4488160000000  0.4638200000000 1.0
C      1  0.4868100000000  0.4536630000000  0.5344800000000 1.0
C      1  0.4293840000000  0.5154270000000  0.5150710000000 1.0
C      1  0.5700760000000  0.5150550000000  0.4865970000000 1.0
C      1  0.5673870000000  0.5123900000000  0.5197730000000 1.0
C      1  0.4268410000000  0.5116010000000  0.4820530000000 1.0
C      1  0.5302460000000  0.5338500000000  0.5677030000000 1.0
C      1  0.4676200000000  0.5321120000000  0.4340990000000 1.0
C      1  0.4698010000000  0.5368760000000  0.5631440000000 1.0
C      1  0.5277590000000  0.5348280000000  0.4394890000000 1.0
C      1  0.4396020000000  0.4457860000000  0.5146960000000 1.0
C      1  0.5566770000000  0.4463330000000  0.4847520000000 1.0
C      1  0.5624860000000  0.4474200000000  0.5155060000000 1.0
C      1  0.4338430000000  0.4427960000000  0.4840350000000 1.0
C      1  0.5673530000000  0.4959330000000  0.4606130000000 1.0
C      1  0.4424300000000  0.4915240000000  0.5335580000000 1.0
C      1  0.4391140000000  0.4871160000000  0.4633150000000 1.0
C      1  0.5558050000000  0.4885850000000  0.5403630000000 1.0
C      1  0.3974200000000  0.4599390000000  0.4549250000000 1.0
C      1  0.5997170000000  0.4635770000000  0.5442190000000 1.0
C      1  0.5880430000000  0.4748190000000  0.4443580000000 1.0
C      1  0.3999290000000  0.4647870000000  0.5378020000000 1.0
C      1  0.5179320000000  0.5705020000000  0.5207800000000 1.0
C      1  0.4823650000000  0.5668660000000  0.4816650000000 1.0
C      1  0.4846770000000  0.5685500000000  0.5137220000000 1.0
C      1  0.5153090000000  0.5703660000000  0.4883250000000 1.0
C      1  0.5543540000000  0.5215830000000  0.5488550000000 1.0
C      1  0.4473800000000  0.5201260000000  0.4586540000000 1.0
C      1  0.4506200000000  0.5246220000000  0.5378050000000 1.0
C      1  0.5528020000000  0.5255380000000  0.4596100000000 1.0
C      1  0.5143160000000  0.5141560000000  0.4255600000000 1.0
C      1  0.4840020000000  0.5161380000000  0.5766550000000 1.0
C      1  0.4855190000000  0.5123110000000  0.4242230000000 1.0
C      1  0.5125850000000  0.5146180000000  0.5783210000000 1.0
C      1  0.4026120000000  0.5237350000000  0.4993180000000 1.0
C      1  0.5934790000000  0.5253980000000  0.5060200000000 1.0
END
