TITL C-2782234-8014-759 0.141693508636652 125000 -286.267485070401 0 0 59 (C3) n - 1
REM
REM in /home/nfs/bkarasulu/CARBON/AIRSS/Generating-Clusters/REBO/Higher-Symm/SD-CG/HFTN-CG
REM
REM
REM
REM
REM
REM ./C.cell (12c818d87b63d06a65506943cc24bca4)
REM
REM compiler GCC version 9.2.1 20190827 (Red Hat 9.2.1-1)
REM options -cpp -mtune=generic -march=x86-64 -g -O0 -fpre-include=/usr/include/finclude/math-vector-fortran.h
REM seed 1997517392 617491100 878965088 1874770540 1734657250 1301415554 224968015 1976331804 1561311481 403880292 -1868552057 45842227 -696976109 808535437 1759827104 -595073606 -934995083 -1357015453 -290403283 -570538316 652635250 -417274552 -119499096 -1949559808 1280489980 752261894 -1817192065 430556865 -274829518 -1329884428 1692480918 -1722700110 -1250602749
REM
CELL 1.54180   50.00000   50.00000   50.00000   90.00000   90.00000   90.00000
LATT -1
SFAC C  
C      1  0.5018740000000  0.4422330000000  0.5625790000000 1.0
C      1  0.5639330000000  0.4986700000000  0.4507830000000 1.0
C      1  0.4397940000000  0.5585720000000  0.4996030000000 1.0
C      1  0.4995430000000  0.5515570000000  0.5656510000000 1.0
C      1  0.4992280000000  0.4390880000000  0.4395440000000 1.0
C      1  0.4993770000000  0.5473400000000  0.4348970000000 1.0
C      1  0.4331800000000  0.4988380000000  0.4465580000000 1.0
C      1  0.4362460000000  0.5011640000000  0.5558820000000 1.0
C      1  0.5592800000000  0.4985160000000  0.5590340000000 1.0
C      1  0.5522690000000  0.4324710000000  0.4992810000000 1.0
C      1  0.5480460000000  0.5632240000000  0.4994550000000 1.0
C      1  0.4429450000000  0.4355380000000  0.4969490000000 1.0
C      1  0.5132480000000  0.5141660000000  0.4563390000000 1.0
C      1  0.4672420000000  0.4990900000000  0.5167140000000 1.0
C      1  0.5155620000000  0.4658620000000  0.5005330000000 1.0
C      1  0.4990190000000  0.4817050000000  0.4662900000000 1.0
C      1  0.4982930000000  0.5148520000000  0.5322570000000 1.0
C      1  0.4997990000000  0.4814030000000  0.5315850000000 1.0
C      1  0.5325370000000  0.4983090000000  0.5164160000000 1.0
C      1  0.5424900000000  0.5125400000000  0.4839560000000 1.0
C      1  0.4665710000000  0.4975860000000  0.4832650000000 1.0
C      1  0.4824120000000  0.5318290000000  0.4998110000000 1.0
C      1  0.4821130000000  0.4665330000000  0.4990270000000 1.0
C      1  0.5148730000000  0.5417820000000  0.4855820000000 1.0
C      1  0.5256600000000  0.4358950000000  0.4809220000000 1.0
C      1  0.4799130000000  0.5261010000000  0.4456230000000 1.0
C      1  0.4382570000000  0.4807000000000  0.5307110000000 1.0
C      1  0.4693540000000  0.5630590000000  0.4850530000000 1.0
C      1  0.4681150000000  0.4375480000000  0.5174150000000 1.0
C      1  0.5268070000000  0.5524960000000  0.5189180000000 1.0
C      1  0.5137780000000  0.4686480000000  0.4350600000000 1.0
C      1  0.5179020000000  0.5249490000000  0.5622270000000 1.0
C      1  0.4814090000000  0.4674040000000  0.5605690000000 1.0
C      1  0.5637670000000  0.5130680000000  0.5294750000000 1.0
C      1  0.5532060000000  0.4792050000000  0.4720210000000 1.0
C      1  0.4366030000000  0.5171960000000  0.4731680000000 1.0
C      1  0.5249910000000  0.5403650000000  0.4415660000000 1.0
C      1  0.4611070000000  0.5096550000000  0.5459450000000 1.0
C      1  0.5449430000000  0.4589750000000  0.5071430000000 1.0
C      1  0.4928470000000  0.4508620000000  0.4640040000000 1.0
C      1  0.4916830000000  0.5442320000000  0.5391450000000 1.0
C      1  0.5103650000000  0.4521730000000  0.5377180000000 1.0
C      1  0.5348210000000  0.4921360000000  0.5472590000000 1.0
C      1  0.5572640000000  0.5242840000000  0.4577590000000 1.0
C      1  0.4596850000000  0.4909770000000  0.4538840000000 1.0
C      1  0.4515690000000  0.5341120000000  0.5059820000000 1.0
C      1  0.4528830000000  0.4603990000000  0.4884600000000 1.0
C      1  0.5410710000000  0.5565560000000  0.4738400000000 1.0
C      1  0.4370610000000  0.4980710000000  0.5013700000000 1.0
C      1  0.4974570000000  0.4363520000000  0.5000460000000 1.0
C      1  0.5623420000000  0.4926040000000  0.5021330000000 1.0
C      1  0.4966950000000  0.5616330000000  0.5055180000000 1.0
C      1  0.4933130000000  0.4959890000000  0.4364850000000 1.0
C      1  0.4987790000000  0.4967460000000  0.5617670000000 1.0
C      1  0.4608540000000  0.5360870000000  0.4664670000000 1.0
C      1  0.5323630000000  0.4601470000000  0.4620320000000 1.0
C      1  0.5367940000000  0.5316520000000  0.5379760000000 1.0
C      1  0.4608920000000  0.4601830000000  0.5379330000000 1.0
C      1  0.5073130000000  0.5066040000000  0.4915160000000 1.0
END
