TITL C-2782230-7391-1301 -0.000963507021813221 125000 -135.256598579081 0 0 24 (C1) n - 1
REM
REM in /home/nfs/bkarasulu/CARBON/AIRSS/Generating-Clusters/REBO/Higher-Symm/SD-CG/HFTN-CG
REM
REM
REM
REM
REM
REM ./C.cell (12c818d87b63d06a65506943cc24bca4)
REM
REM compiler GCC version 9.2.1 20190827 (Red Hat 9.2.1-1)
REM options -cpp -mtune=generic -march=x86-64 -g -O0 -fpre-include=/usr/include/finclude/math-vector-fortran.h
REM seed -1455459503 -1361302036 697503121 -1435988659 295026910 1289551305 -1189912790 1171060511 660446923 -879941088 -1839451960 2070006580 -853533247 -900524614 1853713874 -663498296 1628647818 710782884 296012558 808351030 195740958 894623864 -328070159 -1217353264 -359272855 -111599429 1392438933 633223906 -167071302 703275987 -92648854 885492673 -1310845728
REM
CELL 1.54180   50.00000   50.00000   50.00000   90.00000   90.00000   90.00000
LATT -1
SFAC C  
C      1  0.5193520000000  0.5375270000000  0.5084310000000 1.0
C      1  0.5393040000000  0.4906250000000  0.5314420000000 1.0
C      1  0.5044040000000  0.4992490000000  0.4251110000000 1.0
C      1  0.4986270000000  0.4770740000000  0.4693600000000 1.0
C      1  0.4980470000000  0.5016740000000  0.3998020000000 1.0
C      1  0.5401910000000  0.5175240000000  0.5140160000000 1.0
C      1  0.5111660000000  0.4966700000000  0.4520300000000 1.0
C      1  0.4703270000000  0.4742260000000  0.4687530000000 1.0
C      1  0.4679440000000  0.5195040000000  0.5306250000000 1.0
C      1  0.5476740000000  0.5049030000000  0.4848320000000 1.0
C      1  0.5228470000000  0.4791770000000  0.5510760000000 1.0
C      1  0.4535040000000  0.4932530000000  0.5309650000000 1.0
C      1  0.4731830000000  0.4708480000000  0.5379250000000 1.0
C      1  0.4918880000000  0.5653050000000  0.5413190000000 1.0
C      1  0.5385620000000  0.4799540000000  0.5011710000000 1.0
C      1  0.4477250000000  0.4789600000000  0.4831180000000 1.0
C      1  0.4382060000000  0.4872230000000  0.5074420000000 1.0
C      1  0.4940570000000  0.5414240000000  0.5281650000000 1.0
C      1  0.4975850000000  0.4695450000000  0.5557660000000 1.0
C      1  0.4948880000000  0.4803440000000  0.5173710000000 1.0
C      1  0.5111830000000  0.4717500000000  0.4950650000000 1.0
C      1  0.4956550000000  0.5083200000000  0.5210240000000 1.0
C      1  0.5281080000000  0.5161560000000  0.4655940000000 1.0
C      1  0.5155710000000  0.5387660000000  0.4795960000000 1.0
END
