TITL C-2782239-8622-1302 0.00186339338409922 125000 -761.88298220695 0 0 131 (C1) n - 1
REM
REM in /home/nfs/bkarasulu/CARBON/AIRSS/Generating-Clusters/REBO/Higher-Symm/SD-CG/HFTN-CG
REM
REM
REM
REM
REM
REM ./C.cell (12c818d87b63d06a65506943cc24bca4)
REM
REM compiler GCC version 9.2.1 20190827 (Red Hat 9.2.1-1)
REM options -cpp -mtune=generic -march=x86-64 -g -O0 -fpre-include=/usr/include/finclude/math-vector-fortran.h
REM seed -713571188 -1734645244 713296430 1473677732 -1537714750 -266916997 648233503 680437830 1776664892 -1042160400 -1715603438 400658356 438829883 222249188 -758396173 -1066965181 1768045575 -1227737680 -1277663369 -480758939 1190004578 -1463807052 -1394711769 2068897893 -1139072966 1864803649 -1101457417 -1952228412 1418509352 -1246410459 1974038023 -543968387 -393770174
REM
CELL 1.54180   50.00000   50.00000   50.00000   90.00000   90.00000   90.00000
LATT -1
SFAC C  
C      1  0.5547960000000  0.5420590000000  0.4294180000000 1.0
C      1  0.5900210000000  0.5408790000000  0.5037330000000 1.0
C      1  0.5582070000000  0.5385790000000  0.5710920000000 1.0
C      1  0.4789310000000  0.5462190000000  0.5809510000000 1.0
C      1  0.4162030000000  0.5391170000000  0.5399510000000 1.0
C      1  0.4168850000000  0.5375960000000  0.4742040000000 1.0
C      1  0.4802910000000  0.5470050000000  0.4181150000000 1.0
C      1  0.4677890000000  0.4835610000000  0.4818830000000 1.0
C      1  0.4949220000000  0.4841450000000  0.4631240000000 1.0
C      1  0.5260000000000  0.4835480000000  0.4733560000000 1.0
C      1  0.5396020000000  0.4829470000000  0.5034090000000 1.0
C      1  0.5234200000000  0.4823780000000  0.5329520000000 1.0
C      1  0.4902380000000  0.4825570000000  0.5374480000000 1.0
C      1  0.4651730000000  0.4829430000000  0.5147560000000 1.0
C      1  0.4109510000000  0.4759090000000  0.4964660000000 1.0
C      1  0.4447360000000  0.4749580000000  0.4276430000000 1.0
C      1  0.5211380000000  0.4827170000000  0.4156850000000 1.0
C      1  0.5805650000000  0.4800780000000  0.4648400000000 1.0
C      1  0.5800130000000  0.4782380000000  0.5423060000000 1.0
C      1  0.5197420000000  0.4743690000000  0.5898980000000 1.0
C      1  0.4457550000000  0.4838720000000  0.5651010000000 1.0
C      1  0.4631610000000  0.5404320000000  0.5070710000000 1.0
C      1  0.4680600000000  0.5345680000000  0.4791360000000 1.0
C      1  0.4954620000000  0.5260240000000  0.4668310000000 1.0
C      1  0.5216830000000  0.5294030000000  0.4845970000000 1.0
C      1  0.5308390000000  0.5380080000000  0.5153400000000 1.0
C      1  0.5063760000000  0.5197310000000  0.5200980000000 1.0
C      1  0.4834830000000  0.5337290000000  0.5278600000000 1.0
C      1  0.4793350000000  0.5114100000000  0.4358800000000 1.0
C      1  0.5352370000000  0.5146950000000  0.4504670000000 1.0
C      1  0.5732800000000  0.5050640000000  0.4952040000000 1.0
C      1  0.5506670000000  0.5023370000000  0.5561090000000 1.0
C      1  0.4936240000000  0.5109190000000  0.5692220000000 1.0
C      1  0.4424320000000  0.5107860000000  0.5315390000000 1.0
C      1  0.4327540000000  0.5005390000000  0.4734640000000 1.0
C      1  0.5078800000000  0.5575400000000  0.4274270000000 1.0
C      1  0.5613360000000  0.5551800000000  0.4603060000000 1.0
C      1  0.5961700000000  0.5678080000000  0.5062850000000 1.0
C      1  0.5322650000000  0.5547510000000  0.5704500000000 1.0
C      1  0.4763400000000  0.5701840000000  0.5662360000000 1.0
C      1  0.4160840000000  0.5631490000000  0.5201220000000 1.0
C      1  0.4387590000000  0.5556640000000  0.4623910000000 1.0
C      1  0.4199390000000  0.4885950000000  0.4429500000000 1.0
C      1  0.4908040000000  0.4945890000000  0.4077930000000 1.0
C      1  0.5732930000000  0.4934370000000  0.4365810000000 1.0
C      1  0.5970330000000  0.4924500000000  0.5170890000000 1.0
C      1  0.5484460000000  0.4899130000000  0.5883990000000 1.0
C      1  0.4690340000000  0.4950060000000  0.5873750000000 1.0
C      1  0.4046310000000  0.4885940000000  0.5249360000000 1.0
C      1  0.4382530000000  0.5282700000000  0.5589170000000 1.0
C      1  0.4085970000000  0.5386350000000  0.5008780000000 1.0
C      1  0.4563340000000  0.5374010000000  0.4391760000000 1.0
C      1  0.5301660000000  0.5405970000000  0.4151510000000 1.0
C      1  0.5789590000000  0.5307330000000  0.4745310000000 1.0
C      1  0.5744790000000  0.5256530000000  0.5491880000000 1.0
C      1  0.5093390000000  0.5351040000000  0.5839710000000 1.0
C      1  0.5851160000000  0.4427630000000  0.4976470000000 1.0
C      1  0.5549220000000  0.4412980000000  0.5648740000000 1.0
C      1  0.4839100000000  0.4408600000000  0.5845260000000 1.0
C      1  0.4290990000000  0.4460010000000  0.5374760000000 1.0
C      1  0.4231620000000  0.4393180000000  0.4644940000000 1.0
C      1  0.4794200000000  0.4416730000000  0.4162120000000 1.0
C      1  0.5502580000000  0.4469000000000  0.4331910000000 1.0
C      1  0.4194640000000  0.4754720000000  0.5449720000000 1.0
C      1  0.4090360000000  0.4682660000000  0.4636670000000 1.0
C      1  0.4711070000000  0.4710620000000  0.4068480000000 1.0
C      1  0.5540690000000  0.4773270000000  0.4229980000000 1.0
C      1  0.5971170000000  0.4723410000000  0.4933050000000 1.0
C      1  0.5671940000000  0.4699680000000  0.5725970000000 1.0
C      1  0.4865380000000  0.4705330000000  0.5961570000000 1.0
C      1  0.4739490000000  0.4194050000000  0.4709310000000 1.0
C      1  0.5062040000000  0.4197930000000  0.4597900000000 1.0
C      1  0.5342390000000  0.4191190000000  0.4792430000000 1.0
C      1  0.5373620000000  0.4183810000000  0.5132340000000 1.0
C      1  0.5131910000000  0.4181980000000  0.5373500000000 1.0
C      1  0.4793000000000  0.4184330000000  0.5331000000000 1.0
C      1  0.4628990000000  0.4186800000000  0.5031890000000 1.0
C      1  0.5735840000000  0.5218840000000  0.4421270000000 1.0
C      1  0.5902350000000  0.5232460000000  0.5261970000000 1.0
C      1  0.5400070000000  0.5211580000000  0.5895610000000 1.0
C      1  0.4584090000000  0.5264320000000  0.5794960000000 1.0
C      1  0.4029160000000  0.5164750000000  0.5232080000000 1.0
C      1  0.4278520000000  0.5209810000000  0.4467980000000 1.0
C      1  0.5011070000000  0.5255880000000  0.4055340000000 1.0
C      1  0.4534900000000  0.4441620000000  0.4300450000000 1.0
C      1  0.5237810000000  0.4515560000000  0.4221690000000 1.0
C      1  0.5760850000000  0.4483490000000  0.4702120000000 1.0
C      1  0.5711720000000  0.4468380000000  0.5409090000000 1.0
C      1  0.5130590000000  0.4438190000000  0.5833930000000 1.0
C      1  0.4485510000000  0.4520730000000  0.5582210000000 1.0
C      1  0.4190710000000  0.4444790000000  0.4933520000000 1.0
C      1  0.4627080000000  0.4511400000000  0.4916010000000 1.0
C      1  0.4837870000000  0.4518480000000  0.4648350000000 1.0
C      1  0.5177990000000  0.4518720000000  0.4646550000000 1.0
C      1  0.5393180000000  0.4510340000000  0.4911610000000 1.0
C      1  0.5319380000000  0.4504610000000  0.5244350000000 1.0
C      1  0.5013270000000  0.4504230000000  0.5394160000000 1.0
C      1  0.4705260000000  0.4507900000000  0.5248260000000 1.0
C      1  0.4223300000000  0.5889740000000  0.5187770000000 1.0
C      1  0.4461740000000  0.5759130000000  0.4824180000000 1.0
C      1  0.4660970000000  0.5812030000000  0.4482780000000 1.0
C      1  0.5779080000000  0.5808870000000  0.4575600000000 1.0
C      1  0.5916800000000  0.6022500000000  0.4552770000000 1.0
C      1  0.5280840000000  0.5760670000000  0.5551360000000 1.0
C      1  0.4893140000000  0.5961280000000  0.5566260000000 1.0
C      1  0.5677750000000  0.4330840000000  0.5174540000000 1.0
C      1  0.5288320000000  0.4310530000000  0.5647000000000 1.0
C      1  0.4693200000000  0.4344650000000  0.5614560000000 1.0
C      1  0.4340430000000  0.4332530000000  0.5132350000000 1.0
C      1  0.4474640000000  0.4306240000000  0.4533130000000 1.0
C      1  0.5031980000000  0.4347660000000  0.4293790000000 1.0
C      1  0.5554360000000  0.4352520000000  0.4580460000000 1.0
C      1  0.4560360000000  0.5697960000000  0.5089750000000 1.0
C      1  0.4782350000000  0.5610690000000  0.4627960000000 1.0
C      1  0.5097220000000  0.5559550000000  0.4573760000000 1.0
C      1  0.5356010000000  0.5598010000000  0.4779820000000 1.0
C      1  0.5325030000000  0.5691040000000  0.5109160000000 1.0
C      1  0.5080630000000  0.5851770000000  0.5297130000000 1.0
C      1  0.4786440000000  0.5653460000000  0.5341230000000 1.0
C      1  0.5534700000000  0.5002360000000  0.4702920000000 1.0
C      1  0.5587950000000  0.4982430000000  0.5246740000000 1.0
C      1  0.5185190000000  0.4940700000000  0.5629520000000 1.0
C      1  0.4686310000000  0.5030890000000  0.5487840000000 1.0
C      1  0.4370720000000  0.4968480000000  0.5034400000000 1.0
C      1  0.4581770000000  0.4941070000000  0.4516000000000 1.0
C      1  0.5119720000000  0.5014550000000  0.4405060000000 1.0
C      1  0.5023780000000  0.4973550000000  0.5024910000000 1.0
C      1  0.5010370000000  0.4438190000000  0.5000000000000 1.0
C      1  0.4994200000000  0.5527750000000  0.4956220000000 1.0
C      1  0.4950090000000  0.5770870000000  0.4998050000000 1.0
C      1  0.5003710000000  0.4701830000000  0.5008250000000 1.0
END
