TITL C-2782227-3064-700 0.000109367552425193 125000 -458.723205263004 0 0 83 (C1) n - 1
REM
REM in /home/nfs/bkarasulu/CARBON/AIRSS/Generating-Clusters/REBO/Higher-Symm/SD-CG/HFTN-CG
REM
REM
REM
REM
REM
REM ./C.cell (12c818d87b63d06a65506943cc24bca4)
REM
REM compiler GCC version 9.2.1 20190827 (Red Hat 9.2.1-1)
REM options -cpp -mtune=generic -march=x86-64 -g -O0 -fpre-include=/usr/include/finclude/math-vector-fortran.h
REM seed 1702359052 -1047758801 2027622727 -2053682001 909127873 -774445003 1980790488 415400268 1814929535 -500666215 2080843309 2082929601 1005453300 -982081656 641112864 -260838291 -378288110 674250613 445719942 -1860607209 1228502529 1711044467 -798982630 1092756484 1479359863 462758297 1439634830 558121620 -1685698476 1308946118 1369879492 -95001219 -1977798955
REM
CELL 1.54180   50.00000   50.00000   50.00000   90.00000   90.00000   90.00000
LATT -1
SFAC C  
C      1  0.4693690000000  0.5219030000000  0.5088010000000 1.0
C      1  0.5304070000000  0.4736500000000  0.4893780000000 1.0
C      1  0.5114740000000  0.5053910000000  0.5696840000000 1.0
C      1  0.4882080000000  0.4939330000000  0.4301780000000 1.0
C      1  0.4446260000000  0.5008160000000  0.5818240000000 1.0
C      1  0.5575910000000  0.4982830000000  0.4205690000000 1.0
C      1  0.4523080000000  0.4661730000000  0.4516930000000 1.0
C      1  0.5460440000000  0.5349360000000  0.5488820000000 1.0
C      1  0.5110560000000  0.4836770000000  0.4643670000000 1.0
C      1  0.4897370000000  0.5120290000000  0.5343590000000 1.0
C      1  0.4220490000000  0.4833340000000  0.5184080000000 1.0
C      1  0.5920390000000  0.5278290000000  0.4837850000000 1.0
C      1  0.5322290000000  0.4978670000000  0.5132400000000 1.0
C      1  0.4652380000000  0.4984760000000  0.4859450000000 1.0
C      1  0.4450160000000  0.5586540000000  0.5353690000000 1.0
C      1  0.5479240000000  0.4490200000000  0.4754010000000 1.0
C      1  0.5029990000000  0.5733530000000  0.4878140000000 1.0
C      1  0.4962280000000  0.4294820000000  0.5086360000000 1.0
C      1  0.5620670000000  0.4712360000000  0.5134400000000 1.0
C      1  0.4366760000000  0.5480450000000  0.4870490000000 1.0
C      1  0.4984910000000  0.5433660000000  0.4427380000000 1.0
C      1  0.4971350000000  0.4542190000000  0.5579570000000 1.0
C      1  0.4633570000000  0.5552970000000  0.5551730000000 1.0
C      1  0.5371700000000  0.4452010000000  0.4474680000000 1.0
C      1  0.4778540000000  0.4443490000000  0.4522190000000 1.0
C      1  0.5209770000000  0.5556090000000  0.5450540000000 1.0
C      1  0.5158030000000  0.5659920000000  0.4609410000000 1.0
C      1  0.4819930000000  0.4347640000000  0.5351910000000 1.0
C      1  0.4897440000000  0.4227810000000  0.5654050000000 1.0
C      1  0.5066880000000  0.5728100000000  0.4296760000000 1.0
C      1  0.5525900000000  0.5167120000000  0.4971170000000 1.0
C      1  0.4603170000000  0.4730180000000  0.5047550000000 1.0
C      1  0.5002810000000  0.5412830000000  0.5243480000000 1.0
C      1  0.4980690000000  0.4548600000000  0.4760590000000 1.0
C      1  0.5463280000000  0.5501020000000  0.4987680000000 1.0
C      1  0.4505200000000  0.4430720000000  0.4968970000000 1.0
C      1  0.5695870000000  0.4744620000000  0.4820830000000 1.0
C      1  0.4384390000000  0.5316040000000  0.5168680000000 1.0
C      1  0.4500110000000  0.4776060000000  0.5374910000000 1.0
C      1  0.5442240000000  0.5204830000000  0.4641170000000 1.0
C      1  0.4921540000000  0.4733790000000  0.5010180000000 1.0
C      1  0.5033270000000  0.5339150000000  0.4918500000000 1.0
C      1  0.4754710000000  0.4312430000000  0.4835110000000 1.0
C      1  0.5224030000000  0.5628950000000  0.5117280000000 1.0
C      1  0.5711020000000  0.5236650000000  0.5464430000000 1.0
C      1  0.4298690000000  0.4803070000000  0.4580390000000 1.0
C      1  0.5120010000000  0.5156810000000  0.4575030000000 1.0
C      1  0.4836130000000  0.4813870000000  0.5423240000000 1.0
C      1  0.4898610000000  0.4033920000000  0.5821090000000 1.0
C      1  0.5062850000000  0.5890240000000  0.4098720000000 1.0
C      1  0.4776280000000  0.4840550000000  0.4581580000000 1.0
C      1  0.5233820000000  0.5140730000000  0.5418620000000 1.0
C      1  0.5129830000000  0.4726830000000  0.5269220000000 1.0
C      1  0.4810810000000  0.5216820000000  0.4707600000000 1.0
C      1  0.5431600000000  0.5546690000000  0.4657390000000 1.0
C      1  0.4532430000000  0.4440580000000  0.5313320000000 1.0
C      1  0.5229920000000  0.4111700000000  0.5094580000000 1.0
C      1  0.4730180000000  0.5844730000000  0.4926070000000 1.0
C      1  0.4397170000000  0.5309330000000  0.4650590000000 1.0
C      1  0.5575910000000  0.4707170000000  0.5439900000000 1.0
C      1  0.4405190000000  0.4788510000000  0.5699110000000 1.0
C      1  0.5594490000000  0.5198590000000  0.4337000000000 1.0
C      1  0.4468290000000  0.5113980000000  0.5431590000000 1.0
C      1  0.5518160000000  0.4875410000000  0.4586600000000 1.0
C      1  0.4617430000000  0.5254750000000  0.5698610000000 1.0
C      1  0.5392940000000  0.4737740000000  0.4305260000000 1.0
C      1  0.4924360000000  0.5500250000000  0.5624780000000 1.0
C      1  0.5078590000000  0.4501700000000  0.4376340000000 1.0
C      1  0.5269120000000  0.4416680000000  0.5001170000000 1.0
C      1  0.4755080000000  0.5526630000000  0.4954350000000 1.0
C      1  0.4763450000000  0.5171830000000  0.4222470000000 1.0
C      1  0.5196490000000  0.4806670000000  0.5775080000000 1.0
C      1  0.5737950000000  0.5476000000000  0.4789090000000 1.0
C      1  0.4286570000000  0.4289460000000  0.5162180000000 1.0
C      1  0.4281650000000  0.5051860000000  0.4725380000000 1.0
C      1  0.5760020000000  0.4967530000000  0.5317270000000 1.0
C      1  0.4652720000000  0.5362020000000  0.4462770000000 1.0
C      1  0.5299760000000  0.4618850000000  0.5532620000000 1.0
C      1  0.4234700000000  0.5050410000000  0.5014770000000 1.0
C      1  0.5822120000000  0.5015210000000  0.4985830000000 1.0
C      1  0.4929380000000  0.5240580000000  0.5779280000000 1.0
C      1  0.5080660000000  0.4762720000000  0.4220350000000 1.0
C      1  0.5035850000000  0.5033180000000  0.4980530000000 1.0
END
