TITL C-2782233-7966-225 -1.93722977250269e-08 125000 -117.870754518377 0 0 20 (D3) n - 1
REM
REM in /home/nfs/bkarasulu/CARBON/AIRSS/Generating-Clusters/REBO/Higher-Symm/SD-CG/HFTN-CG
REM
REM
REM
REM
REM
REM ./C.cell (12c818d87b63d06a65506943cc24bca4)
REM
REM compiler GCC version 9.2.1 20190827 (Red Hat 9.2.1-1)
REM options -cpp -mtune=generic -march=x86-64 -g -O0 -fpre-include=/usr/include/finclude/math-vector-fortran.h
REM seed -2024441801 1553155654 636757521 254840971 -1672127410 -1256624289 2068387773 -287311910 -1074611589 313640549 1076869104 -1729566824 358464293 2107038233 -1465585938 758483309 -1929881074 -815623004 -898835700 164366824 744077586 -1879361541 1782747207 1926425481 -879310757 -331923393 -685709889 860608609 -1646940519 -771681886 157459931 -173531111 -1245682231
REM
CELL 1.54180   50.00000   50.00000   50.00000   90.00000   90.00000   90.00000
LATT -1
SFAC C  
C      1  0.5143190000000  0.4768490000000  0.4679740000000 1.0
C      1  0.4703700000000  0.4975970000000  0.4679750000000 1.0
C      1  0.5103130000000  0.5252840000000  0.4679760000000 1.0
C      1  0.5143180000000  0.5229690000000  0.5384460000000 1.0
C      1  0.4703690000000  0.5022200000000  0.5384450000000 1.0
C      1  0.5103130000000  0.4745330000000  0.5384440000000 1.0
C      1  0.4614670000000  0.5371260000000  0.5064710000000 1.0
C      1  0.5489980000000  0.5132270000000  0.5064710000000 1.0
C      1  0.4845350000000  0.4493720000000  0.5064680000000 1.0
C      1  0.4614670000000  0.4626910000000  0.4999490000000 1.0
C      1  0.5489980000000  0.4865900000000  0.4999510000000 1.0
C      1  0.4845350000000  0.5504450000000  0.4999530000000 1.0
C      1  0.5098620000000  0.4601280000000  0.5137770000000 1.0
C      1  0.4581180000000  0.5098140000000  0.5137790000000 1.0
C      1  0.5270200000000  0.5297830000000  0.5137800000000 1.0
C      1  0.5098630000000  0.5396900000000  0.4926430000000 1.0
C      1  0.4581180000000  0.4900030000000  0.4926410000000 1.0
C      1  0.5270200000000  0.4700340000000  0.4926410000000 1.0
C      1  0.4983330000000  0.4999070000000  0.5438300000000 1.0
C      1  0.4983340000000  0.4999100000000  0.4625910000000 1.0
END
