TITL C-2782229-3092-1054 -0.000914447397485204 125000 -650.432497954582 0 0 115 (C1) n - 1
REM
REM in /home/nfs/bkarasulu/CARBON/AIRSS/Generating-Clusters/REBO/Higher-Symm/SD-CG/HFTN-CG
REM
REM
REM
REM
REM
REM ./C.cell (12c818d87b63d06a65506943cc24bca4)
REM
REM compiler GCC version 9.2.1 20190827 (Red Hat 9.2.1-1)
REM options -cpp -mtune=generic -march=x86-64 -g -O0 -fpre-include=/usr/include/finclude/math-vector-fortran.h
REM seed 439517148 182099595 -1000961689 1439598760 -529704482 1571482988 1590984801 -1353177153 -429407144 396326130 1182407515 -985037580 -1483110199 -1098147382 -1644980221 -372506431 -1198034092 -1076988473 344534926 -582791321 1057260689 -350508325 1751427936 -1192694943 196005954 821978796 1612312563 -1134118979 95060794 -77136193 1019646463 415141852 -1458607615
REM
CELL 1.54180   50.00000   50.00000   50.00000   90.00000   90.00000   90.00000
LATT -1
SFAC C  
C      1  0.5666340000000  0.5561120000000  0.4809980000000 1.0
C      1  0.5700960000000  0.4841900000000  0.5610800000000 1.0
C      1  0.5691120000000  0.4574880000000  0.4604890000000 1.0
C      1  0.5040040000000  0.5282400000000  0.4152770000000 1.0
C      1  0.5014580000000  0.5569880000000  0.5707850000000 1.0
C      1  0.5025380000000  0.4132530000000  0.5152570000000 1.0
C      1  0.5271250000000  0.5192020000000  0.4379950000000 1.0
C      1  0.5244730000000  0.5456310000000  0.5494420000000 1.0
C      1  0.5260090000000  0.4372650000000  0.5163010000000 1.0
C      1  0.4853670000000  0.5777370000000  0.5562830000000 1.0
C      1  0.4905060000000  0.4163800000000  0.5426980000000 1.0
C      1  0.4907780000000  0.5033460000000  0.4058090000000 1.0
C      1  0.4136540000000  0.5297010000000  0.4761030000000 1.0
C      1  0.4131200000000  0.5077060000000  0.5410820000000 1.0
C      1  0.4124490000000  0.4614840000000  0.4865880000000 1.0
C      1  0.4520780000000  0.4630640000000  0.4848230000000 1.0
C      1  0.4532020000000  0.5332140000000  0.4770510000000 1.0
C      1  0.4525940000000  0.5045420000000  0.5398380000000 1.0
C      1  0.5566460000000  0.5386620000000  0.5089430000000 1.0
C      1  0.5692060000000  0.4586940000000  0.5427480000000 1.0
C      1  0.5699660000000  0.4842110000000  0.4434910000000 1.0
C      1  0.5784570000000  0.5593140000000  0.5241460000000 1.0
C      1  0.5813880000000  0.4362800000000  0.5552450000000 1.0
C      1  0.5825160000000  0.4796890000000  0.4183180000000 1.0
C      1  0.4571400000000  0.4195930000000  0.4829360000000 1.0
C      1  0.4582790000000  0.5446790000000  0.4316730000000 1.0
C      1  0.4579120000000  0.5244410000000  0.5795530000000 1.0
C      1  0.5517870000000  0.4845220000000  0.5832750000000 1.0
C      1  0.5524120000000  0.4372600000000  0.4484680000000 1.0
C      1  0.5474590000000  0.5756120000000  0.4722540000000 1.0
C      1  0.5058360000000  0.5096370000000  0.5853640000000 1.0
C      1  0.5057890000000  0.4195540000000  0.4654910000000 1.0
C      1  0.5020430000000  0.5655330000000  0.4458230000000 1.0
C      1  0.4535560000000  0.4960400000000  0.5912660000000 1.0
C      1  0.4524070000000  0.4229040000000  0.4520850000000 1.0
C      1  0.4495580000000  0.6092300000000  0.4614390000000 1.0
C      1  0.5392180000000  0.4434140000000  0.4251280000000 1.0
C      1  0.5319770000000  0.5892190000000  0.4903190000000 1.0
C      1  0.5376360000000  0.4615920000000  0.5889850000000 1.0
C      1  0.4720700000000  0.4923260000000  0.4284300000000 1.0
C      1  0.4652120000000  0.5635800000000  0.5373720000000 1.0
C      1  0.4731640000000  0.4421000000000  0.5423290000000 1.0
C      1  0.5261220000000  0.5437400000000  0.5893400000000 1.0
C      1  0.5260340000000  0.4016550000000  0.4949300000000 1.0
C      1  0.5261770000000  0.5529320000000  0.4165400000000 1.0
C      1  0.5476820000000  0.4352000000000  0.4932850000000 1.0
C      1  0.5461630000000  0.5405700000000  0.4504480000000 1.0
C      1  0.5486800000000  0.5275030000000  0.5606990000000 1.0
C      1  0.4274530000000  0.4840740000000  0.4739860000000 1.0
C      1  0.4296350000000  0.5279290000000  0.5011540000000 1.0
C      1  0.4275820000000  0.4849940000000  0.5273310000000 1.0
C      1  0.4670710000000  0.4518240000000  0.4616980000000 1.0
C      1  0.4677190000000  0.5592630000000  0.4822760000000 1.0
C      1  0.4684160000000  0.4907710000000  0.5608960000000 1.0
C      1  0.5363200000000  0.4664210000000  0.4913940000000 1.0
C      1  0.5397440000000  0.5266250000000  0.4808460000000 1.0
C      1  0.5407540000000  0.5150030000000  0.5299210000000 1.0
C      1  0.5380830000000  0.4178880000000  0.4682470000000 1.0
C      1  0.5341240000000  0.5695440000000  0.4442260000000 1.0
C      1  0.5379950000000  0.5119630000000  0.5868720000000 1.0
C      1  0.5230930000000  0.4695020000000  0.4215890000000 1.0
C      1  0.5128670000000  0.5829860000000  0.5150340000000 1.0
C      1  0.5225460000000  0.4459560000000  0.5669420000000 1.0
C      1  0.5816500000000  0.4635690000000  0.5136060000000 1.0
C      1  0.5834480000000  0.5084970000000  0.4582100000000 1.0
C      1  0.5800950000000  0.5176060000000  0.5234730000000 1.0
C      1  0.4891230000000  0.5599220000000  0.5139540000000 1.0
C      1  0.4981850000000  0.4615100000000  0.5525490000000 1.0
C      1  0.4957610000000  0.4715300000000  0.4380940000000 1.0
C      1  0.4501590000000  0.4443460000000  0.5620100000000 1.0
C      1  0.4484910000000  0.4741900000000  0.4210230000000 1.0
C      1  0.4559670000000  0.5780510000000  0.5081920000000 1.0
C      1  0.5337570000000  0.5597420000000  0.5240590000000 1.0
C      1  0.5370430000000  0.4549420000000  0.5398740000000 1.0
C      1  0.5387280000000  0.4909670000000  0.4398690000000 1.0
C      1  0.5087060000000  0.4834650000000  0.3971080000000 1.0
C      1  0.5006530000000  0.5962840000000  0.5412280000000 1.0
C      1  0.5090950000000  0.4174310000000  0.5640300000000 1.0
C      1  0.4992710000000  0.4514300000000  0.4660660000000 1.0
C      1  0.4972240000000  0.5555050000000  0.4750490000000 1.0
C      1  0.5007610000000  0.4951230000000  0.5571320000000 1.0
C      1  0.4849890000000  0.5274020000000  0.5045770000000 1.0
C      1  0.4855960000000  0.4772730000000  0.5247880000000 1.0
C      1  0.4893140000000  0.4900450000000  0.4660050000000 1.0
C      1  0.5256420000000  0.4736160000000  0.4643110000000 1.0
C      1  0.5218180000000  0.5506850000000  0.4933870000000 1.0
C      1  0.5288280000000  0.4879700000000  0.5386850000000 1.0
C      1  0.4238170000000  0.4868120000000  0.4261440000000 1.0
C      1  0.4286920000000  0.5691150000000  0.5223900000000 1.0
C      1  0.4251910000000  0.4423440000000  0.5490080000000 1.0
C      1  0.4995060000000  0.4503940000000  0.4991180000000 1.0
C      1  0.5001330000000  0.5273510000000  0.4574770000000 1.0
C      1  0.4990320000000  0.5243970000000  0.5416890000000 1.0
C      1  0.5746670000000  0.5101360000000  0.5498590000000 1.0
C      1  0.5738130000000  0.4536090000000  0.4893500000000 1.0
C      1  0.5755470000000  0.5340010000000  0.4618040000000 1.0
C      1  0.4519680000000  0.4488690000000  0.4326310000000 1.0
C      1  0.4553210000000  0.5901310000000  0.4774860000000 1.0
C      1  0.4539230000000  0.4667640000000  0.5781870000000 1.0
C      1  0.4337720000000  0.4381900000000  0.4992670000000 1.0
C      1  0.4342740000000  0.5306760000000  0.4490700000000 1.0
C      1  0.4351900000000  0.5298160000000  0.5548070000000 1.0
C      1  0.4850140000000  0.5501720000000  0.4278550000000 1.0
C      1  0.4855500000000  0.5321530000000  0.5828030000000 1.0
C      1  0.4850210000000  0.4140510000000  0.4883470000000 1.0
C      1  0.5166620000000  0.4759170000000  0.5128180000000 1.0
C      1  0.5191300000000  0.5044650000000  0.4741780000000 1.0
C      1  0.5166240000000  0.5254990000000  0.5133730000000 1.0
C      1  0.4687640000000  0.5316670000000  0.5332700000000 1.0
C      1  0.4686640000000  0.4531930000000  0.5111940000000 1.0
C      1  0.4700850000000  0.5141020000000  0.4544820000000 1.0
C      1  0.4239540000000  0.4568730000000  0.5245850000000 1.0
C      1  0.4232610000000  0.5002510000000  0.4510370000000 1.0
C      1  0.4266820000000  0.5419120000000  0.5254410000000 1.0
C      1  0.4860020000000  0.4968200000000  0.4978990000000 1.0
END
