TITL C-2782235-7892-272 -0.263545806081389 125000 -1124.70104095936 0 0 196 (C1) n - 1
REM
REM in /home/nfs/bkarasulu/CARBON/AIRSS/Generating-Clusters/REBO/Higher-Symm/SD-CG/HFTN-CG
REM
REM
REM
REM
REM
REM ./C.cell (12c818d87b63d06a65506943cc24bca4)
REM
REM compiler GCC version 9.2.1 20190827 (Red Hat 9.2.1-1)
REM options -cpp -mtune=generic -march=x86-64 -g -O0 -fpre-include=/usr/include/finclude/math-vector-fortran.h
REM seed 193673328 -1400986991 -1934804926 -184440417 186554365 -924501945 -1292668806 -267669188 79008096 1637586188 339602274 -1045792237 -1604185512 -2097067946 -1895769354 1653214662 -2139474151 2053000533 80552878 -900250713 495586495 1214249547 -889778236 786073422 -1500194501 926643581 1564545254 1446278876 1052192639 1194019214 -131159530 -2085378560 -1585446797
REM
CELL 1.54180   50.00000   50.00000   50.00000   90.00000   90.00000   90.00000
LATT -1
SFAC C  
C      1  0.4312900000000  0.4756570000000  0.5905150000000 1.0
C      1  0.4303170000000  0.4020540000000  0.4978420000000 1.0
C      1  0.4376150000000  0.4655160000000  0.3995270000000 1.0
C      1  0.4322990000000  0.5789640000000  0.4464440000000 1.0
C      1  0.4274020000000  0.5811470000000  0.5500270000000 1.0
C      1  0.5678990000000  0.4705100000000  0.5879590000000 1.0
C      1  0.5677070000000  0.4096090000000  0.5023460000000 1.0
C      1  0.5714670000000  0.4703050000000  0.4190980000000 1.0
C      1  0.5558050000000  0.5791200000000  0.4418140000000 1.0
C      1  0.5703180000000  0.5758420000000  0.5491510000000 1.0
C      1  0.5487350000000  0.4450950000000  0.5896390000000 1.0
C      1  0.5523100000000  0.4021640000000  0.4793450000000 1.0
C      1  0.5561160000000  0.4892390000000  0.3993220000000 1.0
C      1  0.5456800000000  0.5995080000000  0.4591560000000 1.0
C      1  0.5441970000000  0.5640100000000  0.5677880000000 1.0
C      1  0.4510560000000  0.4479050000000  0.5921290000000 1.0
C      1  0.4542520000000  0.3948700000000  0.4765510000000 1.0
C      1  0.4578360000000  0.4888330000000  0.3912300000000 1.0
C      1  0.4476200000000  0.5974600000000  0.4623020000000 1.0
C      1  0.4453690000000  0.5652270000000  0.5743210000000 1.0
C      1  0.5162480000000  0.5750190000000  0.4479980000000 1.0
C      1  0.5186090000000  0.5902740000000  0.5492110000000 1.0
C      1  0.5154100000000  0.4682370000000  0.5921660000000 1.0
C      1  0.5116080000000  0.4022060000000  0.5077450000000 1.0
C      1  0.5145160000000  0.4614210000000  0.4103830000000 1.0
C      1  0.4824010000000  0.5777330000000  0.4473130000000 1.0
C      1  0.4868690000000  0.5775970000000  0.5465400000000 1.0
C      1  0.4823480000000  0.4721560000000  0.5875280000000 1.0
C      1  0.4785310000000  0.4097100000000  0.5045410000000 1.0
C      1  0.4828870000000  0.4708540000000  0.4165510000000 1.0
C      1  0.4807600000000  0.4411900000000  0.5318870000000 1.0
C      1  0.4861950000000  0.4595680000000  0.4649640000000 1.0
C      1  0.4867960000000  0.5242780000000  0.4419520000000 1.0
C      1  0.4855480000000  0.5641620000000  0.5148820000000 1.0
C      1  0.4820230000000  0.5163160000000  0.5621230000000 1.0
C      1  0.5073280000000  0.4350940000000  0.5150700000000 1.0
C      1  0.5112730000000  0.4615720000000  0.4430540000000 1.0
C      1  0.5161980000000  0.5212640000000  0.4548400000000 1.0
C      1  0.5172100000000  0.5707930000000  0.5215030000000 1.0
C      1  0.5145530000000  0.5106790000000  0.5592960000000 1.0
C      1  0.4181700000000  0.5255640000000  0.4447090000000 1.0
C      1  0.4144560000000  0.5556710000000  0.5023440000000 1.0
C      1  0.4160590000000  0.5184120000000  0.5555120000000 1.0
C      1  0.4161510000000  0.4553420000000  0.5346520000000 1.0
C      1  0.4183290000000  0.4442830000000  0.4591640000000 1.0
C      1  0.5869330000000  0.5303600000000  0.4429680000000 1.0
C      1  0.5857040000000  0.5565880000000  0.5023140000000 1.0
C      1  0.5835090000000  0.5142930000000  0.5571440000000 1.0
C      1  0.5796940000000  0.4539850000000  0.5321110000000 1.0
C      1  0.5851530000000  0.4593660000000  0.4724020000000 1.0
C      1  0.4204580000000  0.5547080000000  0.4402940000000 1.0
C      1  0.4121350000000  0.5712330000000  0.5274720000000 1.0
C      1  0.4149050000000  0.4961070000000  0.5763290000000 1.0
C      1  0.4159170000000  0.4288570000000  0.5132390000000 1.0
C      1  0.4218960000000  0.4556050000000  0.4271450000000 1.0
C      1  0.5790010000000  0.5592430000000  0.4483060000000 1.0
C      1  0.5878560000000  0.5686320000000  0.5274460000000 1.0
C      1  0.5855510000000  0.4926630000000  0.5780310000000 1.0
C      1  0.5790640000000  0.4282810000000  0.5189250000000 1.0
C      1  0.5867750000000  0.4665770000000  0.4436810000000 1.0
C      1  0.4496240000000  0.4758980000000  0.5055720000000 1.0
C      1  0.4390410000000  0.4856260000000  0.4777710000000 1.0
C      1  0.4382050000000  0.5166400000000  0.4790200000000 1.0
C      1  0.4500600000000  0.5243410000000  0.5078000000000 1.0
C      1  0.4413620000000  0.4992530000000  0.5248080000000 1.0
C      1  0.5378240000000  0.4796940000000  0.5197920000000 1.0
C      1  0.5391020000000  0.4810220000000  0.4868790000000 1.0
C      1  0.5603950000000  0.5075150000000  0.4840920000000 1.0
C      1  0.5599620000000  0.5258740000000  0.5115870000000 1.0
C      1  0.5561740000000  0.5017770000000  0.5310740000000 1.0
C      1  0.5519670000000  0.4472560000000  0.4453030000000 1.0
C      1  0.5502780000000  0.5391670000000  0.4297700000000 1.0
C      1  0.5538820000000  0.5845940000000  0.5138480000000 1.0
C      1  0.5488630000000  0.5056650000000  0.5867490000000 1.0
C      1  0.5432340000000  0.4266630000000  0.5363430000000 1.0
C      1  0.4540390000000  0.4393350000000  0.4423900000000 1.0
C      1  0.4535490000000  0.5384830000000  0.4254040000000 1.0
C      1  0.4494290000000  0.5799280000000  0.5167970000000 1.0
C      1  0.4498060000000  0.5130240000000  0.5854070000000 1.0
C      1  0.4444990000000  0.4271630000000  0.5402120000000 1.0
C      1  0.5522620000000  0.5381010000000  0.5883770000000 1.0
C      1  0.5534200000000  0.4282630000000  0.5672630000000 1.0
C      1  0.5587420000000  0.4178890000000  0.4573450000000 1.0
C      1  0.5574180000000  0.5160520000000  0.4068550000000 1.0
C      1  0.5555630000000  0.5993330000000  0.4848470000000 1.0
C      1  0.4348380000000  0.5393710000000  0.5916780000000 1.0
C      1  0.4429970000000  0.4310080000000  0.5717820000000 1.0
C      1  0.4518360000000  0.4088070000000  0.4527260000000 1.0
C      1  0.4499620000000  0.5141390000000  0.4018710000000 1.0
C      1  0.4430820000000  0.5953900000000  0.4893770000000 1.0
C      1  0.5211430000000  0.5287940000000  0.4222560000000 1.0
C      1  0.5254460000000  0.6031070000000  0.5120450000000 1.0
C      1  0.5189840000000  0.5170920000000  0.5914910000000 1.0
C      1  0.5118360000000  0.4180470000000  0.5443760000000 1.0
C      1  0.5237160000000  0.4314480000000  0.4375060000000 1.0
C      1  0.4841090000000  0.5382750000000  0.4109900000000 1.0
C      1  0.4780450000000  0.5979770000000  0.5132980000000 1.0
C      1  0.4793500000000  0.5183600000000  0.5958740000000 1.0
C      1  0.4726980000000  0.4142370000000  0.5510340000000 1.0
C      1  0.4843150000000  0.4322020000000  0.4439980000000 1.0
C      1  0.6666250000000  0.4982180000000  0.4611380000000 1.0
C      1  0.6568670000000  0.4773870000000  0.4780120000000 1.0
C      1  0.6279980000000  0.4804880000000  0.4809770000000 1.0
C      1  0.6204740000000  0.5041130000000  0.4661180000000 1.0
C      1  0.6444860000000  0.5145500000000  0.4536370000000 1.0
C      1  0.3651290000000  0.4911120000000  0.5212140000000 1.0
C      1  0.3758790000000  0.4673180000000  0.5027440000000 1.0
C      1  0.3848800000000  0.4783800000000  0.4775160000000 1.0
C      1  0.3799230000000  0.5067860000000  0.4778470000000 1.0
C      1  0.3678480000000  0.5151670000000  0.5051490000000 1.0
C      1  0.4339230000000  0.5419630000000  0.5520410000000 1.0
C      1  0.4391030000000  0.4659040000000  0.5484310000000 1.0
C      1  0.4384160000000  0.4357740000000  0.4788200000000 1.0
C      1  0.4381940000000  0.5043390000000  0.4390770000000 1.0
C      1  0.4376610000000  0.5562970000000  0.4830790000000 1.0
C      1  0.5593080000000  0.5375330000000  0.5508910000000 1.0
C      1  0.5589660000000  0.4635220000000  0.5496130000000 1.0
C      1  0.5626210000000  0.4487470000000  0.4840860000000 1.0
C      1  0.5637460000000  0.5050440000000  0.4447070000000 1.0
C      1  0.5642920000000  0.5608240000000  0.4785340000000 1.0
C      1  0.5342630000000  0.4928580000000  0.4337540000000 1.0
C      1  0.5318290000000  0.5642790000000  0.4752180000000 1.0
C      1  0.5262000000000  0.5347540000000  0.5433320000000 1.0
C      1  0.5268450000000  0.4619390000000  0.5609760000000 1.0
C      1  0.5316250000000  0.4384970000000  0.4836090000000 1.0
C      1  0.4704840000000  0.4981620000000  0.4321790000000 1.0
C      1  0.4692960000000  0.5676250000000  0.4775170000000 1.0
C      1  0.4965870000000  0.5460090000000  0.5551410000000 1.0
C      1  0.4724890000000  0.4646550000000  0.5553120000000 1.0
C      1  0.4712030000000  0.4340330000000  0.4816690000000 1.0
C      1  0.4782540000000  0.5725480000000  0.5790100000000 1.0
C      1  0.4835680000000  0.4423720000000  0.6030410000000 1.0
C      1  0.4863230000000  0.3840690000000  0.4829100000000 1.0
C      1  0.4916080000000  0.4827620000000  0.3857390000000 1.0
C      1  0.4783040000000  0.6106410000000  0.4552690000000 1.0
C      1  0.5128920000000  0.5753320000000  0.5767950000000 1.0
C      1  0.5178580000000  0.4374680000000  0.6032360000000 1.0
C      1  0.5203540000000  0.3896360000000  0.4793390000000 1.0
C      1  0.5261760000000  0.4800250000000  0.3851800000000 1.0
C      1  0.5123470000000  0.6075890000000  0.4559780000000 1.0
C      1  0.5456060000000  0.4531980000000  0.4130580000000 1.0
C      1  0.5328330000000  0.5667980000000  0.4225990000000 1.0
C      1  0.5480170000000  0.5979370000000  0.5441050000000 1.0
C      1  0.5351850000000  0.4840440000000  0.6064500000000 1.0
C      1  0.5370050000000  0.3959410000000  0.5234800000000 1.0
C      1  0.4598580000000  0.4523520000000  0.4149860000000 1.0
C      1  0.4652300000000  0.5696030000000  0.4258970000000 1.0
C      1  0.4568980000000  0.5938790000000  0.5462450000000 1.0
C      1  0.4585860000000  0.4853920000000  0.6010330000000 1.0
C      1  0.4522270000000  0.4058090000000  0.5180170000000 1.0
C      1  0.5119020000000  0.4620080000000  0.4954190000000 1.0
C      1  0.5116620000000  0.4898360000000  0.4592410000000 1.0
C      1  0.5160510000000  0.5391050000000  0.4814720000000 1.0
C      1  0.5154040000000  0.5381470000000  0.5125920000000 1.0
C      1  0.5164350000000  0.4831750000000  0.5418600000000 1.0
C      1  0.4815190000000  0.4651290000000  0.5104300000000 1.0
C      1  0.4869290000000  0.4886670000000  0.4792550000000 1.0
C      1  0.4853510000000  0.5409170000000  0.4701010000000 1.0
C      1  0.4820640000000  0.5320660000000  0.5094260000000 1.0
C      1  0.4855260000000  0.4907010000000  0.5407980000000 1.0
C      1  0.5919930000000  0.5137250000000  0.4713530000000 1.0
C      1  0.5918040000000  0.5251090000000  0.5011620000000 1.0
C      1  0.5893580000000  0.5029180000000  0.5256180000000 1.0
C      1  0.5957250000000  0.4736360000000  0.5185860000000 1.0
C      1  0.6051130000000  0.4675660000000  0.4918570000000 1.0
C      1  0.4066910000000  0.5222980000000  0.4737040000000 1.0
C      1  0.3990850000000  0.5276710000000  0.5057030000000 1.0
C      1  0.4094740000000  0.5056310000000  0.5268060000000 1.0
C      1  0.3951910000000  0.4764950000000  0.5283700000000 1.0
C      1  0.4109060000000  0.4712540000000  0.4690450000000 1.0
C      1  0.4533360000000  0.5364900000000  0.4593840000000 1.0
C      1  0.4455690000000  0.5493290000000  0.5261020000000 1.0
C      1  0.4494620000000  0.4971760000000  0.5564110000000 1.0
C      1  0.4460400000000  0.4446170000000  0.5108090000000 1.0
C      1  0.4443690000000  0.4718460000000  0.4472020000000 1.0
C      1  0.5532220000000  0.5326520000000  0.4630140000000 1.0
C      1  0.5512860000000  0.5538570000000  0.5217650000000 1.0
C      1  0.5503630000000  0.4931040000000  0.5600050000000 1.0
C      1  0.5449430000000  0.4483740000000  0.5133220000000 1.0
C      1  0.5505790000000  0.4761720000000  0.4575780000000 1.0
C      1  0.4827210000000  0.4355010000000  0.5712960000000 1.0
C      1  0.4893630000000  0.4110330000000  0.4663770000000 1.0
C      1  0.4892200000000  0.5085460000000  0.4056060000000 1.0
C      1  0.4852630000000  0.5938320000000  0.4835330000000 1.0
C      1  0.4906140000000  0.5449160000000  0.5886580000000 1.0
C      1  0.5141620000000  0.4351350000000  0.5699990000000 1.0
C      1  0.5195840000000  0.4196310000000  0.4649170000000 1.0
C      1  0.5192290000000  0.5010110000000  0.4081440000000 1.0
C      1  0.5165950000000  0.5904520000000  0.4847830000000 1.0
C      1  0.5218940000000  0.5498740000000  0.5975150000000 1.0
C      1  0.4938900000000  0.3932620000000  0.5468550000000 1.0
C      1  0.4998780000000  0.4253050000000  0.4186880000000 1.0
C      1  0.5092420000000  0.5551630000000  0.4041600000000 1.0
C      1  0.4999190000000  0.5023770000000  0.6105610000000 1.0
C      1  0.4999790000000  0.6142900000000  0.5233110000000 1.0
C      1  0.4814210000000  0.4996440000000  0.5094390000000 1.0
END
