TITL C-2782233-7966-44 -0.00656452692280612 125000 -364.35776491492 0 0 63 (C1) n - 1
REM
REM in /home/nfs/bkarasulu/CARBON/AIRSS/Generating-Clusters/REBO/Higher-Symm/SD-CG/HFTN-CG
REM
REM
REM
REM
REM
REM ./C.cell (12c818d87b63d06a65506943cc24bca4)
REM
REM compiler GCC version 9.2.1 20190827 (Red Hat 9.2.1-1)
REM options -cpp -mtune=generic -march=x86-64 -g -O0 -fpre-include=/usr/include/finclude/math-vector-fortran.h
REM seed 688070235 -404992542 1867038792 -1008952479 -2029532024 504226625 887230860 820353153 -912938459 -1787744164 1886534785 1141628589 -1577918560 663279165 1531292840 -1060440822 -2019097529 -806217389 -932427456 2133159400 877525274 361227169 -817332 688778944 270024769 1140357632 -819267805 -1775765141 211289589 -28606712 -126130276 1470234752 1665354094
REM
CELL 1.54180   50.00000   50.00000   50.00000   90.00000   90.00000   90.00000
LATT -1
SFAC C  
C      1  0.5547390000000  0.5120440000000  0.5406420000000 1.0
C      1  0.4454010000000  0.4893640000000  0.5410050000000 1.0
C      1  0.5611620000000  0.4830640000000  0.5360660000000 1.0
C      1  0.4391110000000  0.5184430000000  0.5370960000000 1.0
C      1  0.5163490000000  0.4484680000000  0.5357880000000 1.0
C      1  0.4840630000000  0.5500580000000  0.5384740000000 1.0
C      1  0.5122750000000  0.5505900000000  0.5379990000000 1.0
C      1  0.4879340000000  0.4488270000000  0.5370500000000 1.0
C      1  0.5248340000000  0.4574820000000  0.4839010000000 1.0
C      1  0.4762180000000  0.5443820000000  0.4844630000000 1.0
C      1  0.5101360000000  0.5407150000000  0.4851330000000 1.0
C      1  0.4755830000000  0.4621890000000  0.4848270000000 1.0
C      1  0.5617580000000  0.4866930000000  0.4844890000000 1.0
C      1  0.4386560000000  0.5149690000000  0.4844960000000 1.0
C      1  0.5613130000000  0.5171630000000  0.4879330000000 1.0
C      1  0.4387850000000  0.4846690000000  0.4889480000000 1.0
C      1  0.5173350000000  0.5127080000000  0.4696520000000 1.0
C      1  0.4873710000000  0.4866620000000  0.4687220000000 1.0
C      1  0.5168920000000  0.4839400000000  0.4681380000000 1.0
C      1  0.4837410000000  0.5151670000000  0.4698830000000 1.0
C      1  0.4842770000000  0.4500260000000  0.4540970000000 1.0
C      1  0.5172230000000  0.5478830000000  0.4520500000000 1.0
C      1  0.4856370000000  0.5502580000000  0.4520900000000 1.0
C      1  0.5143400000000  0.4476460000000  0.4529620000000 1.0
C      1  0.5468280000000  0.5258720000000  0.5135110000000 1.0
C      1  0.4533050000000  0.4767200000000  0.5145330000000 1.0
C      1  0.5508270000000  0.4733580000000  0.5095840000000 1.0
C      1  0.4489100000000  0.5294110000000  0.5095660000000 1.0
C      1  0.5118030000000  0.5153160000000  0.5863670000000 1.0
C      1  0.4881730000000  0.4831560000000  0.5866340000000 1.0
C      1  0.5214980000000  0.4838490000000  0.5853740000000 1.0
C      1  0.4784250000000  0.5146690000000  0.5867300000000 1.0
C      1  0.5256520000000  0.5127830000000  0.4169520000000 1.0
C      1  0.4756590000000  0.4853920000000  0.4177190000000 1.0
C      1  0.5244580000000  0.4830640000000  0.4165570000000 1.0
C      1  0.4769790000000  0.5148830000000  0.4166480000000 1.0
C      1  0.5435200000000  0.5152970000000  0.5726720000000 1.0
C      1  0.4566240000000  0.4842240000000  0.5727260000000 1.0
C      1  0.5505330000000  0.4827240000000  0.5673670000000 1.0
C      1  0.4491140000000  0.5171450000000  0.5692760000000 1.0
C      1  0.4781660000000  0.5255060000000  0.5545220000000 1.0
C      1  0.5216370000000  0.4728100000000  0.5532030000000 1.0
C      1  0.4818640000000  0.4703270000000  0.5562320000000 1.0
C      1  0.5180160000000  0.5277060000000  0.5559260000000 1.0
C      1  0.4663750000000  0.5314340000000  0.4378440000000 1.0
C      1  0.5356320000000  0.4664930000000  0.4377570000000 1.0
C      1  0.4645890000000  0.4706030000000  0.4403160000000 1.0
C      1  0.5366420000000  0.5288440000000  0.4389020000000 1.0
C      1  0.4475880000000  0.4861670000000  0.4584620000000 1.0
C      1  0.5549720000000  0.5141500000000  0.4565830000000 1.0
C      1  0.4469290000000  0.5183320000000  0.4547540000000 1.0
C      1  0.5544360000000  0.4811260000000  0.4547930000000 1.0
C      1  0.4851880000000  0.4868850000000  0.5083640000000 1.0
C      1  0.5151790000000  0.5162440000000  0.5090420000000 1.0
C      1  0.4818760000000  0.5208270000000  0.5090400000000 1.0
C      1  0.5178670000000  0.4822740000000  0.5077440000000 1.0
C      1  0.5331490000000  0.4459380000000  0.5131610000000 1.0
C      1  0.4655250000000  0.5558620000000  0.5192080000000 1.0
C      1  0.5308780000000  0.5530670000000  0.5183400000000 1.0
C      1  0.4714400000000  0.4498530000000  0.5144320000000 1.0
C      1  0.5017740000000  0.5239760000000  0.4052980000000 1.0
C      1  0.4992930000000  0.4736870000000  0.4061140000000 1.0
C      1  0.4997540000000  0.4991160000000  0.5518710000000 1.0
END
