TITL C-2782239-8622-128 0.000416449939523482 125000 -526.002512004956 0 0 92 (C1) n - 1
REM
REM in /home/nfs/bkarasulu/CARBON/AIRSS/Generating-Clusters/REBO/Higher-Symm/SD-CG/HFTN-CG
REM
REM
REM
REM
REM
REM ./C.cell (12c818d87b63d06a65506943cc24bca4)
REM
REM compiler GCC version 9.2.1 20190827 (Red Hat 9.2.1-1)
REM options -cpp -mtune=generic -march=x86-64 -g -O0 -fpre-include=/usr/include/finclude/math-vector-fortran.h
REM seed 1432172295 -1221767391 2036480365 1646613092 395650538 -1249555191 -1307493797 990811317 -179962487 1148022360 -1852029552 1859828647 1067888380 1626768756 -283036083 1383572707 -545911098 -1028628749 1922281621 -1754928200 215599306 1014600452 835022305 599799835 -1116502619 618060500 824421871 1648730358 691124086 -940422673 -2100936346 -1896573610 -1320172612
REM
CELL 1.54180   50.00000   50.00000   50.00000   90.00000   90.00000   90.00000
LATT -1
SFAC C  
C      1  0.5355130000000  0.4511740000000  0.5025380000000 1.0
C      1  0.5473200000000  0.5517020000000  0.5142240000000 1.0
C      1  0.4321260000000  0.5143330000000  0.4724890000000 1.0
C      1  0.4354120000000  0.4806270000000  0.4779500000000 1.0
C      1  0.4805750000000  0.4809780000000  0.5129870000000 1.0
C      1  0.4798640000000  0.5278700000000  0.5014160000000 1.0
C      1  0.5101370000000  0.5205550000000  0.5548420000000 1.0
C      1  0.5165660000000  0.4893740000000  0.5527270000000 1.0
C      1  0.5263910000000  0.4396370000000  0.5262850000000 1.0
C      1  0.5304300000000  0.5615480000000  0.5360390000000 1.0
C      1  0.5170510000000  0.4683720000000  0.4803330000000 1.0
C      1  0.5261230000000  0.5453800000000  0.4925520000000 1.0
C      1  0.5465580000000  0.5194400000000  0.4271370000000 1.0
C      1  0.5473320000000  0.4851460000000  0.4295220000000 1.0
C      1  0.4704430000000  0.4883050000000  0.5657060000000 1.0
C      1  0.4657580000000  0.5195920000000  0.5716300000000 1.0
C      1  0.5455010000000  0.4851870000000  0.5913540000000 1.0
C      1  0.5448030000000  0.5129740000000  0.5943970000000 1.0
C      1  0.4845310000000  0.5115010000000  0.4108140000000 1.0
C      1  0.4885530000000  0.4802970000000  0.4103090000000 1.0
C      1  0.4485750000000  0.4879760000000  0.5185920000000 1.0
C      1  0.4527410000000  0.5199580000000  0.5139660000000 1.0
C      1  0.4474690000000  0.5451450000000  0.4521520000000 1.0
C      1  0.4603790000000  0.4574640000000  0.4570380000000 1.0
C      1  0.5543430000000  0.4637850000000  0.5701620000000 1.0
C      1  0.5535070000000  0.5346610000000  0.5749020000000 1.0
C      1  0.5718200000000  0.4708670000000  0.5487750000000 1.0
C      1  0.5683350000000  0.5267660000000  0.5519050000000 1.0
C      1  0.4138670000000  0.4868200000000  0.5157300000000 1.0
C      1  0.4190070000000  0.5145190000000  0.5170280000000 1.0
C      1  0.5584290000000  0.4844180000000  0.5274520000000 1.0
C      1  0.5542550000000  0.5139060000000  0.5305440000000 1.0
C      1  0.4840030000000  0.5738040000000  0.5083340000000 1.0
C      1  0.4821750000000  0.4152720000000  0.5071220000000 1.0
C      1  0.4411490000000  0.5593910000000  0.5424180000000 1.0
C      1  0.4467050000000  0.4516380000000  0.5383200000000 1.0
C      1  0.4498080000000  0.4879470000000  0.4484530000000 1.0
C      1  0.4377620000000  0.5152750000000  0.4388480000000 1.0
C      1  0.5284640000000  0.4809420000000  0.5281890000000 1.0
C      1  0.5264830000000  0.5207880000000  0.5282230000000 1.0
C      1  0.4373000000000  0.5457570000000  0.4845220000000 1.0
C      1  0.4412560000000  0.4474700000000  0.4834170000000 1.0
C      1  0.5104450000000  0.4825050000000  0.4433070000000 1.0
C      1  0.5101490000000  0.5169020000000  0.4429600000000 1.0
C      1  0.4965780000000  0.5510870000000  0.5543840000000 1.0
C      1  0.4949140000000  0.4466700000000  0.5486600000000 1.0
C      1  0.5617990000000  0.4532130000000  0.4892950000000 1.0
C      1  0.5654990000000  0.5407820000000  0.4887060000000 1.0
C      1  0.5613420000000  0.4354930000000  0.4658250000000 1.0
C      1  0.5536140000000  0.5545630000000  0.4650050000000 1.0
C      1  0.4570060000000  0.4213340000000  0.4876840000000 1.0
C      1  0.4539910000000  0.5702200000000  0.4965540000000 1.0
C      1  0.4823080000000  0.4575580000000  0.4309970000000 1.0
C      1  0.4624080000000  0.5313230000000  0.4237190000000 1.0
C      1  0.4321320000000  0.4594930000000  0.5115850000000 1.0
C      1  0.4323200000000  0.5453050000000  0.5183210000000 1.0
C      1  0.4680730000000  0.4858500000000  0.4839500000000 1.0
C      1  0.4647340000000  0.5179810000000  0.4758780000000 1.0
C      1  0.5729860000000  0.5137800000000  0.4822920000000 1.0
C      1  0.5694270000000  0.4826440000000  0.4846710000000 1.0
C      1  0.4885660000000  0.4222930000000  0.4759520000000 1.0
C      1  0.4769010000000  0.5823840000000  0.4765870000000 1.0
C      1  0.5285780000000  0.5535600000000  0.5673550000000 1.0
C      1  0.5266420000000  0.4505310000000  0.5582200000000 1.0
C      1  0.4903710000000  0.4829180000000  0.5895940000000 1.0
C      1  0.4885610000000  0.5130470000000  0.5910280000000 1.0
C      1  0.4374360000000  0.4335530000000  0.5550880000000 1.0
C      1  0.4480050000000  0.5739520000000  0.5697330000000 1.0
C      1  0.4729460000000  0.4674270000000  0.5426650000000 1.0
C      1  0.4673410000000  0.5473730000000  0.5606900000000 1.0
C      1  0.5467250000000  0.4442230000000  0.4401600000000 1.0
C      1  0.5384750000000  0.5455210000000  0.4402900000000 1.0
C      1  0.5088120000000  0.5207590000000  0.5016210000000 1.0
C      1  0.5104580000000  0.4876880000000  0.5049110000000 1.0
C      1  0.5027150000000  0.5798080000000  0.4575880000000 1.0
C      1  0.5141140000000  0.4236410000000  0.4588850000000 1.0
C      1  0.4910490000000  0.4543920000000  0.4708330000000 1.0
C      1  0.4750750000000  0.5614320000000  0.4499160000000 1.0
C      1  0.4795230000000  0.5218490000000  0.4491120000000 1.0
C      1  0.4832390000000  0.4899060000000  0.4545070000000 1.0
C      1  0.5263470000000  0.5670680000000  0.4721540000000 1.0
C      1  0.5390750000000  0.4147930000000  0.4660680000000 1.0
C      1  0.5183380000000  0.5069070000000  0.4126680000000 1.0
C      1  0.5222110000000  0.4746880000000  0.4109000000000 1.0
C      1  0.4981990000000  0.4252570000000  0.5268730000000 1.0
C      1  0.5016240000000  0.5675930000000  0.5270890000000 1.0
C      1  0.5161190000000  0.5284190000000  0.5870120000000 1.0
C      1  0.5172390000000  0.4731030000000  0.5806060000000 1.0
C      1  0.5622900000000  0.5044890000000  0.4525970000000 1.0
C      1  0.5439770000000  0.4770780000000  0.4626790000000 1.0
C      1  0.5064470000000  0.5503360000000  0.4418800000000 1.0
C      1  0.5140590000000  0.4487510000000  0.4395970000000 1.0
END
