TITL C-2782236-320-294 -0.000128079700577926 125000 -282.262819982208 0 0 49 (C1) n - 1
REM
REM in /home/nfs/bkarasulu/CARBON/AIRSS/Generating-Clusters/REBO/Higher-Symm/SD-CG/HFTN-CG
REM
REM
REM
REM
REM
REM ./C.cell (12c818d87b63d06a65506943cc24bca4)
REM
REM compiler GCC version 9.2.1 20190827 (Red Hat 9.2.1-1)
REM options -cpp -mtune=generic -march=x86-64 -g -O0 -fpre-include=/usr/include/finclude/math-vector-fortran.h
REM seed -1077132296 1627652861 -1481065532 -646284134 -622245409 -1073770861 -1066998190 -864928606 1241010114 1819408890 795403458 141978199 -206395039 -1534972243 393049641 -366516969 304373954 -901217614 665139865 1910007684 458798904 1140407428 1136845111 1190645847 -36324954 -2003577757 1680314276 2017852473 -273772275 124324496 371063829 569996713 104225080
REM
CELL 1.54180   50.00000   50.00000   50.00000   90.00000   90.00000   90.00000
LATT -1
SFAC C  
C      1  0.5446040000000  0.4888570000000  0.4516670000000 1.0
C      1  0.4614260000000  0.4642550000000  0.4762250000000 1.0
C      1  0.5407640000000  0.4501930000000  0.5115840000000 1.0
C      1  0.4580430000000  0.4707270000000  0.5437070000000 1.0
C      1  0.5421510000000  0.5084780000000  0.5460360000000 1.0
C      1  0.4584420000000  0.5362870000000  0.5254360000000 1.0
C      1  0.5399710000000  0.5460210000000  0.4906060000000 1.0
C      1  0.4586150000000  0.5280770000000  0.4577700000000 1.0
C      1  0.4889150000000  0.5222550000000  0.4434120000000 1.0
C      1  0.5169420000000  0.4766910000000  0.4468550000000 1.0
C      1  0.4888440000000  0.4462480000000  0.4812520000000 1.0
C      1  0.5157970000000  0.4440310000000  0.5254140000000 1.0
C      1  0.4883870000000  0.4765180000000  0.5580030000000 1.0
C      1  0.5160820000000  0.5216520000000  0.5530130000000 1.0
C      1  0.4872280000000  0.5537880000000  0.5204890000000 1.0
C      1  0.5155890000000  0.5531950000000  0.4762290000000 1.0
C      1  0.4665520000000  0.4437870000000  0.5253040000000 1.0
C      1  0.5368900000000  0.4775380000000  0.5487510000000 1.0
C      1  0.4676020000000  0.5195000000000  0.5508940000000 1.0
C      1  0.5352480000000  0.5458780000000  0.5204070000000 1.0
C      1  0.4661290000000  0.5553360000000  0.4754780000000 1.0
C      1  0.5368530000000  0.5195780000000  0.4506500000000 1.0
C      1  0.4684800000000  0.4793380000000  0.4496890000000 1.0
C      1  0.5370990000000  0.4542620000000  0.4809150000000 1.0
C      1  0.4917460000000  0.5608670000000  0.4917260000000 1.0
C      1  0.5119700000000  0.5373910000000  0.4516920000000 1.0
C      1  0.4935200000000  0.4933480000000  0.4406040000000 1.0
C      1  0.5113710000000  0.4539100000000  0.4650790000000 1.0
C      1  0.4921650000000  0.4376460000000  0.5093670000000 1.0
C      1  0.5111020000000  0.4606020000000  0.5499370000000 1.0
C      1  0.4927870000000  0.5055930000000  0.5606240000000 1.0
C      1  0.5097990000000  0.5452720000000  0.5361360000000 1.0
C      1  0.5232880000000  0.4819110000000  0.4909820000000 1.0
C      1  0.4702650000000  0.4706870000000  0.5065850000000 1.0
C      1  0.5229730000000  0.4848380000000  0.5205910000000 1.0
C      1  0.4736250000000  0.4964810000000  0.5268570000000 1.0
C      1  0.5205270000000  0.5169780000000  0.5100060000000 1.0
C      1  0.4691620000000  0.5283470000000  0.4958160000000 1.0
C      1  0.5228330000000  0.5092670000000  0.4778220000000 1.0
C      1  0.4739600000000  0.5021010000000  0.4743160000000 1.0
C      1  0.5592180000000  0.4749100000000  0.5069710000000 1.0
C      1  0.4360950000000  0.4849210000000  0.5217200000000 1.0
C      1  0.5575810000000  0.5047310000000  0.5182310000000 1.0
C      1  0.4353290000000  0.5156420000000  0.5117950000000 1.0
C      1  0.5580580000000  0.5221990000000  0.4914680000000 1.0
C      1  0.4362330000000  0.5133930000000  0.4789720000000 1.0
C      1  0.5599160000000  0.4925850000000  0.4794610000000 1.0
C      1  0.4373170000000  0.4832020000000  0.4893140000000 1.0
C      1  0.4915100000000  0.5057270000000  0.5023570000000 1.0
END
