TITL C-2782233-7966-204 0.00147496199806667 125000 -757.192683894243 0 0 130 (C1) n - 1
REM
REM in /home/nfs/bkarasulu/CARBON/AIRSS/Generating-Clusters/REBO/Higher-Symm/SD-CG/HFTN-CG
REM
REM
REM
REM
REM
REM ./C.cell (12c818d87b63d06a65506943cc24bca4)
REM
REM compiler GCC version 9.2.1 20190827 (Red Hat 9.2.1-1)
REM options -cpp -mtune=generic -march=x86-64 -g -O0 -fpre-include=/usr/include/finclude/math-vector-fortran.h
REM seed -2083723047 1169970353 597969122 -1241923375 -647198132 -1529820215 1146437275 1311436275 1553605572 1195534655 -233890903 927072404 1674550533 33116886 -1861941483 -250297460 -87691726 389851932 -1435762179 1941017740 1462748800 -896291662 1490774250 -657609489 681555914 1890186776 -1325360783 -1188379173 1846303356 -259102470 -250500858 1262809824 2006485645
REM
CELL 1.54180   50.00000   50.00000   50.00000   90.00000   90.00000   90.00000
LATT -1
SFAC C  
C      1  0.4295680000000  0.5229910000000  0.4304170000000 1.0
C      1  0.4310850000000  0.4413370000000  0.4569090000000 1.0
C      1  0.4300820000000  0.4411670000000  0.5423370000000 1.0
C      1  0.4303610000000  0.5228590000000  0.5695180000000 1.0
C      1  0.4295960000000  0.5728840000000  0.5004270000000 1.0
C      1  0.5692960000000  0.5218180000000  0.4308020000000 1.0
C      1  0.5707540000000  0.4404550000000  0.4575770000000 1.0
C      1  0.5697690000000  0.4409650000000  0.5435310000000 1.0
C      1  0.5702130000000  0.5223260000000  0.5690840000000 1.0
C      1  0.5695900000000  0.5728240000000  0.4993890000000 1.0
C      1  0.4581020000000  0.5761930000000  0.4561360000000 1.0
C      1  0.4596040000000  0.4831620000000  0.4156230000000 1.0
C      1  0.4626370000000  0.4164070000000  0.4913170000000 1.0
C      1  0.4584760000000  0.4647060000000  0.5800660000000 1.0
C      1  0.4624140000000  0.5631560000000  0.5563280000000 1.0
C      1  0.5371100000000  0.5722450000000  0.4571790000000 1.0
C      1  0.5385550000000  0.4800620000000  0.4161890000000 1.0
C      1  0.5416310000000  0.4123620000000  0.4916360000000 1.0
C      1  0.5376050000000  0.4660690000000  0.5775840000000 1.0
C      1  0.5416060000000  0.5653400000000  0.5583380000000 1.0
C      1  0.4845630000000  0.5386000000000  0.4133600000000 1.0
C      1  0.4860470000000  0.4299500000000  0.4370500000000 1.0
C      1  0.4840350000000  0.4194130000000  0.5475040000000 1.0
C      1  0.4854800000000  0.5201190000000  0.5923610000000 1.0
C      1  0.4840490000000  0.5936940000000  0.5090190000000 1.0
C      1  0.5152860000000  0.5367290000000  0.4141230000000 1.0
C      1  0.5166610000000  0.4289350000000  0.4380560000000 1.0
C      1  0.5146190000000  0.4183350000000  0.5479130000000 1.0
C      1  0.5161030000000  0.5204800000000  0.5916490000000 1.0
C      1  0.5147130000000  0.5941230000000  0.5092340000000 1.0
C      1  0.5183590000000  0.4490260000000  0.4724590000000 1.0
C      1  0.5137680000000  0.4561310000000  0.5357580000000 1.0
C      1  0.5177510000000  0.5245620000000  0.5520200000000 1.0
C      1  0.5136720000000  0.5562700000000  0.4972320000000 1.0
C      1  0.5160700000000  0.5103940000000  0.4441010000000 1.0
C      1  0.4870730000000  0.4533290000000  0.4691260000000 1.0
C      1  0.4824070000000  0.4584040000000  0.5393010000000 1.0
C      1  0.4863780000000  0.5201290000000  0.5526550000000 1.0
C      1  0.4823090000000  0.5573430000000  0.4927530000000 1.0
C      1  0.4850490000000  0.5145900000000  0.4449180000000 1.0
C      1  0.4434960000000  0.5528150000000  0.5319000000000 1.0
C      1  0.4420590000000  0.5474880000000  0.4591850000000 1.0
C      1  0.4429800000000  0.4765220000000  0.4426110000000 1.0
C      1  0.4437720000000  0.4390250000000  0.5049800000000 1.0
C      1  0.4426700000000  0.4860780000000  0.5605890000000 1.0
C      1  0.5574460000000  0.5533640000000  0.5319230000000 1.0
C      1  0.5560900000000  0.5459760000000  0.4595840000000 1.0
C      1  0.5570010000000  0.4749140000000  0.4430680000000 1.0
C      1  0.5575540000000  0.4376170000000  0.5058000000000 1.0
C      1  0.5564850000000  0.4860370000000  0.5600510000000 1.0
C      1  0.5454300000000  0.4240020000000  0.5346540000000 1.0
C      1  0.5457430000000  0.5092670000000  0.5824900000000 1.0
C      1  0.5453760000000  0.5813890000000  0.5166330000000 1.0
C      1  0.5446130000000  0.5400710000000  0.4280860000000 1.0
C      1  0.5465130000000  0.4428180000000  0.4387600000000 1.0
C      1  0.4545810000000  0.4246210000000  0.5338730000000 1.0
C      1  0.4547700000000  0.5091100000000  0.5826990000000 1.0
C      1  0.4542430000000  0.5814180000000  0.5168730000000 1.0
C      1  0.4538150000000  0.5421240000000  0.4275660000000 1.0
C      1  0.4556060000000  0.4450920000000  0.4383290000000 1.0
C      1  0.4708460000000  0.5087450000000  0.4153500000000 1.0
C      1  0.4729490000000  0.4234370000000  0.4663660000000 1.0
C      1  0.4700290000000  0.4442180000000  0.5645910000000 1.0
C      1  0.4726350000000  0.5427610000000  0.5724190000000 1.0
C      1  0.4698560000000  0.5836580000000  0.4806190000000 1.0
C      1  0.5282300000000  0.5061890000000  0.4157520000000 1.0
C      1  0.5303130000000  0.4205270000000  0.4671740000000 1.0
C      1  0.5274100000000  0.4443900000000  0.5632400000000 1.0
C      1  0.5300690000000  0.5443620000000  0.5731670000000 1.0
C      1  0.5273000000000  0.5816670000000  0.4815530000000 1.0
C      1  0.4845500000000  0.5569130000000  0.5243810000000 1.0
C      1  0.4842410000000  0.5467490000000  0.4523650000000 1.0
C      1  0.4867900000000  0.4695980000000  0.4409440000000 1.0
C      1  0.4848800000000  0.4401900000000  0.5134700000000 1.0
C      1  0.4853640000000  0.4901730000000  0.5661120000000 1.0
C      1  0.5146880000000  0.5600350000000  0.5298180000000 1.0
C      1  0.5142420000000  0.5402730000000  0.4538220000000 1.0
C      1  0.5168870000000  0.4678160000000  0.4469110000000 1.0
C      1  0.5150270000000  0.4340750000000  0.5113320000000 1.0
C      1  0.5154890000000  0.4944110000000  0.5614950000000 1.0
C      1  0.5225760000000  0.5069720000000  0.4740520000000 1.0
C      1  0.5224590000000  0.4772110000000  0.4852900000000 1.0
C      1  0.5224900000000  0.4780760000000  0.5170810000000 1.0
C      1  0.5225070000000  0.5092280000000  0.5252360000000 1.0
C      1  0.5223800000000  0.5274810000000  0.4989400000000 1.0
C      1  0.4772290000000  0.5083050000000  0.4734150000000 1.0
C      1  0.4777830000000  0.4778650000000  0.4840850000000 1.0
C      1  0.4777380000000  0.4792400000000  0.5163840000000 1.0
C      1  0.4776130000000  0.5098110000000  0.5257540000000 1.0
C      1  0.4772220000000  0.5273030000000  0.4988250000000 1.0
C      1  0.5145560000000  0.4606990000000  0.4140030000000 1.0
C      1  0.5184700000000  0.4022030000000  0.5094790000000 1.0
C      1  0.5140800000000  0.4805590000000  0.5917980000000 1.0
C      1  0.5186120000000  0.5844760000000  0.5501600000000 1.0
C      1  0.5134410000000  0.5691500000000  0.4374130000000 1.0
C      1  0.4818960000000  0.4623530000000  0.4103000000000 1.0
C      1  0.4859650000000  0.4070730000000  0.5095540000000 1.0
C      1  0.4814300000000  0.4784470000000  0.5957170000000 1.0
C      1  0.4859060000000  0.5813200000000  0.5470070000000 1.0
C      1  0.4809580000000  0.5738410000000  0.4353130000000 1.0
C      1  0.5543630000000  0.4984390000000  0.5286790000000 1.0
C      1  0.5544460000000  0.5272020000000  0.5103330000000 1.0
C      1  0.5542270000000  0.5175970000000  0.4776270000000 1.0
C      1  0.5544290000000  0.4835320000000  0.4758760000000 1.0
C      1  0.5545290000000  0.4714730000000  0.5077830000000 1.0
C      1  0.4457050000000  0.4987000000000  0.5291170000000 1.0
C      1  0.4455550000000  0.5270530000000  0.5101850000000 1.0
C      1  0.4452680000000  0.5187100000000  0.4770990000000 1.0
C      1  0.4456260000000  0.4846410000000  0.4753260000000 1.0
C      1  0.4460130000000  0.4725900000000  0.5071750000000 1.0
C      1  0.5903430000000  0.5247380000000  0.4929260000000 1.0
C      1  0.5903280000000  0.5007950000000  0.4740990000000 1.0
C      1  0.5905200000000  0.4755250000000  0.4910840000000 1.0
C      1  0.5904550000000  0.4837060000000  0.5203460000000 1.0
C      1  0.5904320000000  0.5141110000000  0.5214700000000 1.0
C      1  0.4093750000000  0.5250060000000  0.4932780000000 1.0
C      1  0.4094150000000  0.5013150000000  0.4741110000000 1.0
C      1  0.4098160000000  0.4758430000000  0.4907270000000 1.0
C      1  0.4098410000000  0.4838420000000  0.5200150000000 1.0
C      1  0.4096170000000  0.5142090000000  0.5216970000000 1.0
C      1  0.4228870000000  0.5299330000000  0.5427660000000 1.0
C      1  0.4220440000000  0.5500470000000  0.4849340000000 1.0
C      1  0.4223030000000  0.5013180000000  0.4477420000000 1.0
C      1  0.4232350000000  0.4509700000000  0.4827340000000 1.0
C      1  0.4226210000000  0.4687260000000  0.5414540000000 1.0
C      1  0.5776570000000  0.5298910000000  0.5425300000000 1.0
C      1  0.5769650000000  0.5495380000000  0.4844260000000 1.0
C      1  0.5771700000000  0.5002210000000  0.4478280000000 1.0
C      1  0.5778420000000  0.4502890000000  0.4834670000000 1.0
C      1  0.5771770000000  0.4686060000000  0.5418430000000 1.0
END
