TITL C-2782235-7892-611 0.00329974094045855 125000 -592.36143654695 0 0 102 (C1) n - 1
REM
REM in /home/nfs/bkarasulu/CARBON/AIRSS/Generating-Clusters/REBO/Higher-Symm/SD-CG/HFTN-CG
REM
REM
REM
REM
REM
REM ./C.cell (12c818d87b63d06a65506943cc24bca4)
REM
REM compiler GCC version 9.2.1 20190827 (Red Hat 9.2.1-1)
REM options -cpp -mtune=generic -march=x86-64 -g -O0 -fpre-include=/usr/include/finclude/math-vector-fortran.h
REM seed 1056979542 1243111535 1959891546 1751035490 -1897072505 1563774012 -1926275802 -213605839 -1229787214 -2776675 -1478209541 1319520747 -1870390949 -2101313388 1205658856 1525235871 314171365 1424008347 551000442 -795359835 -30245011 878721442 -1078961929 889291501 -1151889875 864897126 1660691816 -1165359128 -607345432 -826570499 412663388 1166459150 13919690
REM
CELL 1.54180   50.00000   50.00000   50.00000   90.00000   90.00000   90.00000
LATT -1
SFAC C  
C      1  0.4359310000000  0.4901010000000  0.4411690000000 1.0
C      1  0.5330270000000  0.4472040000000  0.4426120000000 1.0
C      1  0.4733850000000  0.5612980000000  0.4666930000000 1.0
C      1  0.4626830000000  0.4297540000000  0.5216480000000 1.0
C      1  0.4234420000000  0.5402340000000  0.5305970000000 1.0
C      1  0.5094020000000  0.4314660000000  0.4498740000000 1.0
C      1  0.4696420000000  0.4940720000000  0.5775550000000 1.0
C      1  0.5003230000000  0.4425070000000  0.5218190000000 1.0
C      1  0.5022460000000  0.5290620000000  0.4353620000000 1.0
C      1  0.4164450000000  0.4842340000000  0.4755010000000 1.0
C      1  0.4357950000000  0.4398730000000  0.5148690000000 1.0
C      1  0.4567410000000  0.5266270000000  0.5092220000000 1.0
C      1  0.4721920000000  0.5447160000000  0.4397980000000 1.0
C      1  0.5145560000000  0.5845300000000  0.5066360000000 1.0
C      1  0.4649320000000  0.5222140000000  0.5379990000000 1.0
C      1  0.4627730000000  0.4645970000000  0.4993820000000 1.0
C      1  0.5109260000000  0.4230260000000  0.4771410000000 1.0
C      1  0.5413240000000  0.5051620000000  0.4110780000000 1.0
C      1  0.5627670000000  0.4353900000000  0.4871190000000 1.0
C      1  0.5612970000000  0.4642140000000  0.4341630000000 1.0
C      1  0.4529540000000  0.4958350000000  0.5511610000000 1.0
C      1  0.6055320000000  0.5306990000000  0.4431320000000 1.0
C      1  0.4290420000000  0.4622240000000  0.4527440000000 1.0
C      1  0.5420750000000  0.5453720000000  0.4527580000000 1.0
C      1  0.4820020000000  0.5798400000000  0.5020030000000 1.0
C      1  0.4978290000000  0.5494470000000  0.5640300000000 1.0
C      1  0.4582610000000  0.4922070000000  0.4227360000000 1.0
C      1  0.4317960000000  0.4705520000000  0.5515890000000 1.0
C      1  0.4713480000000  0.5446650000000  0.5587740000000 1.0
C      1  0.4924080000000  0.4981230000000  0.5862190000000 1.0
C      1  0.5004240000000  0.5713120000000  0.4675220000000 1.0
C      1  0.4618950000000  0.4736200000000  0.5258880000000 1.0
C      1  0.4914590000000  0.5324380000000  0.4875050000000 1.0
C      1  0.4872260000000  0.5843110000000  0.5476440000000 1.0
C      1  0.4682270000000  0.4742590000000  0.4586590000000 1.0
C      1  0.5400880000000  0.5009120000000  0.5338130000000 1.0
C      1  0.5207940000000  0.4737680000000  0.4930280000000 1.0
C      1  0.5283090000000  0.4329240000000  0.5176150000000 1.0
C      1  0.5747350000000  0.4883180000000  0.4910120000000 1.0
C      1  0.5670740000000  0.5321350000000  0.5557900000000 1.0
C      1  0.4104780000000  0.5362590000000  0.5542850000000 1.0
C      1  0.5546590000000  0.5217630000000  0.4578040000000 1.0
C      1  0.4187840000000  0.4897840000000  0.5080150000000 1.0
C      1  0.5149230000000  0.5864670000000  0.5383820000000 1.0
C      1  0.4610990000000  0.4572010000000  0.5548450000000 1.0
C      1  0.4327800000000  0.4562160000000  0.4857140000000 1.0
C      1  0.5732390000000  0.4813100000000  0.5244700000000 1.0
C      1  0.5371570000000  0.5679530000000  0.5473370000000 1.0
C      1  0.4727090000000  0.5215430000000  0.4643050000000 1.0
C      1  0.5444170000000  0.5373820000000  0.5880670000000 1.0
C      1  0.5837920000000  0.5147100000000  0.4451170000000 1.0
C      1  0.4910030000000  0.5002370000000  0.5404410000000 1.0
C      1  0.4728620000000  0.5154650000000  0.4248110000000 1.0
C      1  0.4732440000000  0.4695780000000  0.4114480000000 1.0
C      1  0.4923590000000  0.4786820000000  0.4452220000000 1.0
C      1  0.5353210000000  0.4258280000000  0.4911720000000 1.0
C      1  0.5596140000000  0.5519650000000  0.5385890000000 1.0
C      1  0.5040600000000  0.4722200000000  0.4183580000000 1.0
C      1  0.4844220000000  0.4313990000000  0.4955100000000 1.0
C      1  0.4672540000000  0.4429580000000  0.4208470000000 1.0
C      1  0.5098640000000  0.5517550000000  0.5078380000000 1.0
C      1  0.5501200000000  0.4494990000000  0.5310430000000 1.0
C      1  0.5569410000000  0.5452010000000  0.5076200000000 1.0
C      1  0.5568830000000  0.4807410000000  0.5545540000000 1.0
C      1  0.5509480000000  0.5081810000000  0.5715340000000 1.0
C      1  0.4214580000000  0.4647590000000  0.5258730000000 1.0
C      1  0.4247480000000  0.5124200000000  0.4613700000000 1.0
C      1  0.4979740000000  0.4698890000000  0.5420040000000 1.0
C      1  0.4284610000000  0.5328130000000  0.4817480000000 1.0
C      1  0.4600030000000  0.4972370000000  0.4722840000000 1.0
C      1  0.5289500000000  0.5665830000000  0.4668040000000 1.0
C      1  0.4851740000000  0.4276460000000  0.5470910000000 1.0
C      1  0.4679820000000  0.5752910000000  0.5273050000000 1.0
C      1  0.5373590000000  0.4694980000000  0.4650870000000 1.0
C      1  0.5125160000000  0.4397000000000  0.5634820000000 1.0
C      1  0.4169230000000  0.5239110000000  0.5078910000000 1.0
C      1  0.4811230000000  0.4353730000000  0.4443180000000 1.0
C      1  0.5623570000000  0.5119930000000  0.5126060000000 1.0
C      1  0.4833700000000  0.4614800000000  0.5993890000000 1.0
C      1  0.4554450000000  0.5497800000000  0.4866500000000 1.0
C      1  0.5775540000000  0.4834670000000  0.4573590000000 1.0
C      1  0.5310520000000  0.5337230000000  0.4893280000000 1.0
C      1  0.5164410000000  0.5458280000000  0.5864610000000 1.0
C      1  0.5115910000000  0.4899650000000  0.4637330000000 1.0
C      1  0.5673820000000  0.4952950000000  0.4246820000000 1.0
C      1  0.5213500000000  0.5052830000000  0.4991470000000 1.0
C      1  0.5268710000000  0.4723040000000  0.5243970000000 1.0
C      1  0.5382070000000  0.4529500000000  0.5607530000000 1.0
C      1  0.5242190000000  0.5256470000000  0.4142890000000 1.0
C      1  0.4682880000000  0.4452740000000  0.4716390000000 1.0
C      1  0.5412140000000  0.5717760000000  0.4931510000000 1.0
C      1  0.4447450000000  0.5592330000000  0.5290440000000 1.0
C      1  0.5181080000000  0.5167200000000  0.5462440000000 1.0
C      1  0.4479570000000  0.5015200000000  0.4972000000000 1.0
C      1  0.5174260000000  0.5101530000000  0.5778990000000 1.0
C      1  0.5474250000000  0.4993790000000  0.4778720000000 1.0
C      1  0.5125160000000  0.5206890000000  0.4634840000000 1.0
C      1  0.5721960000000  0.4513670000000  0.5082580000000 1.0
C      1  0.4943390000000  0.5129190000000  0.5125330000000 1.0
C      1  0.5334440000000  0.4756180000000  0.4176190000000 1.0
C      1  0.5145620000000  0.5465280000000  0.5375790000000 1.0
C      1  0.4870270000000  0.4584470000000  0.5722420000000 1.0
END
