TITL C-2782236-320-881 0.000122905409621742 125000 -170.93473127563 0 0 31 (C2) n - 1
REM
REM in /home/nfs/bkarasulu/CARBON/AIRSS/Generating-Clusters/REBO/Higher-Symm/SD-CG/HFTN-CG
REM
REM
REM
REM
REM
REM ./C.cell (12c818d87b63d06a65506943cc24bca4)
REM
REM compiler GCC version 9.2.1 20190827 (Red Hat 9.2.1-1)
REM options -cpp -mtune=generic -march=x86-64 -g -O0 -fpre-include=/usr/include/finclude/math-vector-fortran.h
REM seed 1020530572 1662688546 -952987315 -1690626094 -1919767980 500702297 -1410119913 -1620825889 -502606600 1393442939 -2095554431 -1509602172 1111981787 -1172714 164952165 691818134 907467846 -623141155 -1493198260 -761639578 -383250522 1180398489 457410425 346995156 -403816420 -26514286 363263260 2108809705 791758992 411599656 404650615 -487238661 -528897177
REM
CELL 1.54180   50.00000   50.00000   50.00000   90.00000   90.00000   90.00000
LATT -1
SFAC C  
C      1  0.5093270000000  0.5191810000000  0.5531460000000 1.0
C      1  0.5093360000000  0.4811900000000  0.4462290000000 1.0
C      1  0.4904560000000  0.4921140000000  0.5448680000000 1.0
C      1  0.4904540000000  0.5082500000000  0.4545060000000 1.0
C      1  0.4611220000000  0.5124160000000  0.4468720000000 1.0
C      1  0.4611250000000  0.4879360000000  0.5525020000000 1.0
C      1  0.4913520000000  0.5027760000000  0.5127900000000 1.0
C      1  0.4913530000000  0.4975880000000  0.4865850000000 1.0
C      1  0.4285840000000  0.4968440000000  0.5127280000000 1.0
C      1  0.4285830000000  0.5034950000000  0.4866440000000 1.0
C      1  0.4931150000000  0.4384710000000  0.4897700000000 1.0
C      1  0.4930900000000  0.5618940000000  0.5096040000000 1.0
C      1  0.4393430000000  0.4909660000000  0.5367470000000 1.0
C      1  0.4393410000000  0.5093770000000  0.4626260000000 1.0
C      1  0.5013610000000  0.4545220000000  0.4421490000000 1.0
C      1  0.5013420000000  0.5458460000000  0.5572260000000 1.0
C      1  0.5383550000000  0.5220760000000  0.4757300000000 1.0
C      1  0.5383630000000  0.4783060000000  0.5236460000000 1.0
C      1  0.4942790000000  0.4377390000000  0.4626770000000 1.0
C      1  0.4942540000000  0.5626260000000  0.5366970000000 1.0
C      1  0.5497060000000  0.4904480000000  0.5467350000000 1.0
C      1  0.5497040000000  0.5099390000000  0.4526410000000 1.0
C      1  0.5179910000000  0.4877820000000  0.4746600000000 1.0
C      1  0.5179850000000  0.5125920000000  0.5247150000000 1.0
C      1  0.5533340000000  0.4558390000000  0.5146930000000 1.0
C      1  0.5533170000000  0.5445490000000  0.4846830000000 1.0
C      1  0.5084240000000  0.4703940000000  0.5288030000000 1.0
C      1  0.5084130000000  0.5299760000000  0.4705720000000 1.0
C      1  0.4978680000000  0.5492360000000  0.4862720000000 1.0
C      1  0.4978870000000  0.4511310000000  0.5131020000000 1.0
C      1  0.5355370000000  0.5001910000000  0.4996880000000 1.0
END
