TITL C-2782237-5345-867 -0.00385867116936183 125000 -710.802033289396 0 0 119 (C1) n - 1
REM
REM in /home/nfs/bkarasulu/CARBON/AIRSS/Generating-Clusters/REBO/Higher-Symm/SD-CG/HFTN-CG
REM
REM
REM
REM
REM
REM ./C.cell (12c818d87b63d06a65506943cc24bca4)
REM
REM compiler GCC version 9.2.1 20190827 (Red Hat 9.2.1-1)
REM options -cpp -mtune=generic -march=x86-64 -g -O0 -fpre-include=/usr/include/finclude/math-vector-fortran.h
REM seed 2133957998 -687835699 131427397 -1063252077 1710447876 -997166960 -455173608 -1376075233 -1327947788 -1662312031 121704178 1594477241 -1810521755 223477479 117054538 704577179 -700051470 1480341398 551691542 1025526039 835296456 -286494252 1873760189 37716096 1944528261 1231531666 -4143220 1805864431 169406769 680552939 -1984700373 -68116091 1674816415
REM
CELL 1.54180   50.00000   50.00000   50.00000   90.00000   90.00000   90.00000
LATT -1
SFAC C  
C      1  0.5585030000000  0.4948170000000  0.5545290000000 1.0
C      1  0.4465490000000  0.5067480000000  0.4456540000000 1.0
C      1  0.5075870000000  0.4987850000000  0.4643650000000 1.0
C      1  0.4986400000000  0.5063840000000  0.5278860000000 1.0
C      1  0.5237270000000  0.5266520000000  0.5016560000000 1.0
C      1  0.4890360000000  0.4764730000000  0.5035530000000 1.0
C      1  0.5996640000000  0.4869960000000  0.5260190000000 1.0
C      1  0.4082530000000  0.5204750000000  0.4811530000000 1.0
C      1  0.4605000000000  0.5549030000000  0.4473510000000 1.0
C      1  0.5420050000000  0.4447700000000  0.5499420000000 1.0
C      1  0.4535920000000  0.5880110000000  0.5008640000000 1.0
C      1  0.5305820000000  0.4117120000000  0.4852390000000 1.0
C      1  0.5018730000000  0.5439100000000  0.4689560000000 1.0
C      1  0.4773790000000  0.4604490000000  0.5381640000000 1.0
C      1  0.4074750000000  0.4713900000000  0.4913030000000 1.0
C      1  0.5921140000000  0.5277090000000  0.5037740000000 1.0
C      1  0.5403860000000  0.5490950000000  0.5641270000000 1.0
C      1  0.4598800000000  0.4508200000000  0.4373470000000 1.0
C      1  0.4723160000000  0.5020870000000  0.5726350000000 1.0
C      1  0.5295640000000  0.4934700000000  0.4294140000000 1.0
C      1  0.5220630000000  0.4757490000000  0.5127930000000 1.0
C      1  0.4748630000000  0.5318140000000  0.4858330000000 1.0
C      1  0.5349180000000  0.4719770000000  0.4814300000000 1.0
C      1  0.4659700000000  0.5286860000000  0.5186080000000 1.0
C      1  0.4937100000000  0.4276180000000  0.4921920000000 1.0
C      1  0.5022740000000  0.5763510000000  0.5136840000000 1.0
C      1  0.5185500000000  0.5165310000000  0.5536700000000 1.0
C      1  0.4827840000000  0.4877780000000  0.4454840000000 1.0
C      1  0.4889980000000  0.5376630000000  0.5376040000000 1.0
C      1  0.5126880000000  0.4656240000000  0.4595390000000 1.0
C      1  0.4500230000000  0.5034240000000  0.5254690000000 1.0
C      1  0.5542870000000  0.4947670000000  0.4747770000000 1.0
C      1  0.4743950000000  0.5941790000000  0.5563450000000 1.0
C      1  0.5238640000000  0.4039990000000  0.4552030000000 1.0
C      1  0.4425460000000  0.4588000000000  0.5575140000000 1.0
C      1  0.5478370000000  0.5356190000000  0.4435980000000 1.0
C      1  0.5971560000000  0.4981850000000  0.4993980000000 1.0
C      1  0.4049990000000  0.5010040000000  0.5020980000000 1.0
C      1  0.5408200000000  0.5162680000000  0.4095300000000 1.0
C      1  0.4572490000000  0.4790280000000  0.5882300000000 1.0
C      1  0.5454620000000  0.5169550000000  0.5746260000000 1.0
C      1  0.4558340000000  0.4825580000000  0.4254910000000 1.0
C      1  0.5686610000000  0.5416040000000  0.4863270000000 1.0
C      1  0.4341140000000  0.4624360000000  0.5074190000000 1.0
C      1  0.4724840000000  0.5305450000000  0.5818450000000 1.0
C      1  0.5274660000000  0.4659400000000  0.4171870000000 1.0
C      1  0.5472980000000  0.5076670000000  0.4483940000000 1.0
C      1  0.4589650000000  0.4868420000000  0.5491070000000 1.0
C      1  0.5844210000000  0.5327700000000  0.5357330000000 1.0
C      1  0.4210200000000  0.4779680000000  0.4627400000000 1.0
C      1  0.4981260000000  0.4802140000000  0.5454650000000 1.0
C      1  0.5060910000000  0.5246200000000  0.4466150000000 1.0
C      1  0.5598110000000  0.4677570000000  0.4262820000000 1.0
C      1  0.4418620000000  0.5278550000000  0.5728740000000 1.0
C      1  0.4940660000000  0.4189270000000  0.4616120000000 1.0
C      1  0.5051840000000  0.5852190000000  0.5447360000000 1.0
C      1  0.5870080000000  0.5022970000000  0.5455870000000 1.0
C      1  0.4166770000000  0.5075940000000  0.4571460000000 1.0
C      1  0.5209570000000  0.5392190000000  0.5289720000000 1.0
C      1  0.4828750000000  0.4688470000000  0.4735370000000 1.0
C      1  0.5658160000000  0.4487680000000  0.4485220000000 1.0
C      1  0.4337370000000  0.5479930000000  0.5523520000000 1.0
C      1  0.4219080000000  0.5458610000000  0.4937730000000 1.0
C      1  0.5699720000000  0.4408370000000  0.5027980000000 1.0
C      1  0.5438040000000  0.4404500000000  0.4864730000000 1.0
C      1  0.4498370000000  0.5558260000000  0.5062990000000 1.0
C      1  0.4338550000000  0.5008630000000  0.5829360000000 1.0
C      1  0.5656340000000  0.4946850000000  0.4126340000000 1.0
C      1  0.4485120000000  0.4262710000000  0.4792170000000 1.0
C      1  0.5482640000000  0.5728220000000  0.5207420000000 1.0
C      1  0.5251850000000  0.5597120000000  0.4766370000000 1.0
C      1  0.4618530000000  0.4405270000000  0.5260830000000 1.0
C      1  0.5791630000000  0.4550660000000  0.4751040000000 1.0
C      1  0.4203710000000  0.5398180000000  0.5276900000000 1.0
C      1  0.5359570000000  0.5748220000000  0.5464670000000 1.0
C      1  0.4640220000000  0.4253610000000  0.4551030000000 1.0
C      1  0.4682530000000  0.4515280000000  0.5760740000000 1.0
C      1  0.5293010000000  0.5443090000000  0.4206840000000 1.0
C      1  0.5827850000000  0.4837450000000  0.4794810000000 1.0
C      1  0.4198970000000  0.5102510000000  0.5246350000000 1.0
C      1  0.4611820000000  0.5023400000000  0.4757120000000 1.0
C      1  0.5421650000000  0.5002540000000  0.5251780000000 1.0
C      1  0.5523610000000  0.5306290000000  0.5380250000000 1.0
C      1  0.4512440000000  0.4712480000000  0.4632940000000 1.0
C      1  0.5461210000000  0.4283750000000  0.4484280000000 1.0
C      1  0.4511710000000  0.5704150000000  0.5525210000000 1.0
C      1  0.4826540000000  0.5607940000000  0.5023250000000 1.0
C      1  0.5144430000000  0.4444610000000  0.5015000000000 1.0
C      1  0.5157740000000  0.4391130000000  0.4479660000000 1.0
C      1  0.4829330000000  0.5616040000000  0.5518550000000 1.0
C      1  0.5149860000000  0.4795400000000  0.5682580000000 1.0
C      1  0.4875120000000  0.5217910000000  0.4251100000000 1.0
C      1  0.5526290000000  0.5158750000000  0.4966390000000 1.0
C      1  0.4566550000000  0.4829130000000  0.5033050000000 1.0
C      1  0.4825120000000  0.4441220000000  0.4149770000000 1.0
C      1  0.5166410000000  0.5547400000000  0.5852300000000 1.0
C      1  0.4403520000000  0.5577260000000  0.4677000000000 1.0
C      1  0.5632910000000  0.4396680000000  0.5306780000000 1.0
C      1  0.5720910000000  0.5564480000000  0.5147840000000 1.0
C      1  0.4269440000000  0.4447340000000  0.4814170000000 1.0
C      1  0.4844940000000  0.5709320000000  0.4437770000000 1.0
C      1  0.5164740000000  0.4302260000000  0.5525950000000 1.0
C      1  0.5153000000000  0.5066320000000  0.5861580000000 1.0
C      1  0.4856840000000  0.4918370000000  0.4118500000000 1.0
C      1  0.5501410000000  0.5519310000000  0.4658650000000 1.0
C      1  0.4325230000000  0.4451870000000  0.5337310000000 1.0
C      1  0.4615870000000  0.5304060000000  0.4336480000000 1.0
C      1  0.5411580000000  0.4701790000000  0.5619510000000 1.0
C      1  0.5064990000000  0.5601280000000  0.4282100000000 1.0
C      1  0.4932420000000  0.4393070000000  0.5681050000000 1.0
C      1  0.5133850000000  0.4092150000000  0.5337320000000 1.0
C      1  0.4848640000000  0.5938720000000  0.4605200000000 1.0
C      1  0.5004030000000  0.4640470000000  0.4088200000000 1.0
C      1  0.4994530000000  0.5339410000000  0.5898900000000 1.0
C      1  0.5271510000000  0.5733820000000  0.5012980000000 1.0
C      1  0.4672060000000  0.4273620000000  0.5017550000000 1.0
C      1  0.4701050000000  0.5997340000000  0.4827550000000 1.0
C      1  0.5202480000000  0.4024580000000  0.5083960000000 1.0
C      1  0.5032150000000  0.5052060000000  0.4940860000000 1.0
END
