TITL C-2782228-2999-1267 -0.00142883118254381 125000 -1008.86884187857 0 0 170 (C1) n - 1
REM
REM in /home/nfs/bkarasulu/CARBON/AIRSS/Generating-Clusters/REBO/Higher-Symm/SD-CG/HFTN-CG
REM
REM
REM
REM
REM
REM ./C.cell (12c818d87b63d06a65506943cc24bca4)
REM
REM compiler GCC version 9.2.1 20190827 (Red Hat 9.2.1-1)
REM options -cpp -mtune=generic -march=x86-64 -g -O0 -fpre-include=/usr/include/finclude/math-vector-fortran.h
REM seed 2043753152 1904076868 -208966694 -749232351 -2015023537 -1973219255 -1401520085 -2006404058 1119403044 -375055171 -913160976 -7360152 -803234843 -791317491 1120124669 1927610796 599042789 1864562771 -1977947971 -1801818515 -2061526678 1254447359 -1681287905 -2005089707 -848262887 -1545945024 1487943077 -251406570 746228665 -148075564 414338475 605317380 -1974137151
REM
CELL 1.54180   50.00000   50.00000   50.00000   90.00000   90.00000   90.00000
LATT -1
SFAC C  
C      1  0.4837260000000  0.5292350000000  0.4474360000000 1.0
C      1  0.5310130000000  0.4963020000000  0.4559360000000 1.0
C      1  0.4813980000000  0.4722480000000  0.4603760000000 1.0
C      1  0.4820220000000  0.5196420000000  0.5526800000000 1.0
C      1  0.5349210000000  0.5027940000000  0.5495120000000 1.0
C      1  0.4901730000000  0.4646660000000  0.5554250000000 1.0
C      1  0.5160390000000  0.5260580000000  0.4541200000000 1.0
C      1  0.4708020000000  0.5043510000000  0.4565940000000 1.0
C      1  0.5117830000000  0.4690740000000  0.4532650000000 1.0
C      1  0.5146280000000  0.5264730000000  0.5462850000000 1.0
C      1  0.4692600000000  0.4910450000000  0.5529870000000 1.0
C      1  0.5216310000000  0.4722860000000  0.5516350000000 1.0
C      1  0.5606860000000  0.4832900000000  0.4588390000000 1.0
C      1  0.4530790000000  0.4548560000000  0.4554620000000 1.0
C      1  0.4885870000000  0.5592230000000  0.4628270000000 1.0
C      1  0.5600990000000  0.4855770000000  0.5360730000000 1.0
C      1  0.4619430000000  0.4544470000000  0.5394290000000 1.0
C      1  0.4860490000000  0.5532590000000  0.5491940000000 1.0
C      1  0.4443000000000  0.4856730000000  0.4548350000000 1.0
C      1  0.5405160000000  0.4584250000000  0.4642100000000 1.0
C      1  0.5218400000000  0.5563720000000  0.4666520000000 1.0
C      1  0.4412890000000  0.4811030000000  0.5371450000000 1.0
C      1  0.5478490000000  0.4557910000000  0.5397060000000 1.0
C      1  0.5176400000000  0.5602370000000  0.5433340000000 1.0
C      1  0.4347330000000  0.5025450000000  0.4176850000000 1.0
C      1  0.5347610000000  0.5466460000000  0.4015660000000 1.0
C      1  0.5306890000000  0.4474710000000  0.4020680000000 1.0
C      1  0.4414030000000  0.5000400000000  0.5856710000000 1.0
C      1  0.5316390000000  0.5530140000000  0.5800660000000 1.0
C      1  0.5312830000000  0.4440430000000  0.5971320000000 1.0
C      1  0.5670020000000  0.4991910000000  0.3994860000000 1.0
C      1  0.4590750000000  0.5565330000000  0.4137240000000 1.0
C      1  0.4720860000000  0.4524080000000  0.4025270000000 1.0
C      1  0.5656060000000  0.5041110000000  0.5898880000000 1.0
C      1  0.4668430000000  0.5527050000000  0.5881760000000 1.0
C      1  0.4708820000000  0.4505390000000  0.5937490000000 1.0
C      1  0.5531120000000  0.4403940000000  0.4175830000000 1.0
C      1  0.4161540000000  0.4817140000000  0.4167280000000 1.0
C      1  0.5252950000000  0.5683090000000  0.4171990000000 1.0
C      1  0.5540600000000  0.4357050000000  0.5847520000000 1.0
C      1  0.4309840000000  0.4757190000000  0.5753040000000 1.0
C      1  0.5226660000000  0.5785230000000  0.5784650000000 1.0
C      1  0.4501580000000  0.4455510000000  0.4168890000000 1.0
C      1  0.5848770000000  0.4825160000000  0.4137770000000 1.0
C      1  0.4703580000000  0.5809360000000  0.4180880000000 1.0
C      1  0.4468100000000  0.4509530000000  0.5805850000000 1.0
C      1  0.5809200000000  0.4828490000000  0.5824260000000 1.0
C      1  0.4733650000000  0.5782780000000  0.5775580000000 1.0
C      1  0.4864870000000  0.4315960000000  0.3898920000000 1.0
C      1  0.4322520000000  0.5504880000000  0.4205240000000 1.0
C      1  0.5766680000000  0.5245340000000  0.3906030000000 1.0
C      1  0.4848900000000  0.4280900000000  0.6031720000000 1.0
C      1  0.4388000000000  0.5479320000000  0.5911440000000 1.0
C      1  0.5733020000000  0.5298160000000  0.5812520000000 1.0
C      1  0.5135870000000  0.4279340000000  0.3907570000000 1.0
C      1  0.5617480000000  0.5475960000000  0.3922650000000 1.0
C      1  0.4272100000000  0.5254380000000  0.4329690000000 1.0
C      1  0.5120130000000  0.4251310000000  0.6055960000000 1.0
C      1  0.5563340000000  0.5475930000000  0.5674280000000 1.0
C      1  0.4261540000000  0.5238190000000  0.5879620000000 1.0
C      1  0.4595380000000  0.6012430000000  0.5326110000000 1.0
C      1  0.6017530000000  0.4876980000000  0.5325980000000 1.0
C      1  0.4371060000000  0.4175100000000  0.5299560000000 1.0
C      1  0.4590010000000  0.5935420000000  0.4684120000000 1.0
C      1  0.6047110000000  0.4869790000000  0.4672660000000 1.0
C      1  0.4322480000000  0.4149120000000  0.4639140000000 1.0
C      1  0.5393730000000  0.6022870000000  0.5303560000000 1.0
C      1  0.3951520000000  0.4878400000000  0.5230560000000 1.0
C      1  0.5603010000000  0.4161750000000  0.5319000000000 1.0
C      1  0.5417750000000  0.5914460000000  0.4666590000000 1.0
C      1  0.3887050000000  0.4809080000000  0.4592160000000 1.0
C      1  0.5589390000000  0.4194060000000  0.4675190000000 1.0
C      1  0.5140770000000  0.3873150000000  0.5258470000000 1.0
C      1  0.3980520000000  0.5385640000000  0.5094480000000 1.0
C      1  0.5837580000000  0.5726430000000  0.5279980000000 1.0
C      1  0.5119810000000  0.3923560000000  0.4925050000000 1.0
C      1  0.3966230000000  0.5330130000000  0.4760160000000 1.0
C      1  0.5893530000000  0.5711100000000  0.4949250000000 1.0
C      1  0.4808340000000  0.3831480000000  0.5195400000000 1.0
C      1  0.5967980000000  0.5425490000000  0.5217840000000 1.0
C      1  0.4158930000000  0.5673570000000  0.5141920000000 1.0
C      1  0.4784720000000  0.3884590000000  0.4862920000000 1.0
C      1  0.6051490000000  0.5410470000000  0.4894450000000 1.0
C      1  0.4182270000000  0.5587830000000  0.4816680000000 1.0
C      1  0.5439670000000  0.3994540000000  0.5154490000000 1.0
C      1  0.3849690000000  0.5085860000000  0.5052910000000 1.0
C      1  0.5645970000000  0.5955260000000  0.5154380000000 1.0
C      1  0.5438400000000  0.4011430000000  0.4838120000000 1.0
C      1  0.3804750000000  0.5040120000000  0.4739530000000 1.0
C      1  0.5642390000000  0.5917540000000  0.4839270000000 1.0
C      1  0.4501740000000  0.3965540000000  0.5132700000000 1.0
C      1  0.6084870000000  0.5111490000000  0.5157680000000 1.0
C      1  0.4367800000000  0.5940660000000  0.5171570000000 1.0
C      1  0.4462220000000  0.3964650000000  0.4810590000000 1.0
C      1  0.6125960000000  0.5081130000000  0.4843240000000 1.0
C      1  0.4367370000000  0.5866940000000  0.4861520000000 1.0
C      1  0.4868450000000  0.5945900000000  0.4843480000000 1.0
C      1  0.5911850000000  0.4657070000000  0.4816840000000 1.0
C      1  0.4257120000000  0.4410950000000  0.4810750000000 1.0
C      1  0.4858860000000  0.5919200000000  0.5168340000000 1.0
C      1  0.5870270000000  0.4654840000000  0.5144240000000 1.0
C      1  0.4347630000000  0.4441750000000  0.5120170000000 1.0
C      1  0.5172440000000  0.5988070000000  0.4804550000000 1.0
C      1  0.4093460000000  0.4658370000000  0.4766730000000 1.0
C      1  0.5703180000000  0.4430760000000  0.4859940000000 1.0
C      1  0.5161010000000  0.5907710000000  0.5112050000000 1.0
C      1  0.4169060000000  0.4691730000000  0.5079870000000 1.0
C      1  0.5752580000000  0.4367160000000  0.5177290000000 1.0
C      1  0.4258550000000  0.5244160000000  0.4632930000000 1.0
C      1  0.5680670000000  0.5522510000000  0.4801880000000 1.0
C      1  0.5122010000000  0.4253250000000  0.4864150000000 1.0
C      1  0.4276540000000  0.5291210000000  0.5175220000000 1.0
C      1  0.5609890000000  0.5506400000000  0.5375170000000 1.0
C      1  0.5139670000000  0.4211850000000  0.5303180000000 1.0
C      1  0.5799860000000  0.5271690000000  0.4714790000000 1.0
C      1  0.4484260000000  0.5440550000000  0.4786210000000 1.0
C      1  0.4847860000000  0.4197740000000  0.4824940000000 1.0
C      1  0.5715090000000  0.5218010000000  0.5260070000000 1.0
C      1  0.4439950000000  0.5516600000000  0.5223540000000 1.0
C      1  0.4860800000000  0.4153810000000  0.5222280000000 1.0
C      1  0.4812940000000  0.4682280000000  0.4938320000000 1.0
C      1  0.4696000000000  0.5246570000000  0.4908580000000 1.0
C      1  0.5232280000000  0.5052650000000  0.4872980000000 1.0
C      1  0.4938040000000  0.4723040000000  0.5232180000000 1.0
C      1  0.4843480000000  0.5267420000000  0.5201720000000 1.0
C      1  0.5361890000000  0.5109370000000  0.5165320000000 1.0
C      1  0.5120450000000  0.4744040000000  0.4871250000000 1.0
C      1  0.5001900000000  0.5276850000000  0.4838360000000 1.0
C      1  0.4632640000000  0.4939690000000  0.4884630000000 1.0
C      1  0.5248090000000  0.4801830000000  0.5182010000000 1.0
C      1  0.5143830000000  0.5345420000000  0.5128710000000 1.0
C      1  0.4730870000000  0.4973440000000  0.5196880000000 1.0
C      1  0.5373340000000  0.5647590000000  0.5175430000000 1.0
C      1  0.5309860000000  0.4406730000000  0.5202590000000 1.0
C      1  0.4316350000000  0.4997950000000  0.5118440000000 1.0
C      1  0.5416790000000  0.5573110000000  0.4877290000000 1.0
C      1  0.5365830000000  0.4431200000000  0.4904310000000 1.0
C      1  0.4249530000000  0.4951770000000  0.4788620000000 1.0
C      1  0.4711250000000  0.5638720000000  0.5253520000000 1.0
C      1  0.4680970000000  0.4371180000000  0.5144000000000 1.0
C      1  0.5717520000000  0.4953170000000  0.5076890000000 1.0
C      1  0.4727320000000  0.5641800000000  0.4914750000000 1.0
C      1  0.4597190000000  0.4376910000000  0.4817140000000 1.0
C      1  0.5700100000000  0.5024090000000  0.4795610000000 1.0
C      1  0.4117790000000  0.4710400000000  0.5476040000000 1.0
C      1  0.5135880000000  0.5932100000000  0.5509370000000 1.0
C      1  0.5678030000000  0.4385020000000  0.5569210000000 1.0
C      1  0.4057940000000  0.4645210000000  0.4370740000000 1.0
C      1  0.5170800000000  0.5806770000000  0.4449550000000 1.0
C      1  0.5646580000000  0.4455920000000  0.4461420000000 1.0
C      1  0.5825540000000  0.4691960000000  0.5541950000000 1.0
C      1  0.4810990000000  0.5955690000000  0.5561030000000 1.0
C      1  0.4320610000000  0.4436210000000  0.5516290000000 1.0
C      1  0.5857330000000  0.4721680000000  0.4427530000000 1.0
C      1  0.4833930000000  0.5863200000000  0.4454760000000 1.0
C      1  0.4277610000000  0.4401910000000  0.4412390000000 1.0
C      1  0.4762870000000  0.5325890000000  0.4183620000000 1.0
C      1  0.5380970000000  0.4967320000000  0.3996730000000 1.0
C      1  0.4870970000000  0.4799280000000  0.4023520000000 1.0
C      1  0.4830790000000  0.5287960000000  0.5915230000000 1.0
C      1  0.5364800000000  0.5017940000000  0.5947920000000 1.0
C      1  0.4865920000000  0.4759810000000  0.5935630000000 1.0
C      1  0.5228040000000  0.5208110000000  0.3988930000000 1.0
C      1  0.4630420000000  0.5034290000000  0.4083080000000 1.0
C      1  0.5206630000000  0.4742280000000  0.4015940000000 1.0
C      1  0.5162320000000  0.5288200000000  0.5891090000000 1.0
C      1  0.4694550000000  0.5032880000000  0.5916630000000 1.0
C      1  0.5204280000000  0.4718020000000  0.5955830000000 1.0
C      1  0.4944230000000  0.5133880000000  0.3997900000000 1.0
C      1  0.5068580000000  0.4982750000000  0.5788210000000 1.0
END
