TITL C-2782226-7400-487 -0.00286641194663148 125000 -473.951784499905 0 0 82 (C1) n - 1
REM
REM in /home/nfs/bkarasulu/CARBON/AIRSS/Generating-Clusters/REBO/Higher-Symm/SD-CG/HFTN-CG
REM
REM
REM
REM
REM
REM ./C.cell (12c818d87b63d06a65506943cc24bca4)
REM
REM compiler GCC version 9.2.1 20190827 (Red Hat 9.2.1-1)
REM options -cpp -mtune=generic -march=x86-64 -g -O0 -fpre-include=/usr/include/finclude/math-vector-fortran.h
REM seed 1836513184 -248742296 360665069 -652453663 -1278577312 -1730230399 -997439581 -420402094 743068526 1606733534 1682174752 -1814688159 1857544862 -1616720418 -1962882870 -1067187970 39403652 1752399020 1807159692 -2125670022 862298379 416897544 1546582397 -1090519616 1547205779 2108706255 -1956931206 1553372518 -57402323 -30768955 -1730218384 918209424 352089578
REM
CELL 1.54180   50.00000   50.00000   50.00000   90.00000   90.00000   90.00000
LATT -1
SFAC C  
C      1  0.4674510000000  0.5636080000000  0.5193700000000 1.0
C      1  0.4886090000000  0.5354310000000  0.4298150000000 1.0
C      1  0.5418500000000  0.5402350000000  0.4317380000000 1.0
C      1  0.4797930000000  0.5202310000000  0.5017920000000 1.0
C      1  0.5644470000000  0.4591500000000  0.5112050000000 1.0
C      1  0.5385050000000  0.5976460000000  0.4910510000000 1.0
C      1  0.5279780000000  0.4988580000000  0.5172180000000 1.0
C      1  0.5171100000000  0.4942240000000  0.4218360000000 1.0
C      1  0.4662170000000  0.4467230000000  0.4979420000000 1.0
C      1  0.4363350000000  0.5362590000000  0.4329270000000 1.0
C      1  0.4723170000000  0.4961600000000  0.4422790000000 1.0
C      1  0.5209420000000  0.4913120000000  0.5452260000000 1.0
C      1  0.4582540000000  0.4730510000000  0.4808850000000 1.0
C      1  0.5476970000000  0.5468640000000  0.5193710000000 1.0
C      1  0.5011860000000  0.4727330000000  0.5337080000000 1.0
C      1  0.4731710000000  0.4740090000000  0.5409650000000 1.0
C      1  0.4806510000000  0.4207270000000  0.5243450000000 1.0
C      1  0.4698950000000  0.5705700000000  0.4694630000000 1.0
C      1  0.5534890000000  0.4953360000000  0.5684450000000 1.0
C      1  0.4965290000000  0.4772200000000  0.4677930000000 1.0
C      1  0.4216730000000  0.5128440000000  0.5344200000000 1.0
C      1  0.4450240000000  0.4883760000000  0.5342340000000 1.0
C      1  0.4606320000000  0.4414630000000  0.4660930000000 1.0
C      1  0.4277700000000  0.5131000000000  0.5025360000000 1.0
C      1  0.5247040000000  0.4254720000000  0.5085070000000 1.0
C      1  0.5118430000000  0.5303840000000  0.5687980000000 1.0
C      1  0.5382660000000  0.4742120000000  0.4991250000000 1.0
C      1  0.5176060000000  0.4683910000000  0.4434530000000 1.0
C      1  0.4970820000000  0.4211740000000  0.5010100000000 1.0
C      1  0.4917060000000  0.4857300000000  0.5810250000000 1.0
C      1  0.4641710000000  0.4651500000000  0.4424520000000 1.0
C      1  0.5479760000000  0.4692780000000  0.5647910000000 1.0
C      1  0.4915470000000  0.5071740000000  0.4185290000000 1.0
C      1  0.4655690000000  0.5478060000000  0.4459100000000 1.0
C      1  0.4894450000000  0.4574400000000  0.5734600000000 1.0
C      1  0.4570920000000  0.4981340000000  0.4975230000000 1.0
C      1  0.5505160000000  0.5215940000000  0.5644610000000 1.0
C      1  0.4342340000000  0.5420180000000  0.4907570000000 1.0
C      1  0.4672820000000  0.5008370000000  0.5800410000000 1.0
C      1  0.5241690000000  0.5477510000000  0.4969930000000 1.0
C      1  0.5149160000000  0.5575310000000  0.4689700000000 1.0
C      1  0.5043250000000  0.5586810000000  0.5513540000000 1.0
C      1  0.5655590000000  0.5234730000000  0.5068990000000 1.0
C      1  0.5135860000000  0.6025350000000  0.4790460000000 1.0
C      1  0.4927490000000  0.5736680000000  0.5278660000000 1.0
C      1  0.4578540000000  0.5125500000000  0.5513560000000 1.0
C      1  0.5004380000000  0.5089420000000  0.4572690000000 1.0
C      1  0.5291430000000  0.5149100000000  0.4747210000000 1.0
C      1  0.5101780000000  0.5192950000000  0.5011160000000 1.0
C      1  0.5198060000000  0.4305200000000  0.4559300000000 1.0
C      1  0.4687920000000  0.5342730000000  0.5283520000000 1.0
C      1  0.5604240000000  0.5271000000000  0.4735480000000 1.0
C      1  0.5139150000000  0.5007720000000  0.5703730000000 1.0
C      1  0.4541310000000  0.4419890000000  0.5265310000000 1.0
C      1  0.4943400000000  0.4594620000000  0.4897820000000 1.0
C      1  0.5351240000000  0.5443730000000  0.5474470000000 1.0
C      1  0.5442550000000  0.4338380000000  0.4653670000000 1.0
C      1  0.4350170000000  0.4667650000000  0.5126840000000 1.0
C      1  0.5628770000000  0.4426180000000  0.4827710000000 1.0
C      1  0.4211530000000  0.4839420000000  0.4873950000000 1.0
C      1  0.4900400000000  0.4249640000000  0.4704720000000 1.0
C      1  0.4629770000000  0.4500090000000  0.5584250000000 1.0
C      1  0.4809270000000  0.5360410000000  0.5594530000000 1.0
C      1  0.5731560000000  0.4910860000000  0.5081300000000 1.0
C      1  0.4612190000000  0.5307710000000  0.4752020000000 1.0
C      1  0.4957030000000  0.4176450000000  0.5484340000000 1.0
C      1  0.5416810000000  0.4410290000000  0.5256510000000 1.0
C      1  0.5146280000000  0.5383760000000  0.4461120000000 1.0
C      1  0.5374450000000  0.5024690000000  0.4440610000000 1.0
C      1  0.5647560000000  0.4959220000000  0.4787330000000 1.0
C      1  0.4468950000000  0.5129850000000  0.4507000000000 1.0
C      1  0.4974050000000  0.5802340000000  0.4700780000000 1.0
C      1  0.4542650000000  0.5653950000000  0.4937780000000 1.0
C      1  0.5090110000000  0.4389780000000  0.5623270000000 1.0
C      1  0.5102770000000  0.5747400000000  0.5075040000000 1.0
C      1  0.4380840000000  0.4825070000000  0.4576500000000 1.0
C      1  0.5344960000000  0.4479530000000  0.5522980000000 1.0
C      1  0.5630180000000  0.5389790000000  0.4456710000000 1.0
C      1  0.4924440000000  0.4462560000000  0.4431670000000 1.0
C      1  0.5405490000000  0.4774040000000  0.4670290000000 1.0
C      1  0.5500560000000  0.5771330000000  0.5051250000000 1.0
C      1  0.5116570000000  0.4632120000000  0.5097360000000 1.0
END
