TITL C-2782228-2999-580 1454.58200183976 125000 -726.541594127418 0 0 124 (C1) n - 1
REM
REM in /home/nfs/bkarasulu/CARBON/AIRSS/Generating-Clusters/REBO/Higher-Symm/SD-CG/HFTN-CG
REM
REM
REM
REM
REM
REM ./C.cell (12c818d87b63d06a65506943cc24bca4)
REM
REM compiler GCC version 9.2.1 20190827 (Red Hat 9.2.1-1)
REM options -cpp -mtune=generic -march=x86-64 -g -O0 -fpre-include=/usr/include/finclude/math-vector-fortran.h
REM seed -249332771 326766879 -2070280153 1727198729 -1740142729 -1298747506 1549101789 610886222 1895860183 -126792909 49201876 -1351378963 1530215132 1993620251 -5287937 781639021 1782509302 -361323403 -2082627837 276398385 308685507 42337893 -714834086 2118303466 1226676252 680091158 1827141610 555734207 -321412928 1365289334 480892456 -463505938 -979222781
REM
CELL 1.54180   50.00000   50.00000   50.00000   90.00000   90.00000   90.00000
LATT -1
SFAC C  
C      1  0.4329070000000  0.5236570000000  0.5338170000000 1.0
C      1  0.5638960000000  0.5356720000000  0.5260450000000 1.0
C      1  0.5102040000000  0.4393840000000  0.5236290000000 1.0
C      1  0.4490670000000  0.4756450000000  0.4722270000000 1.0
C      1  0.5595420000000  0.4612290000000  0.4630980000000 1.0
C      1  0.5084930000000  0.5550210000000  0.4698850000000 1.0
C      1  0.4889090000000  0.5403600000000  0.4154110000000 1.0
C      1  0.5368180000000  0.4876800000000  0.4156000000000 1.0
C      1  0.4728910000000  0.4748200000000  0.4236460000000 1.0
C      1  0.4914160000000  0.4654960000000  0.5850400000000 1.0
C      1  0.5351030000000  0.5226700000000  0.5781970000000 1.0
C      1  0.4558640000000  0.5258920000000  0.5870200000000 1.0
C      1  0.5156490000000  0.5315210000000  0.4139470000000 1.0
C      1  0.5117650000000  0.4700110000000  0.4158680000000 1.0
C      1  0.4630010000000  0.5022720000000  0.4269120000000 1.0
C      1  0.5157140000000  0.4781580000000  0.5797340000000 1.0
C      1  0.5035800000000  0.5404080000000  0.5760790000000 1.0
C      1  0.4528790000000  0.4970580000000  0.5841020000000 1.0
C      1  0.5399180000000  0.4300790000000  0.4477450000000 1.0
C      1  0.4305390000000  0.5013390000000  0.4480260000000 1.0
C      1  0.5379500000000  0.5667660000000  0.4459100000000 1.0
C      1  0.5426050000000  0.5628300000000  0.5460510000000 1.0
C      1  0.4115610000000  0.4942050000000  0.5500410000000 1.0
C      1  0.5363430000000  0.4350180000000  0.5534100000000 1.0
C      1  0.5128620000000  0.4788810000000  0.5267230000000 1.0
C      1  0.4651100000000  0.5002310000000  0.5323650000000 1.0
C      1  0.5143020000000  0.5203340000000  0.5230080000000 1.0
C      1  0.5144980000000  0.5138050000000  0.4635390000000 1.0
C      1  0.4842760000000  0.5103160000000  0.4791560000000 1.0
C      1  0.5170100000000  0.4800540000000  0.4587560000000 1.0
C      1  0.5641130000000  0.4525770000000  0.5162460000000 1.0
C      1  0.4193990000000  0.4649000000000  0.5118660000000 1.0
C      1  0.5181810000000  0.5746780000000  0.5167560000000 1.0
C      1  0.5657780000000  0.5472210000000  0.4815940000000 1.0
C      1  0.4286920000000  0.5238430000000  0.4878280000000 1.0
C      1  0.5144620000000  0.4246640000000  0.4855970000000 1.0
C      1  0.5181420000000  0.5065140000000  0.4016200000000 1.0
C      1  0.4894900000000  0.4901330000000  0.3995200000000 1.0
C      1  0.4725980000000  0.5193850000000  0.4048780000000 1.0
C      1  0.5155760000000  0.5044690000000  0.5886710000000 1.0
C      1  0.4864090000000  0.5174280000000  0.5944570000000 1.0
C      1  0.4751800000000  0.4845620000000  0.5979210000000 1.0
C      1  0.4953520000000  0.5703090000000  0.5618800000000 1.0
C      1  0.5630870000000  0.4728380000000  0.5617200000000 1.0
C      1  0.4376030000000  0.4536490000000  0.5556520000000 1.0
C      1  0.4916120000000  0.4241320000000  0.4424630000000 1.0
C      1  0.5636200000000  0.5286210000000  0.4345420000000 1.0
C      1  0.4446060000000  0.5479500000000  0.4502880000000 1.0
C      1  0.4613030000000  0.5178900000000  0.4546920000000 1.0
C      1  0.5301730000000  0.5335850000000  0.4402630000000 1.0
C      1  0.5131940000000  0.4509280000000  0.4410610000000 1.0
C      1  0.4446820000000  0.4872180000000  0.5564470000000 1.0
C      1  0.5298010000000  0.4689080000000  0.5547030000000 1.0
C      1  0.5190020000000  0.5416070000000  0.5474520000000 1.0
C      1  0.4696980000000  0.4574000000000  0.4434390000000 1.0
C      1  0.4823570000000  0.5514110000000  0.4403620000000 1.0
C      1  0.5501040000000  0.4913330000000  0.4393270000000 1.0
C      1  0.4519020000000  0.5404620000000  0.5648820000000 1.0
C      1  0.4835510000000  0.4486130000000  0.5644970000000 1.0
C      1  0.5513810000000  0.5147430000000  0.5572160000000 1.0
C      1  0.4847460000000  0.4606010000000  0.5325990000000 1.0
C      1  0.4654050000000  0.5337950000000  0.5342560000000 1.0
C      1  0.5442180000000  0.5089040000000  0.5243440000000 1.0
C      1  0.4765070000000  0.5490080000000  0.4743710000000 1.0
C      1  0.4720260000000  0.4528550000000  0.4765020000000 1.0
C      1  0.5461600000000  0.4903680000000  0.4733440000000 1.0
C      1  0.4766700000000  0.5951450000000  0.4938200000000 1.0
C      1  0.5979060000000  0.4755310000000  0.4836720000000 1.0
C      1  0.4329250000000  0.4207780000000  0.4883120000000 1.0
C      1  0.4679110000000  0.4077420000000  0.5095720000000 1.0
C      1  0.6014140000000  0.5221120000000  0.5119140000000 1.0
C      1  0.4432460000000  0.5774770000000  0.5067420000000 1.0
C      1  0.4533990000000  0.5003910000000  0.4894610000000 1.0
C      1  0.5331440000000  0.5371800000000  0.4798890000000 1.0
C      1  0.5292070000000  0.4544410000000  0.4775380000000 1.0
C      1  0.4364740000000  0.4939880000000  0.5168780000000 1.0
C      1  0.5320570000000  0.4575690000000  0.5082930000000 1.0
C      1  0.5344130000000  0.5452070000000  0.5110910000000 1.0
C      1  0.4142770000000  0.4660620000000  0.5419130000000 1.0
C      1  0.5179130000000  0.5814090000000  0.5481470000000 1.0
C      1  0.5623320000000  0.4476920000000  0.5460930000000 1.0
C      1  0.4231990000000  0.5288610000000  0.4574090000000 1.0
C      1  0.5160380000000  0.4143790000000  0.4564640000000 1.0
C      1  0.5632420000000  0.5527990000000  0.4513370000000 1.0
C      1  0.4179000000000  0.4790520000000  0.4642030000000 1.0
C      1  0.5267870000000  0.5824170000000  0.4687340000000 1.0
C      1  0.5607230000000  0.4309670000000  0.4700770000000 1.0
C      1  0.4031920000000  0.5129040000000  0.5281590000000 1.0
C      1  0.5265780000000  0.4130330000000  0.5352970000000 1.0
C      1  0.5655980000000  0.5668540000000  0.5268030000000 1.0
C      1  0.5824480000000  0.5225520000000  0.4894000000000 1.0
C      1  0.4861400000000  0.4275180000000  0.4918330000000 1.0
C      1  0.4463590000000  0.5498740000000  0.4900760000000 1.0
C      1  0.5813430000000  0.4765910000000  0.5082850000000 1.0
C      1  0.4889400000000  0.5753520000000  0.5083950000000 1.0
C      1  0.4373860000000  0.4417010000000  0.5056050000000 1.0
C      1  0.5847450000000  0.5109150000000  0.4367000000000 1.0
C      1  0.4667980000000  0.4124980000000  0.4496660000000 1.0
C      1  0.4462140000000  0.5749480000000  0.4588990000000 1.0
C      1  0.5845550000000  0.4899390000000  0.5598940000000 1.0
C      1  0.4707780000000  0.5798000000000  0.5508460000000 1.0
C      1  0.4446710000000  0.4273370000000  0.5494830000000 1.0
C      1  0.5970870000000  0.4945590000000  0.5297920000000 1.0
C      1  0.4664940000000  0.4134770000000  0.5373990000000 1.0
C      1  0.4470680000000  0.5761400000000  0.5349000000000 1.0
C      1  0.5954340000000  0.5036160000000  0.4670500000000 1.0
C      1  0.4694330000000  0.5902250000000  0.4666420000000 1.0
C      1  0.4423230000000  0.4225090000000  0.4614090000000 1.0
C      1  0.5346510000000  0.4131690000000  0.5059910000000 1.0
C      1  0.4038830000000  0.5094190000000  0.4996670000000 1.0
C      1  0.5629820000000  0.5733760000000  0.4991800000000 1.0
C      1  0.5378380000000  0.5859510000000  0.4944900000000 1.0
C      1  0.4047300000000  0.4822680000000  0.4898930000000 1.0
C      1  0.5589150000000  0.4265220000000  0.4980440000000 1.0
C      1  0.4329490000000  0.5541440000000  0.5457590000000 1.0
C      1  0.5826700000000  0.5204030000000  0.5467560000000 1.0
C      1  0.4910800000000  0.4243100000000  0.5473950000000 1.0
C      1  0.4406320000000  0.4495760000000  0.4520460000000 1.0
C      1  0.5805040000000  0.4796950000000  0.4480460000000 1.0
C      1  0.4913600000000  0.5787520000000  0.4522520000000 1.0
C      1  0.5602570000000  0.4996810000000  0.4982400000000 1.0
C      1  0.4732360000000  0.5483120000000  0.5089950000000 1.0
C      1  0.4675710000000  0.4485760000000  0.5099060000000 1.0
C      1  0.4919410000000  0.5015450000000  0.5115020000000 1.0
END
