TITL C-2782226-7400-753 -0.00428732349059067 125000 -725.321804521609 0 0 125 (C1) n - 1
REM
REM in /home/nfs/bkarasulu/CARBON/AIRSS/Generating-Clusters/REBO/Higher-Symm/SD-CG/HFTN-CG
REM
REM
REM
REM
REM
REM ./C.cell (12c818d87b63d06a65506943cc24bca4)
REM
REM compiler GCC version 9.2.1 20190827 (Red Hat 9.2.1-1)
REM options -cpp -mtune=generic -march=x86-64 -g -O0 -fpre-include=/usr/include/finclude/math-vector-fortran.h
REM seed -1904580150 747711592 -99619225 1188387864 821538077 797535695 1902877655 -1317066204 -253441428 -332803741 736090600 -1841036906 423080907 1794329168 711042379 -1600498541 1076828115 -403344888 -791131266 -2088407003 -1581247579 1640785757 1017069536 -437198391 1917664828 -692010411 689640704 1860024970 535255098 -1402541364 19194359 1748320658 -475044467
REM
CELL 1.54180   50.00000   50.00000   50.00000   90.00000   90.00000   90.00000
LATT -1
SFAC C  
C      1  0.4854690000000  0.4598400000000  0.5255490000000 1.0
C      1  0.4853010000000  0.5392730000000  0.4744890000000 1.0
C      1  0.5098900000000  0.4582080000000  0.4637600000000 1.0
C      1  0.5129970000000  0.5364570000000  0.5274330000000 1.0
C      1  0.4610810000000  0.4370560000000  0.4600310000000 1.0
C      1  0.4625230000000  0.5745970000000  0.5464450000000 1.0
C      1  0.5311760000000  0.4166570000000  0.5565670000000 1.0
C      1  0.5349840000000  0.5611050000000  0.4559640000000 1.0
C      1  0.5035430000000  0.5905820000000  0.5459180000000 1.0
C      1  0.5031320000000  0.4106060000000  0.4575510000000 1.0
C      1  0.4955070000000  0.5889130000000  0.4514100000000 1.0
C      1  0.4878880000000  0.4078140000000  0.5523110000000 1.0
C      1  0.4233710000000  0.4653000000000  0.5158060000000 1.0
C      1  0.4235390000000  0.5385200000000  0.4846320000000 1.0
C      1  0.5744050000000  0.4662660000000  0.4817580000000 1.0
C      1  0.5727370000000  0.5373580000000  0.5163140000000 1.0
C      1  0.4399610000000  0.5161510000000  0.5234000000000 1.0
C      1  0.4364110000000  0.4851870000000  0.4732270000000 1.0
C      1  0.5625090000000  0.5203450000000  0.4718340000000 1.0
C      1  0.5618070000000  0.4811640000000  0.5254790000000 1.0
C      1  0.5382990000000  0.4175800000000  0.4935070000000 1.0
C      1  0.5396140000000  0.5875270000000  0.5080220000000 1.0
C      1  0.4589850000000  0.4145680000000  0.5183970000000 1.0
C      1  0.4574850000000  0.5896930000000  0.4886170000000 1.0
C      1  0.5493860000000  0.5376700000000  0.5648570000000 1.0
C      1  0.5525050000000  0.4600240000000  0.4324440000000 1.0
C      1  0.4497090000000  0.5344180000000  0.4371980000000 1.0
C      1  0.4485100000000  0.4650040000000  0.5624320000000 1.0
C      1  0.4775410000000  0.5553370000000  0.5686320000000 1.0
C      1  0.4782960000000  0.4423060000000  0.4317190000000 1.0
C      1  0.5181620000000  0.5517810000000  0.4290870000000 1.0
C      1  0.5159070000000  0.4436150000000  0.5689050000000 1.0
C      1  0.4708660000000  0.4507880000000  0.5529230000000 1.0
C      1  0.4722420000000  0.5489370000000  0.4462270000000 1.0
C      1  0.5285300000000  0.4467110000000  0.4375130000000 1.0
C      1  0.5254200000000  0.5500870000000  0.5550760000000 1.0
C      1  0.4567150000000  0.4869960000000  0.5196380000000 1.0
C      1  0.4553400000000  0.5131140000000  0.4749550000000 1.0
C      1  0.5455520000000  0.4919870000000  0.4717480000000 1.0
C      1  0.5455360000000  0.5092280000000  0.5242310000000 1.0
C      1  0.4552180000000  0.6008670000000  0.5172580000000 1.0
C      1  0.4597010000000  0.3977510000000  0.4920070000000 1.0
C      1  0.5417160000000  0.5957850000000  0.4784140000000 1.0
C      1  0.5439610000000  0.3986530000000  0.5148950000000 1.0
C      1  0.4926410000000  0.4082820000000  0.5192130000000 1.0
C      1  0.4897340000000  0.5882000000000  0.4837580000000 1.0
C      1  0.5070490000000  0.4154380000000  0.4891650000000 1.0
C      1  0.5077410000000  0.5886570000000  0.5132800000000 1.0
C      1  0.4798340000000  0.5214410000000  0.4017210000000 1.0
C      1  0.4809780000000  0.4737180000000  0.5966400000000 1.0
C      1  0.5195730000000  0.5184180000000  0.5990390000000 1.0
C      1  0.5277990000000  0.4871060000000  0.3987930000000 1.0
C      1  0.5665230000000  0.3840740000000  0.5177620000000 1.0
C      1  0.5550720000000  0.6113750000000  0.4608820000000 1.0
C      1  0.4518570000000  0.3741580000000  0.4814390000000 1.0
C      1  0.4422710000000  0.6186760000000  0.5328800000000 1.0
C      1  0.4854740000000  0.5186000000000  0.5302840000000 1.0
C      1  0.4851440000000  0.4806980000000  0.4661620000000 1.0
C      1  0.5130370000000  0.5220950000000  0.4767980000000 1.0
C      1  0.5145460000000  0.4773490000000  0.5237170000000 1.0
C      1  0.4320490000000  0.5295060000000  0.5506530000000 1.0
C      1  0.4291960000000  0.4762550000000  0.4431450000000 1.0
C      1  0.5745980000000  0.5298620000000  0.4430380000000 1.0
C      1  0.5666150000000  0.4702400000000  0.5537950000000 1.0
C      1  0.5873310000000  0.4995690000000  0.4404260000000 1.0
C      1  0.5831330000000  0.4995110000000  0.5549070000000 1.0
C      1  0.4182480000000  0.5044730000000  0.5548310000000 1.0
C      1  0.4105250000000  0.5019850000000  0.4478480000000 1.0
C      1  0.5675410000000  0.5247720000000  0.5441220000000 1.0
C      1  0.5696020000000  0.4774240000000  0.4528630000000 1.0
C      1  0.4284410000000  0.5252260000000  0.4574370000000 1.0
C      1  0.4315860000000  0.4797340000000  0.5422130000000 1.0
C      1  0.4778250000000  0.5752760000000  0.5194770000000 1.0
C      1  0.4757600000000  0.4251360000000  0.4838550000000 1.0
C      1  0.5181340000000  0.5710040000000  0.4790940000000 1.0
C      1  0.5228520000000  0.4021030000000  0.5338940000000 1.0
C      1  0.5095700000000  0.5248990000000  0.6228520000000 1.0
C      1  0.5234060000000  0.4855150000000  0.3725760000000 1.0
C      1  0.4871200000000  0.5288710000000  0.3771760000000 1.0
C      1  0.4904270000000  0.4637770000000  0.6194800000000 1.0
C      1  0.5797620000000  0.4871160000000  0.5010370000000 1.0
C      1  0.5796700000000  0.5166670000000  0.4972900000000 1.0
C      1  0.4164930000000  0.4861940000000  0.4961400000000 1.0
C      1  0.4174950000000  0.5162400000000  0.5030560000000 1.0
C      1  0.5268270000000  0.4721160000000  0.5537780000000 1.0
C      1  0.5251650000000  0.5237190000000  0.4466530000000 1.0
C      1  0.4769890000000  0.4743150000000  0.4348920000000 1.0
C      1  0.4733130000000  0.5246510000000  0.5603460000000 1.0
C      1  0.4542770000000  0.4822180000000  0.5845420000000 1.0
C      1  0.4542090000000  0.5150630000000  0.4166450000000 1.0
C      1  0.5514550000000  0.4870840000000  0.4185560000000 1.0
C      1  0.5465870000000  0.5167330000000  0.5847990000000 1.0
C      1  0.5398390000000  0.4775110000000  0.5005770000000 1.0
C      1  0.5401350000000  0.5224510000000  0.4973610000000 1.0
C      1  0.4641000000000  0.4765090000000  0.4879990000000 1.0
C      1  0.4659470000000  0.5231370000000  0.5055260000000 1.0
C      1  0.4920910000000  0.5664480000000  0.4354440000000 1.0
C      1  0.4879500000000  0.4322250000000  0.5652210000000 1.0
C      1  0.5050370000000  0.5686640000000  0.5627690000000 1.0
C      1  0.5044330000000  0.4288760000000  0.4371330000000 1.0
C      1  0.5247760000000  0.5511930000000  0.5022100000000 1.0
C      1  0.5243370000000  0.4514710000000  0.4888290000000 1.0
C      1  0.4702860000000  0.5535710000000  0.4987450000000 1.0
C      1  0.4689110000000  0.4496790000000  0.5026890000000 1.0
C      1  0.4442470000000  0.5519920000000  0.5597130000000 1.0
C      1  0.4453110000000  0.4499840000000  0.4362800000000 1.0
C      1  0.5522970000000  0.5502500000000  0.4326530000000 1.0
C      1  0.5486540000000  0.4450320000000  0.5591320000000 1.0
C      1  0.4924990000000  0.5114910000000  0.4271380000000 1.0
C      1  0.4913450000000  0.4860920000000  0.5705260000000 1.0
C      1  0.5104970000000  0.5057440000000  0.5722450000000 1.0
C      1  0.5125710000000  0.4926820000000  0.4249230000000 1.0
C      1  0.4400510000000  0.5624140000000  0.4869080000000 1.0
C      1  0.4405400000000  0.4410590000000  0.5161860000000 1.0
C      1  0.5564420000000  0.5608290000000  0.5122450000000 1.0
C      1  0.5574490000000  0.4440760000000  0.4875310000000 1.0
C      1  0.5491760000000  0.5105270000000  0.4355960000000 1.0
C      1  0.5483360000000  0.4908730000000  0.5725730000000 1.0
C      1  0.4567590000000  0.5095140000000  0.5757120000000 1.0
C      1  0.4530610000000  0.4875610000000  0.4253190000000 1.0
C      1  0.4809800000000  0.4879770000000  0.5425050000000 1.0
C      1  0.4814190000000  0.5111390000000  0.4550870000000 1.0
C      1  0.5231250000000  0.4840870000000  0.4503070000000 1.0
C      1  0.5225080000000  0.5112240000000  0.5471090000000 1.0
C      1  0.5075340000000  0.5003220000000  0.5024150000000 1.0
END
