TITL C-2782227-3064-1136 -0.00166004717414204 125000 -841.373557222254 0 0 148 (C1) n - 1
REM
REM in /home/nfs/bkarasulu/CARBON/AIRSS/Generating-Clusters/REBO/Higher-Symm/SD-CG/HFTN-CG
REM
REM
REM
REM
REM
REM ./C.cell (12c818d87b63d06a65506943cc24bca4)
REM
REM compiler GCC version 9.2.1 20190827 (Red Hat 9.2.1-1)
REM options -cpp -mtune=generic -march=x86-64 -g -O0 -fpre-include=/usr/include/finclude/math-vector-fortran.h
REM seed 303384673 -1333728283 1193363267 -116160990 -2043819051 -1148899975 1819579370 226105305 -437248096 -1814252961 -1136012665 1856438287 994159900 1607744669 676731406 1155145025 -1720252791 1330675178 -2095842600 965233234 -1793616895 1929696416 -442120890 1562404843 -966663441 298469550 -1508139802 -1692773465 -2140376441 898308067 -774229870 1956373848 1528491902
REM
CELL 1.54180   50.00000   50.00000   50.00000   90.00000   90.00000   90.00000
LATT -1
SFAC C  
C      1  0.4066670000000  0.4880120000000  0.4830910000000 1.0
C      1  0.4986180000000  0.5891660000000  0.5210220000000 1.0
C      1  0.5874270000000  0.5025360000000  0.4791020000000 1.0
C      1  0.4981800000000  0.4104840000000  0.5199450000000 1.0
C      1  0.5534040000000  0.5269930000000  0.5530300000000 1.0
C      1  0.5202180000000  0.4461320000000  0.4426620000000 1.0
C      1  0.4459390000000  0.4740690000000  0.5568310000000 1.0
C      1  0.4800070000000  0.5491010000000  0.4478110000000 1.0
C      1  0.3894590000000  0.5058460000000  0.5066030000000 1.0
C      1  0.5087440000000  0.6083010000000  0.4959390000000 1.0
C      1  0.6082270000000  0.4972980000000  0.5041880000000 1.0
C      1  0.4875030000000  0.3930270000000  0.4927280000000 1.0
C      1  0.4233450000000  0.4408010000000  0.5168020000000 1.0
C      1  0.4484220000000  0.5782270000000  0.4825630000000 1.0
C      1  0.5779510000000  0.5582990000000  0.5165990000000 1.0
C      1  0.5526470000000  0.4237500000000  0.4838550000000 1.0
C      1  0.5023660000000  0.5196870000000  0.3729910000000 1.0
C      1  0.5160120000000  0.4734760000000  0.6213910000000 1.0
C      1  0.5114110000000  0.4940690000000  0.3770140000000 1.0
C      1  0.4915140000000  0.4802570000000  0.6202180000000 1.0
C      1  0.4768210000000  0.5215010000000  0.4296060000000 1.0
C      1  0.5324750000000  0.5312140000000  0.5791010000000 1.0
C      1  0.5238880000000  0.4740790000000  0.4251850000000 1.0
C      1  0.4752410000000  0.4752930000000  0.5721270000000 1.0
C      1  0.4799180000000  0.4423230000000  0.5794700000000 1.0
C      1  0.4434140000000  0.5199540000000  0.4231370000000 1.0
C      1  0.5221450000000  0.5636260000000  0.5787810000000 1.0
C      1  0.5573370000000  0.4715520000000  0.4188060000000 1.0
C      1  0.4043970000000  0.5342700000000  0.5055260000000 1.0
C      1  0.5414920000000  0.5994920000000  0.4914640000000 1.0
C      1  0.5951540000000  0.4662790000000  0.5093640000000 1.0
C      1  0.4546860000000  0.4020150000000  0.4889120000000 1.0
C      1  0.4513030000000  0.5518510000000  0.4302240000000 1.0
C      1  0.5539730000000  0.5562860000000  0.5698380000000 1.0
C      1  0.5514370000000  0.4476300000000  0.4362860000000 1.0
C      1  0.4512920000000  0.4437290000000  0.5688060000000 1.0
C      1  0.4642570000000  0.4552460000000  0.5088000000000 1.0
C      1  0.4545170000000  0.5352620000000  0.4913630000000 1.0
C      1  0.5333730000000  0.5478090000000  0.5093840000000 1.0
C      1  0.5406780000000  0.4622820000000  0.4852110000000 1.0
C      1  0.5203470000000  0.5360410000000  0.4047340000000 1.0
C      1  0.5332040000000  0.4850650000000  0.5987220000000 1.0
C      1  0.4800340000000  0.4642050000000  0.4033370000000 1.0
C      1  0.4637980000000  0.5176610000000  0.5975000000000 1.0
C      1  0.5079760000000  0.5112630000000  0.4815450000000 1.0
C      1  0.5132390000000  0.4913910000000  0.5157030000000 1.0
C      1  0.4839420000000  0.4976690000000  0.4836690000000 1.0
C      1  0.4841960000000  0.5080980000000  0.5220500000000 1.0
C      1  0.4833740000000  0.4961410000000  0.5940180000000 1.0
C      1  0.4965650000000  0.5167670000000  0.4063490000000 1.0
C      1  0.5147040000000  0.5059120000000  0.5848500000000 1.0
C      1  0.5035330000000  0.4811070000000  0.4042520000000 1.0
C      1  0.5620150000000  0.4544470000000  0.5564020000000 1.0
C      1  0.4449930000000  0.4408150000000  0.4418290000000 1.0
C      1  0.4393440000000  0.5486400000000  0.5566380000000 1.0
C      1  0.5530020000000  0.5608700000000  0.4440810000000 1.0
C      1  0.4669720000000  0.4213730000000  0.5115330000000 1.0
C      1  0.4242350000000  0.5362540000000  0.4861040000000 1.0
C      1  0.5304580000000  0.5809250000000  0.5152600000000 1.0
C      1  0.5735650000000  0.4617730000000  0.4928410000000 1.0
C      1  0.4209700000000  0.4366230000000  0.4638100000000 1.0
C      1  0.4312930000000  0.5699000000000  0.5316980000000 1.0
C      1  0.5773140000000  0.5658760000000  0.4654370000000 1.0
C      1  0.5695320000000  0.4308280000000  0.5337380000000 1.0
C      1  0.5642890000000  0.4398990000000  0.4620460000000 1.0
C      1  0.4430970000000  0.4373360000000  0.5385180000000 1.0
C      1  0.4439330000000  0.5594060000000  0.4612820000000 1.0
C      1  0.5580590000000  0.5630770000000  0.5367720000000 1.0
C      1  0.4660490000000  0.5510990000000  0.5359550000000 1.0
C      1  0.5533090000000  0.5341010000000  0.4652960000000 1.0
C      1  0.5350870000000  0.4506030000000  0.5358350000000 1.0
C      1  0.4487900000000  0.4650670000000  0.4654740000000 1.0
C      1  0.5373240000000  0.4797520000000  0.5253880000000 1.0
C      1  0.4820880000000  0.4707560000000  0.4666760000000 1.0
C      1  0.4606530000000  0.5211530000000  0.5281750000000 1.0
C      1  0.5232150000000  0.5345880000000  0.4731400000000 1.0
C      1  0.5068930000000  0.4506210000000  0.5507370000000 1.0
C      1  0.4555190000000  0.4962500000000  0.4525420000000 1.0
C      1  0.4951390000000  0.5488200000000  0.5534620000000 1.0
C      1  0.5556000000000  0.5062340000000  0.4518890000000 1.0
C      1  0.5810460000000  0.5246040000000  0.5378170000000 1.0
C      1  0.5126520000000  0.4178930000000  0.4551420000000 1.0
C      1  0.4172090000000  0.4815320000000  0.5433680000000 1.0
C      1  0.4829690000000  0.5780810000000  0.4624740000000 1.0
C      1  0.5010980000000  0.4234790000000  0.5679990000000 1.0
C      1  0.4256090000000  0.4941350000000  0.4365030000000 1.0
C      1  0.4954480000000  0.5788060000000  0.5677140000000 1.0
C      1  0.5740530000000  0.4925220000000  0.4289930000000 1.0
C      1  0.5636640000000  0.4748430000000  0.4629830000000 1.0
C      1  0.4772210000000  0.4374590000000  0.5400650000000 1.0
C      1  0.4381460000000  0.5257330000000  0.4566050000000 1.0
C      1  0.5245380000000  0.5645130000000  0.5444840000000 1.0
C      1  0.5058650000000  0.5162290000000  0.5536800000000 1.0
C      1  0.5231460000000  0.4957200000000  0.4482800000000 1.0
C      1  0.4966060000000  0.4833040000000  0.5507320000000 1.0
C      1  0.4891530000000  0.4955180000000  0.4444240000000 1.0
C      1  0.5328660000000  0.4923980000000  0.4810740000000 1.0
C      1  0.4909350000000  0.4692020000000  0.5197720000000 1.0
C      1  0.4596410000000  0.5078150000000  0.4905360000000 1.0
C      1  0.5090610000000  0.5298210000000  0.5221190000000 1.0
C      1  0.5188820000000  0.4440250000000  0.4770460000000 1.0
C      1  0.4441800000000  0.4741070000000  0.5228490000000 1.0
C      1  0.4776000000000  0.5511090000000  0.4818510000000 1.0
C      1  0.5529720000000  0.5273320000000  0.5188760000000 1.0
C      1  0.3872790000000  0.4723900000000  0.5052310000000 1.0
C      1  0.4810520000000  0.6209090000000  0.4854850000000 1.0
C      1  0.6207850000000  0.5265430000000  0.5119900000000 1.0
C      1  0.5192170000000  0.3863640000000  0.4904800000000 1.0
C      1  0.4791320000000  0.4434120000000  0.4805980000000 1.0
C      1  0.4348380000000  0.5126300000000  0.5215220000000 1.0
C      1  0.5158680000000  0.5618920000000  0.4834940000000 1.0
C      1  0.5631570000000  0.4891100000000  0.5200750000000 1.0
C      1  0.5667360000000  0.4875830000000  0.6039680000000 1.0
C      1  0.4585630000000  0.4492990000000  0.3841760000000 1.0
C      1  0.4437660000000  0.5361750000000  0.6148810000000 1.0
C      1  0.5402350000000  0.5533460000000  0.3859350000000 1.0
C      1  0.4027300000000  0.4592520000000  0.5258370000000 1.0
C      1  0.4649130000000  0.6020760000000  0.4734580000000 1.0
C      1  0.6031000000000  0.5432550000000  0.5256920000000 1.0
C      1  0.5330240000000  0.4047320000000  0.4749990000000 1.0
C      1  0.5947040000000  0.4980700000000  0.4518720000000 1.0
C      1  0.5030350000000  0.4021500000000  0.5488510000000 1.0
C      1  0.4038000000000  0.4865450000000  0.4531050000000 1.0
C      1  0.4903960000000  0.5985300000000  0.5480610000000 1.0
C      1  0.4847020000000  0.4150630000000  0.4669360000000 1.0
C      1  0.4053170000000  0.5098840000000  0.5365740000000 1.0
C      1  0.5115000000000  0.5887600000000  0.4681550000000 1.0
C      1  0.5920290000000  0.4964420000000  0.5344890000000 1.0
C      1  0.4446780000000  0.5386390000000  0.5826890000000 1.0
C      1  0.5426070000000  0.5548850000000  0.4180890000000 1.0
C      1  0.5564520000000  0.4678330000000  0.5811990000000 1.0
C      1  0.4559950000000  0.4472290000000  0.4162330000000 1.0
C      1  0.5088350000000  0.3759400000000  0.5552810000000 1.0
C      1  0.3797630000000  0.4778830000000  0.4423990000000 1.0
C      1  0.4792610000000  0.6233220000000  0.5524950000000 1.0
C      1  0.6212190000000  0.4972190000000  0.4451110000000 1.0
C      1  0.4532390000000  0.5704920000000  0.5106650000000 1.0
C      1  0.5713370000000  0.5504440000000  0.4895610000000 1.0
C      1  0.5499190000000  0.4311070000000  0.5117370000000 1.0
C      1  0.4305170000000  0.4478230000000  0.4890880000000 1.0
C      1  0.4342350000000  0.4910070000000  0.4967380000000 1.0
C      1  0.4950460000000  0.5580500000000  0.5089870000000 1.0
C      1  0.5595290000000  0.5059390000000  0.4932370000000 1.0
C      1  0.5012660000000  0.4406260000000  0.5052180000000 1.0
C      1  0.4532480000000  0.4140550000000  0.4578340000000 1.0
C      1  0.4128760000000  0.5425970000000  0.5361320000000 1.0
C      1  0.5436990000000  0.5868100000000  0.4608560000000 1.0
C      1  0.5883370000000  0.4638800000000  0.5401400000000 1.0
END
