TITL C-2782227-3064-352 0.00114982408613262 125000 -838.856713579632 0 0 152 (C1) n - 1
REM
REM in /home/nfs/bkarasulu/CARBON/AIRSS/Generating-Clusters/REBO/Higher-Symm/SD-CG/HFTN-CG
REM
REM
REM
REM
REM
REM ./C.cell (12c818d87b63d06a65506943cc24bca4)
REM
REM compiler GCC version 9.2.1 20190827 (Red Hat 9.2.1-1)
REM options -cpp -mtune=generic -march=x86-64 -g -O0 -fpre-include=/usr/include/finclude/math-vector-fortran.h
REM seed 237540158 -1070782979 2147286766 1731139742 -151813907 -333992859 -234340684 386138991 921501301 -2097283288 -10219629 1500424387 317333142 -2070324431 -308729664 1498108105 -991238805 350747562 474859017 -1710992365 398353932 812110694 -1778830527 1354843664 -111538835 938633327 -225107118 1348907747 861000995 -1766477811 -791628310 1636119206 -1773310495
REM
CELL 1.54180   50.00000   50.00000   50.00000   90.00000   90.00000   90.00000
LATT -1
SFAC C  
C      1  0.5271640000000  0.4351760000000  0.4312420000000 1.0
C      1  0.4626820000000  0.4347590000000  0.4349050000000 1.0
C      1  0.4260630000000  0.4353050000000  0.4877380000000 1.0
C      1  0.4441700000000  0.4370880000000  0.5486100000000 1.0
C      1  0.5028540000000  0.4372410000000  0.5727560000000 1.0
C      1  0.5586190000000  0.4364610000000  0.5422490000000 1.0
C      1  0.5697230000000  0.4368890000000  0.4796560000000 1.0
C      1  0.4061300000000  0.5661560000000  0.4875050000000 1.0
C      1  0.4333320000000  0.5633990000000  0.5636710000000 1.0
C      1  0.5112490000000  0.5634820000000  0.5956350000000 1.0
C      1  0.5736970000000  0.5607710000000  0.5432850000000 1.0
C      1  0.5869710000000  0.5606000000000  0.4731510000000 1.0
C      1  0.5217780000000  0.5580780000000  0.4251780000000 1.0
C      1  0.4601570000000  0.5519650000000  0.4416570000000 1.0
C      1  0.5381320000000  0.5874750000000  0.5106280000000 1.0
C      1  0.5281800000000  0.5871150000000  0.4779180000000 1.0
C      1  0.4974050000000  0.5871900000000  0.4625050000000 1.0
C      1  0.4663330000000  0.5898910000000  0.4765240000000 1.0
C      1  0.4607570000000  0.5880790000000  0.5065610000000 1.0
C      1  0.4814970000000  0.5878200000000  0.5337840000000 1.0
C      1  0.5158550000000  0.5889620000000  0.5366040000000 1.0
C      1  0.5026740000000  0.4836530000000  0.4009100000000 1.0
C      1  0.4230660000000  0.4841440000000  0.4364050000000 1.0
C      1  0.4035130000000  0.4858650000000  0.5178330000000 1.0
C      1  0.4543290000000  0.4860120000000  0.5862070000000 1.0
C      1  0.5396970000000  0.4849930000000  0.5891680000000 1.0
C      1  0.5952390000000  0.4834530000000  0.5239620000000 1.0
C      1  0.5779420000000  0.4848360000000  0.4399300000000 1.0
C      1  0.5103220000000  0.4675960000000  0.5866180000000 1.0
C      1  0.5745230000000  0.4665560000000  0.5453340000000 1.0
C      1  0.5823470000000  0.4667420000000  0.4686660000000 1.0
C      1  0.5276050000000  0.4657080000000  0.4160600000000 1.0
C      1  0.4491850000000  0.4648340000000  0.4254980000000 1.0
C      1  0.4118800000000  0.4661640000000  0.4911890000000 1.0
C      1  0.4380950000000  0.4679410000000  0.5620720000000 1.0
C      1  0.4085940000000  0.4742510000000  0.4600810000000 1.0
C      1  0.4118160000000  0.4772160000000  0.5444290000000 1.0
C      1  0.4804720000000  0.4771410000000  0.5955680000000 1.0
C      1  0.5628500000000  0.4760240000000  0.5741380000000 1.0
C      1  0.5981970000000  0.4734460000000  0.4968590000000 1.0
C      1  0.5581610000000  0.4753210000000  0.4207090000000 1.0
C      1  0.4726800000000  0.4714540000000  0.4033670000000 1.0
C      1  0.5317900000000  0.5173100000000  0.4836530000000 1.0
C      1  0.5108130000000  0.5167790000000  0.4562460000000 1.0
C      1  0.4802510000000  0.5064380000000  0.4670940000000 1.0
C      1  0.4651530000000  0.5129040000000  0.4967510000000 1.0
C      1  0.4782030000000  0.5136510000000  0.5237180000000 1.0
C      1  0.5061160000000  0.5151530000000  0.5329740000000 1.0
C      1  0.5332360000000  0.5160390000000  0.5181770000000 1.0
C      1  0.4976810000000  0.4596280000000  0.4322530000000 1.0
C      1  0.4454630000000  0.4591260000000  0.4588940000000 1.0
C      1  0.4340810000000  0.4596360000000  0.5164150000000 1.0
C      1  0.4716200000000  0.4611730000000  0.5602410000000 1.0
C      1  0.5291620000000  0.4614260000000  0.5587880000000 1.0
C      1  0.5641700000000  0.4609150000000  0.5132590000000 1.0
C      1  0.5506340000000  0.4614230000000  0.4572350000000 1.0
C      1  0.5045130000000  0.4428150000000  0.4611690000000 1.0
C      1  0.4722000000000  0.4416440000000  0.4713520000000 1.0
C      1  0.4603320000000  0.4414720000000  0.5034470000000 1.0
C      1  0.4783500000000  0.4426310000000  0.5323320000000 1.0
C      1  0.5116470000000  0.4435530000000  0.5360570000000 1.0
C      1  0.5352830000000  0.4438380000000  0.5128250000000 1.0
C      1  0.5321200000000  0.4440640000000  0.4797220000000 1.0
C      1  0.4622690000000  0.4736640000000  0.4920960000000 1.0
C      1  0.4706010000000  0.4745660000000  0.5227860000000 1.0
C      1  0.4997410000000  0.4758790000000  0.5360320000000 1.0
C      1  0.5284430000000  0.4765810000000  0.5218260000000 1.0
C      1  0.5352540000000  0.4767450000000  0.4906980000000 1.0
C      1  0.5140340000000  0.4759310000000  0.4647510000000 1.0
C      1  0.4815700000000  0.4745210000000  0.4660230000000 1.0
C      1  0.4808460000000  0.4919980000000  0.5572220000000 1.0
C      1  0.5333690000000  0.4918310000000  0.5504980000000 1.0
C      1  0.5613630000000  0.4912630000000  0.5046340000000 1.0
C      1  0.5417120000000  0.4916620000000  0.4546120000000 1.0
C      1  0.4918380000000  0.4917500000000  0.4317520000000 1.0
C      1  0.4445630000000  0.4890020000000  0.4692720000000 1.0
C      1  0.4427060000000  0.4899840000000  0.5227220000000 1.0
C      1  0.5128420000000  0.5317760000000  0.5995960000000 1.0
C      1  0.5839270000000  0.5323320000000  0.5481050000000 1.0
C      1  0.5924330000000  0.5304420000000  0.4657460000000 1.0
C      1  0.5250640000000  0.5353710000000  0.4072490000000 1.0
C      1  0.4455540000000  0.5326980000000  0.4265370000000 1.0
C      1  0.3968320000000  0.5393950000000  0.4889740000000 1.0
C      1  0.4316230000000  0.5325280000000  0.5687410000000 1.0
C      1  0.4901320000000  0.5386020000000  0.4459220000000 1.0
C      1  0.4375820000000  0.5420530000000  0.4822980000000 1.0
C      1  0.4429530000000  0.5528100000000  0.5363360000000 1.0
C      1  0.4926400000000  0.5536000000000  0.5731310000000 1.0
C      1  0.5475840000000  0.5488560000000  0.5489980000000 1.0
C      1  0.5627010000000  0.5434550000000  0.4904890000000 1.0
C      1  0.5320930000000  0.5497600000000  0.4494720000000 1.0
C      1  0.5859330000000  0.4036620000000  0.5141580000000 1.0
C      1  0.5660600000000  0.4045920000000  0.4406670000000 1.0
C      1  0.4937960000000  0.4016530000000  0.4126600000000 1.0
C      1  0.4270140000000  0.4013760000000  0.4498960000000 1.0
C      1  0.4145400000000  0.4023870000000  0.5254860000000 1.0
C      1  0.4647560000000  0.4049030000000  0.5828990000000 1.0
C      1  0.5422320000000  0.4050900000000  0.5784180000000 1.0
C      1  0.4555420000000  0.5079860000000  0.5465090000000 1.0
C      1  0.5088550000000  0.5073870000000  0.5640320000000 1.0
C      1  0.5584730000000  0.5051480000000  0.5338690000000 1.0
C      1  0.5608700000000  0.5081400000000  0.4759830000000 1.0
C      1  0.5238940000000  0.5031810000000  0.4307800000000 1.0
C      1  0.4613550000000  0.4993220000000  0.4415680000000 1.0
C      1  0.4351280000000  0.5041910000000  0.4961770000000 1.0
C      1  0.4632070000000  0.5769560000000  0.5606140000000 1.0
C      1  0.5249000000000  0.5760530000000  0.5670620000000 1.0
C      1  0.5690080000000  0.5738240000000  0.5157140000000 1.0
C      1  0.5578810000000  0.5748520000000  0.4663070000000 1.0
C      1  0.4966020000000  0.5746280000000  0.4306230000000 1.0
C      1  0.4477030000000  0.5730590000000  0.4593960000000 1.0
C      1  0.4322420000000  0.5747520000000  0.5046850000000 1.0
C      1  0.4153400000000  0.5168750000000  0.4747870000000 1.0
C      1  0.4227200000000  0.5167610000000  0.5442660000000 1.0
C      1  0.4885860000000  0.5172160000000  0.5887040000000 1.0
C      1  0.5640100000000  0.5164290000000  0.5654540000000 1.0
C      1  0.5917210000000  0.5120880000000  0.4897200000000 1.0
C      1  0.5494800000000  0.5191100000000  0.4184580000000 1.0
C      1  0.4658320000000  0.5146300000000  0.4118640000000 1.0
C      1  0.5539220000000  0.4278540000000  0.4505820000000 1.0
C      1  0.4944630000000  0.4260200000000  0.4264550000000 1.0
C      1  0.4384920000000  0.4256310000000  0.4575580000000 1.0
C      1  0.4278750000000  0.4262900000000  0.5207820000000 1.0
C      1  0.4705770000000  0.4279350000000  0.5684580000000 1.0
C      1  0.5348330000000  0.4280570000000  0.5644580000000 1.0
C      1  0.5715580000000  0.4274320000000  0.5118420000000 1.0
C      1  0.4228340000000  0.5499000000000  0.4545830000000 1.0
C      1  0.4208400000000  0.5474430000000  0.5192020000000 1.0
C      1  0.4652100000000  0.5498520000000  0.5817030000000 1.0
C      1  0.5413960000000  0.5475290000000  0.5768210000000 1.0
C      1  0.5874930000000  0.5457960000000  0.5096460000000 1.0
C      1  0.5603490000000  0.5457330000000  0.4486280000000 1.0
C      1  0.4860880000000  0.5470090000000  0.4130110000000 1.0
C      1  0.4684560000000  0.5522160000000  0.5222990000000 1.0
C      1  0.4939480000000  0.5572190000000  0.5443640000000 1.0
C      1  0.5253660000000  0.5561510000000  0.5313540000000 1.0
C      1  0.5363630000000  0.5547970000000  0.4998190000000 1.0
C      1  0.5176740000000  0.5554210000000  0.4751170000000 1.0
C      1  0.4862520000000  0.5560470000000  0.4714800000000 1.0
C      1  0.4626090000000  0.5519730000000  0.4899420000000 1.0
C      1  0.5953920000000  0.5159600000000  0.5229770000000 1.0
C      1  0.5757540000000  0.5174840000000  0.4400680000000 1.0
C      1  0.4979270000000  0.5173420000000  0.4009670000000 1.0
C      1  0.4220500000000  0.5177250000000  0.4416590000000 1.0
C      1  0.4040190000000  0.5193740000000  0.5158740000000 1.0
C      1  0.4552040000000  0.5182720000000  0.5851220000000 1.0
C      1  0.5400560000000  0.5171700000000  0.5895810000000 1.0
C      1  0.4984810000000  0.4900620000000  0.4986790000000 1.0
C      1  0.4995690000000  0.4611200000000  0.4989490000000 1.0
C      1  0.4972140000000  0.5451130000000  0.5080740000000 1.0
C      1  0.5030610000000  0.5234730000000  0.4941560000000 1.0
C      1  0.4991540000000  0.4339190000000  0.4995540000000 1.0
END
