TITL C-2782233-7966-1081 0.00136068900959776 125000 -791.803415165946 0 0 120 (C3) n - 1
REM
REM in /home/nfs/bkarasulu/CARBON/AIRSS/Generating-Clusters/REBO/Higher-Symm/SD-CG/HFTN-CG
REM
REM
REM
REM
REM
REM ./C.cell (12c818d87b63d06a65506943cc24bca4)
REM
REM compiler GCC version 9.2.1 20190827 (Red Hat 9.2.1-1)
REM options -cpp -mtune=generic -march=x86-64 -g -O0 -fpre-include=/usr/include/finclude/math-vector-fortran.h
REM seed 931060509 -922062935 -671194294 -1416314400 1498857168 293019513 311788230 1644090446 255547667 1863039530 1924396519 -88833623 -1910386856 -1481261164 1910347116 -171339807 -42679831 1038943418 -443268955 826959943 1824943118 -668754932 -2044948845 1756028144 466936968 -307126714 1569789843 -674514144 -1292700887 961223482 -703085176 -1696136887 2002685635
REM
CELL 1.54180   50.00000   50.00000   50.00000   90.00000   90.00000   90.00000
LATT -1
SFAC C  
C      1  0.4759950000000  0.4994470000000  0.6013910000000 1.0
C      1  0.6014020000000  0.4806680000000  0.4995250000000 1.0
C      1  0.5005720000000  0.6022260000000  0.4771120000000 1.0
C      1  0.5193040000000  0.4995200000000  0.3985930000000 1.0
C      1  0.4795960000000  0.4993570000000  0.3993260000000 1.0
C      1  0.5228880000000  0.4994500000000  0.6022270000000 1.0
C      1  0.3977670000000  0.4771400000000  0.4994570000000 1.0
C      1  0.6006790000000  0.5203760000000  0.4993510000000 1.0
C      1  0.3986160000000  0.5240330000000  0.4994400000000 1.0
C      1  0.5005870000000  0.6013910000000  0.5240050000000 1.0
C      1  0.5006210000000  0.3993260000000  0.5204040000000 1.0
C      1  0.5004470000000  0.3985930000000  0.4806960000000 1.0
C      1  0.6014370000000  0.5005410000000  0.4759780000000 1.0
C      1  0.4995420000000  0.4796260000000  0.6006500000000 1.0
C      1  0.4806950000000  0.6013990000000  0.5006430000000 1.0
C      1  0.3986060000000  0.5006710000000  0.5193330000000 1.0
C      1  0.3993500000000  0.5004800000000  0.4796250000000 1.0
C      1  0.6022200000000  0.5005760000000  0.5228750000000 1.0
C      1  0.4994240000000  0.4759780000000  0.3985630000000 1.0
C      1  0.4993620000000  0.5193340000000  0.6013940000000 1.0
C      1  0.4994020000000  0.5228750000000  0.3977800000000 1.0
C      1  0.5204020000000  0.6006440000000  0.5004530000000 1.0
C      1  0.5239940000000  0.3985570000000  0.5005690000000 1.0
C      1  0.4770970000000  0.3977870000000  0.5006050000000 1.0
C      1  0.4603970000000  0.4221760000000  0.4997380000000 1.0
C      1  0.4991380000000  0.4600000000000  0.4234850000000 1.0
C      1  0.4238380000000  0.4995770000000  0.4625200000000 1.0
C      1  0.5399800000000  0.4234740000000  0.5008510000000 1.0
C      1  0.4629030000000  0.5774330000000  0.5008770000000 1.0
C      1  0.5375010000000  0.5761510000000  0.4995560000000 1.0
C      1  0.5004340000000  0.4625200000000  0.5761620000000 1.0
C      1  0.4991330000000  0.5371180000000  0.5774230000000 1.0
C      1  0.5002730000000  0.5395810000000  0.4221650000000 1.0
C      1  0.5778350000000  0.4997170000000  0.5395810000000 1.0
C      1  0.4225770000000  0.5008990000000  0.5371180000000 1.0
C      1  0.5765160000000  0.5008300000000  0.4599990000000 1.0
C      1  0.4995950000000  0.4225280000000  0.4628910000000 1.0
C      1  0.4221540000000  0.4604170000000  0.4992080000000 1.0
C      1  0.4624930000000  0.4991150000000  0.4238350000000 1.0
C      1  0.5008740000000  0.4238350000000  0.5375070000000 1.0
C      1  0.5008130000000  0.5778340000000  0.4603950000000 1.0
C      1  0.4996570000000  0.5764650000000  0.5399580000000 1.0
C      1  0.5774620000000  0.4628690000000  0.5003840000000 1.0
C      1  0.5761760000000  0.5374860000000  0.4991050000000 1.0
C      1  0.4235460000000  0.5399790000000  0.5003640000000 1.0
C      1  0.5396040000000  0.4991980000000  0.5778350000000 1.0
C      1  0.5371100000000  0.5003740000000  0.4225280000000 1.0
C      1  0.4600420000000  0.5003750000000  0.5764650000000 1.0
C      1  0.5250900000000  0.5000150000000  0.5468740000000 1.0
C      1  0.5454550000000  0.5225720000000  0.5000990000000 1.0
C      1  0.5001700000000  0.5455620000000  0.5251660000000 1.0
C      1  0.4774150000000  0.5001050000000  0.4545510000000 1.0
C      1  0.5226100000000  0.4998050000000  0.4534080000000 1.0
C      1  0.4748340000000  0.4998500000000  0.5455620000000 1.0
C      1  0.4544450000000  0.5251780000000  0.4998430000000 1.0
C      1  0.5465850000000  0.4773770000000  0.4998120000000 1.0
C      1  0.4531190000000  0.4749230000000  0.5000220000000 1.0
C      1  0.4999910000000  0.5468740000000  0.4749100000000 1.0
C      1  0.5001760000000  0.4534080000000  0.4773900000000 1.0
C      1  0.4998890000000  0.4545520000000  0.5225850000000 1.0
C      1  0.5468510000000  0.5000230000000  0.5250840000000 1.0
C      1  0.5000670000000  0.5225270000000  0.5466030000000 1.0
C      1  0.5226500000000  0.5453840000000  0.5002180000000 1.0
C      1  0.4546100000000  0.5002300000000  0.4773630000000 1.0
C      1  0.4533970000000  0.4999520000000  0.5225270000000 1.0
C      1  0.5456520000000  0.4998620000000  0.4748340000000 1.0
C      1  0.4999710000000  0.5250840000000  0.4531490000000 1.0
C      1  0.4997760000000  0.4773630000000  0.5453900000000 1.0
C      1  0.5001180000000  0.4748340000000  0.4543480000000 1.0
C      1  0.4774860000000  0.5466090000000  0.4999390000000 1.0
C      1  0.4749030000000  0.4531560000000  0.5000360000000 1.0
C      1  0.5251530000000  0.4543410000000  0.4998750000000 1.0
C      1  0.5284390000000  0.4522710000000  0.5675500000000 1.0
C      1  0.5669010000000  0.5285810000000  0.4510880000000 1.0
C      1  0.4524780000000  0.5681410000000  0.5287270000000 1.0
C      1  0.4713870000000  0.4510960000000  0.4331070000000 1.0
C      1  0.5282580000000  0.5485370000000  0.4316160000000 1.0
C      1  0.4712860000000  0.5475490000000  0.5681280000000 1.0
C      1  0.4318800000000  0.5287460000000  0.5475410000000 1.0
C      1  0.5683760000000  0.4717360000000  0.5485450000000 1.0
C      1  0.4324420000000  0.4715670000000  0.4522790000000 1.0
C      1  0.5477400000000  0.5675370000000  0.4715480000000 1.0
C      1  0.4514360000000  0.4316300000000  0.4717550000000 1.0
C      1  0.5488930000000  0.4330930000000  0.5286000000000 1.0
C      1  0.5685200000000  0.4525790000000  0.5284400000000 1.0
C      1  0.4511420000000  0.5283510000000  0.5673910000000 1.0
C      1  0.5285640000000  0.5678940000000  0.4513740000000 1.0
C      1  0.4320840000000  0.4513920000000  0.4714550000000 1.0
C      1  0.4326220000000  0.5488840000000  0.5283380000000 1.0
C      1  0.5671260000000  0.5478040000000  0.4712930000000 1.0
C      1  0.5474100000000  0.5284270000000  0.4314670000000 1.0
C      1  0.5486180000000  0.4714420000000  0.5679020000000 1.0
C      1  0.4521700000000  0.4713060000000  0.4328870000000 1.0
C      1  0.4716810000000  0.5673990000000  0.5488650000000 1.0
C      1  0.4715410000000  0.4314740000000  0.4525980000000 1.0
C      1  0.5286890000000  0.4328790000000  0.5478220000000 1.0
C      1  0.4527170000000  0.4728840000000  0.5651460000000 1.0
C      1  0.5663260000000  0.4540760000000  0.4727500000000 1.0
C      1  0.4730970000000  0.5667360000000  0.4529510000000 1.0
C      1  0.5458980000000  0.4727370000000  0.4336620000000 1.0
C      1  0.4538370000000  0.5270130000000  0.4341850000000 1.0
C      1  0.5470570000000  0.5269080000000  0.5667280000000 1.0
C      1  0.4332590000000  0.4529690000000  0.5269210000000 1.0
C      1  0.5658270000000  0.5461520000000  0.5270000000000 1.0
C      1  0.4348670000000  0.5472940000000  0.4728710000000 1.0
C      1  0.5271470000000  0.5651390000000  0.5472760000000 1.0
C      1  0.4729820000000  0.4341930000000  0.5461700000000 1.0
C      1  0.5272320000000  0.4336540000000  0.4540950000000 1.0
C      1  0.5655950000000  0.4731200000000  0.4527640000000 1.0
C      1  0.4727720000000  0.4538260000000  0.5653450000000 1.0
C      1  0.4541370000000  0.5668260000000  0.4729750000000 1.0
C      1  0.4331790000000  0.4729930000000  0.5458810000000 1.0
C      1  0.4346620000000  0.5272330000000  0.4538180000000 1.0
C      1  0.5662680000000  0.5271890000000  0.5471010000000 1.0
C      1  0.5268490000000  0.4527560000000  0.4343980000000 1.0
C      1  0.5270380000000  0.5458740000000  0.5668140000000 1.0
C      1  0.4728060000000  0.5471090000000  0.4337390000000 1.0
C      1  0.5462000000000  0.5653330000000  0.5272150000000 1.0
C      1  0.5472180000000  0.4343850000000  0.4731380000000 1.0
C      1  0.4528800000000  0.4337520000000  0.5272070000000 1.0
END
