TITL C-2782233-7966-545 -0.0127479394621603 125000 -995.248886432246 0 0 172 (C1) n - 1
REM
REM in /home/nfs/bkarasulu/CARBON/AIRSS/Generating-Clusters/REBO/Higher-Symm/SD-CG/HFTN-CG
REM
REM
REM
REM
REM
REM ./C.cell (12c818d87b63d06a65506943cc24bca4)
REM
REM compiler GCC version 9.2.1 20190827 (Red Hat 9.2.1-1)
REM options -cpp -mtune=generic -march=x86-64 -g -O0 -fpre-include=/usr/include/finclude/math-vector-fortran.h
REM seed 103029332 1899275895 -54120154 -1199948581 -988007788 -735323010 -344118017 -1850431712 300605997 1767359461 1545086633 -1543475868 1708485279 -554461165 -196686558 71053418 1062084659 321449725 -293911563 -955091420 53221188 1391976382 439557993 1878979025 -1891781852 -891197550 -284452326 653703965 1366460654 178472145 667705806 -854184555 -646941587
REM
CELL 1.54180   50.00000   50.00000   50.00000   90.00000   90.00000   90.00000
LATT -1
SFAC C  
C      1  0.4280760000000  0.5088990000000  0.4025210000000 1.0
C      1  0.5671060000000  0.4796880000000  0.4796160000000 1.0
C      1  0.4766750000000  0.4002230000000  0.4587580000000 1.0
C      1  0.5930600000000  0.4764830000000  0.4429900000000 1.0
C      1  0.4377770000000  0.5370670000000  0.5933130000000 1.0
C      1  0.4643050000000  0.5509220000000  0.4594770000000 1.0
C      1  0.5212350000000  0.6001720000000  0.4558740000000 1.0
C      1  0.4259600000000  0.5074630000000  0.4832660000000 1.0
C      1  0.5537280000000  0.4371870000000  0.5546640000000 1.0
C      1  0.4672200000000  0.6017440000000  0.5232750000000 1.0
C      1  0.5439430000000  0.4878260000000  0.5660200000000 1.0
C      1  0.5418740000000  0.5534010000000  0.5279780000000 1.0
C      1  0.4508840000000  0.4648580000000  0.4069780000000 1.0
C      1  0.5559500000000  0.5198470000000  0.4497900000000 1.0
C      1  0.5473360000000  0.4756540000000  0.4139650000000 1.0
C      1  0.5094640000000  0.5418200000000  0.4522250000000 1.0
C      1  0.4635880000000  0.4908770000000  0.5127600000000 1.0
C      1  0.4878900000000  0.6027210000000  0.4627480000000 1.0
C      1  0.4483690000000  0.4731930000000  0.5377570000000 1.0
C      1  0.4958960000000  0.4078580000000  0.5524870000000 1.0
C      1  0.4770950000000  0.5015210000000  0.4617070000000 1.0
C      1  0.5003040000000  0.4480480000000  0.5066490000000 1.0
C      1  0.4219980000000  0.5429240000000  0.5195360000000 1.0
C      1  0.4378910000000  0.5772840000000  0.4728400000000 1.0
C      1  0.4554540000000  0.5636550000000  0.4228640000000 1.0
C      1  0.4066880000000  0.4574260000000  0.5237380000000 1.0
C      1  0.5443280000000  0.4870100000000  0.4982720000000 1.0
C      1  0.5512260000000  0.5787770000000  0.4864840000000 1.0
C      1  0.4149130000000  0.4521560000000  0.4434010000000 1.0
C      1  0.5035270000000  0.4787170000000  0.3974140000000 1.0
C      1  0.4581890000000  0.5968870000000  0.4758510000000 1.0
C      1  0.4880780000000  0.5580900000000  0.4131470000000 1.0
C      1  0.4182320000000  0.4669500000000  0.5508480000000 1.0
C      1  0.4972050000000  0.4624470000000  0.5437380000000 1.0
C      1  0.4271170000000  0.4530680000000  0.4896540000000 1.0
C      1  0.5447610000000  0.5890010000000  0.4376060000000 1.0
C      1  0.4251360000000  0.4095990000000  0.4511160000000 1.0
C      1  0.4439960000000  0.5335830000000  0.4157270000000 1.0
C      1  0.4879850000000  0.5418160000000  0.4968260000000 1.0
C      1  0.5143460000000  0.4179900000000  0.4260840000000 1.0
C      1  0.5106760000000  0.6078370000000  0.4867650000000 1.0
C      1  0.5053310000000  0.4594740000000  0.5740170000000 1.0
C      1  0.5600360000000  0.5656210000000  0.4401580000000 1.0
C      1  0.5483210000000  0.4485200000000  0.5164730000000 1.0
C      1  0.4557900000000  0.5459900000000  0.5195810000000 1.0
C      1  0.4702960000000  0.5147310000000  0.5440960000000 1.0
C      1  0.5185850000000  0.4461380000000  0.4674090000000 1.0
C      1  0.4490910000000  0.4874100000000  0.4576550000000 1.0
C      1  0.5022060000000  0.5851340000000  0.5329860000000 1.0
C      1  0.5041190000000  0.4267270000000  0.5789300000000 1.0
C      1  0.5902830000000  0.5786780000000  0.5225630000000 1.0
C      1  0.4421840000000  0.5126640000000  0.5385240000000 1.0
C      1  0.6030980000000  0.4615150000000  0.4978700000000 1.0
C      1  0.5171760000000  0.5010570000000  0.4177630000000 1.0
C      1  0.5235810000000  0.4642310000000  0.5236690000000 1.0
C      1  0.5266020000000  0.4229430000000  0.5536720000000 1.0
C      1  0.4875830000000  0.5074510000000  0.4051340000000 1.0
C      1  0.5142480000000  0.4942800000000  0.4994290000000 1.0
C      1  0.6015600000000  0.5198590000000  0.4979960000000 1.0
C      1  0.4740990000000  0.4341970000000  0.5174500000000 1.0
C      1  0.5790230000000  0.4954900000000  0.5500080000000 1.0
C      1  0.5879480000000  0.4979370000000  0.4762420000000 1.0
C      1  0.5265060000000  0.5264480000000  0.5637830000000 1.0
C      1  0.4690240000000  0.4389650000000  0.4538190000000 1.0
C      1  0.5366440000000  0.5358990000000  0.4717840000000 1.0
C      1  0.5070450000000  0.4081440000000  0.4513270000000 1.0
C      1  0.5676880000000  0.4646330000000  0.5394840000000 1.0
C      1  0.4982510000000  0.5694720000000  0.4910260000000 1.0
C      1  0.4753600000000  0.5293770000000  0.4186860000000 1.0
C      1  0.5076430000000  0.5733040000000  0.4442460000000 1.0
C      1  0.4393330000000  0.5059110000000  0.4346280000000 1.0
C      1  0.4705800000000  0.4811460000000  0.3941030000000 1.0
C      1  0.4515730000000  0.4531990000000  0.5111070000000 1.0
C      1  0.6006010000000  0.4610390000000  0.4684930000000 1.0
C      1  0.5464300000000  0.5927770000000  0.5118110000000 1.0
C      1  0.5242980000000  0.4024090000000  0.4999450000000 1.0
C      1  0.4108930000000  0.5238960000000  0.5449070000000 1.0
C      1  0.4924660000000  0.4890260000000  0.5231690000000 1.0
C      1  0.5679120000000  0.4528690000000  0.4631190000000 1.0
C      1  0.5497560000000  0.5421650000000  0.4175390000000 1.0
C      1  0.5187600000000  0.5995050000000  0.5124720000000 1.0
C      1  0.4872170000000  0.3901100000000  0.5320940000000 1.0
C      1  0.4633220000000  0.4416280000000  0.4213460000000 1.0
C      1  0.4866230000000  0.5503200000000  0.6004170000000 1.0
C      1  0.5114680000000  0.4972300000000  0.5623840000000 1.0
C      1  0.5047940000000  0.5046840000000  0.6009960000000 1.0
C      1  0.5568350000000  0.4066290000000  0.4805000000000 1.0
C      1  0.5743370000000  0.4953290000000  0.4342350000000 1.0
C      1  0.4492130000000  0.5485530000000  0.4870890000000 1.0
C      1  0.5737790000000  0.5298520000000  0.5311290000000 1.0
C      1  0.5383130000000  0.5045130000000  0.5950710000000 1.0
C      1  0.5894130000000  0.4374770000000  0.5077110000000 1.0
C      1  0.5558610000000  0.5088140000000  0.4115600000000 1.0
C      1  0.4214620000000  0.4428300000000  0.5685760000000 1.0
C      1  0.4487570000000  0.6224780000000  0.5218400000000 1.0
C      1  0.5686950000000  0.5027880000000  0.5121340000000 1.0
C      1  0.4746190000000  0.5914580000000  0.5516840000000 1.0
C      1  0.5753290000000  0.4289770000000  0.4829710000000 1.0
C      1  0.4991090000000  0.3974080000000  0.4829520000000 1.0
C      1  0.5278150000000  0.5249840000000  0.4344700000000 1.0
C      1  0.5898540000000  0.5453550000000  0.4779800000000 1.0
C      1  0.4119760000000  0.5340730000000  0.4589250000000 1.0
C      1  0.4811620000000  0.5738140000000  0.5866620000000 1.0
C      1  0.5418240000000  0.4561800000000  0.4483280000000 1.0
C      1  0.4622980000000  0.4729280000000  0.4853820000000 1.0
C      1  0.4734810000000  0.5034470000000  0.5999660000000 1.0
C      1  0.5088850000000  0.4526220000000  0.4080490000000 1.0
C      1  0.5598970000000  0.5228410000000  0.5582310000000 1.0
C      1  0.5160300000000  0.4250540000000  0.5225950000000 1.0
C      1  0.5268820000000  0.5642520000000  0.5766680000000 1.0
C      1  0.4798370000000  0.4473500000000  0.5893670000000 1.0
C      1  0.5708270000000  0.5546050000000  0.5115450000000 1.0
C      1  0.5306870000000  0.4920520000000  0.5358050000000 1.0
C      1  0.5359820000000  0.4328180000000  0.4888620000000 1.0
C      1  0.5129630000000  0.5480290000000  0.5428690000000 1.0
C      1  0.4327750000000  0.5550260000000  0.4475200000000 1.0
C      1  0.4188380000000  0.5033740000000  0.5154620000000 1.0
C      1  0.5371920000000  0.4431330000000  0.4199950000000 1.0
C      1  0.4249680000000  0.4797140000000  0.4082590000000 1.0
C      1  0.5145540000000  0.5365870000000  0.5929310000000 1.0
C      1  0.5640510000000  0.5873590000000  0.5332380000000 1.0
C      1  0.5450950000000  0.4581980000000  0.5775210000000 1.0
C      1  0.4245190000000  0.4971580000000  0.5617620000000 1.0
C      1  0.4771560000000  0.5903380000000  0.4991930000000 1.0
C      1  0.4979660000000  0.4513520000000  0.4403240000000 1.0
C      1  0.4421500000000  0.5055690000000  0.5867560000000 1.0
C      1  0.5561750000000  0.5473650000000  0.5803880000000 1.0
C      1  0.5332370000000  0.5207080000000  0.5224860000000 1.0
C      1  0.4036640000000  0.4750320000000  0.4778150000000 1.0
C      1  0.4816960000000  0.5295220000000  0.4492440000000 1.0
C      1  0.4117740000000  0.5363400000000  0.4928980000000 1.0
C      1  0.4872650000000  0.4286560000000  0.4093980000000 1.0
C      1  0.5210810000000  0.4751590000000  0.5956280000000 1.0
C      1  0.4530280000000  0.5175640000000  0.5005630000000 1.0
C      1  0.4192530000000  0.4297360000000  0.5105410000000 1.0
C      1  0.4461570000000  0.4236840000000  0.5550070000000 1.0
C      1  0.5925430000000  0.4684410000000  0.5606310000000 1.0
C      1  0.4077450000000  0.5002390000000  0.4553350000000 1.0
C      1  0.4851930000000  0.5563560000000  0.5264760000000 1.0
C      1  0.5990750000000  0.4870920000000  0.5124870000000 1.0
C      1  0.4873070000000  0.4541420000000  0.4783440000000 1.0
C      1  0.4351720000000  0.4573750000000  0.4608760000000 1.0
C      1  0.5043240000000  0.5817820000000  0.5668060000000 1.0
C      1  0.5716630000000  0.5660780000000  0.4686400000000 1.0
C      1  0.5771970000000  0.4265670000000  0.5320760000000 1.0
C      1  0.4824830000000  0.4950410000000  0.5614320000000 1.0
C      1  0.4955870000000  0.4802270000000  0.4488440000000 1.0
C      1  0.5004160000000  0.5197370000000  0.5313300000000 1.0
C      1  0.5165360000000  0.4978650000000  0.4667080000000 1.0
C      1  0.5484040000000  0.4141980000000  0.5215600000000 1.0
C      1  0.4759520000000  0.5776280000000  0.4457290000000 1.0
C      1  0.4654950000000  0.5322580000000  0.6046460000000 1.0
C      1  0.6017750000000  0.5135020000000  0.5315990000000 1.0
C      1  0.5839070000000  0.5220040000000  0.4621700000000 1.0
C      1  0.5248570000000  0.5664660000000  0.4796640000000 1.0
C      1  0.4543680000000  0.5798360000000  0.5746350000000 1.0
C      1  0.4777500000000  0.4349800000000  0.5495020000000 1.0
C      1  0.4368110000000  0.4107230000000  0.5301410000000 1.0
C      1  0.4503330000000  0.4155590000000  0.4670060000000 1.0
C      1  0.4503020000000  0.4434360000000  0.5818530000000 1.0
C      1  0.5541860000000  0.5265730000000  0.6008760000000 1.0
C      1  0.4334270000000  0.5625940000000  0.5818870000000 1.0
C      1  0.5344290000000  0.4868160000000  0.4434510000000 1.0
C      1  0.4774820000000  0.4028650000000  0.5073250000000 1.0
C      1  0.4656060000000  0.4699440000000  0.5670020000000 1.0
C      1  0.5517830000000  0.5688980000000  0.5555310000000 1.0
C      1  0.4077970000000  0.4764110000000  0.4309800000000 1.0
C      1  0.5522560000000  0.5295200000000  0.4977030000000 1.0
C      1  0.5202980000000  0.5595200000000  0.4161180000000 1.0
C      1  0.4946780000000  0.5167690000000  0.4848420000000 1.0
C      1  0.4465790000000  0.4131710000000  0.4975830000000 1.0
C      1  0.4027460000000  0.4794110000000  0.5070890000000 1.0
END
