TITL C-2782234-8014-1296 0.00055921298827213 125000 -306.144964721076 0 0 52 (D2) n - 1
REM
REM in /home/nfs/bkarasulu/CARBON/AIRSS/Generating-Clusters/REBO/Higher-Symm/SD-CG/HFTN-CG
REM
REM
REM
REM
REM
REM ./C.cell (12c818d87b63d06a65506943cc24bca4)
REM
REM compiler GCC version 9.2.1 20190827 (Red Hat 9.2.1-1)
REM options -cpp -mtune=generic -march=x86-64 -g -O0 -fpre-include=/usr/include/finclude/math-vector-fortran.h
REM seed -899861617 -1323816754 298768410 -461886295 1678059412 701971310 -259721948 1339755698 642563038 383929723 -1481805820 -1977891934 403310469 1012332841 1462482319 -1468709089 -709729393 1243472078 111684335 -1316487479 -1471081469 33703301 784541337 1990878900 -2010744939 -772532854 -749737335 264365100 -1554880569 234480844 -2104650574 -629982317 1107293897
REM
CELL 1.54180   50.00000   50.00000   50.00000   90.00000   90.00000   90.00000
LATT -1
SFAC C  
C      1  0.5114850000000  0.5474300000000  0.5270390000000 1.0
C      1  0.5589750000000  0.5294390000000  0.5105990000000 1.0
C      1  0.5279610000000  0.4985390000000  0.5390560000000 1.0
C      1  0.4893670000000  0.5474210000000  0.4730490000000 1.0
C      1  0.4893420000000  0.4535300000000  0.5270560000000 1.0
C      1  0.5114820000000  0.4535140000000  0.4730760000000 1.0
C      1  0.4418710000000  0.5294510000000  0.4894980000000 1.0
C      1  0.4418590000000  0.4715140000000  0.5105880000000 1.0
C      1  0.5589700000000  0.4714910000000  0.4895350000000 1.0
C      1  0.4728760000000  0.4985290000000  0.4610540000000 1.0
C      1  0.4728600000000  0.5024270000000  0.5390440000000 1.0
C      1  0.5279780000000  0.5024000000000  0.4610650000000 1.0
C      1  0.5305230000000  0.5441480000000  0.5048650000000 1.0
C      1  0.5085950000000  0.5193660000000  0.5445270000000 1.0
C      1  0.5584050000000  0.5084890000000  0.5280400000000 1.0
C      1  0.4703280000000  0.5441550000000  0.4952250000000 1.0
C      1  0.5305120000000  0.4567910000000  0.4952580000000 1.0
C      1  0.4703130000000  0.4568020000000  0.5048730000000 1.0
C      1  0.4922480000000  0.5193480000000  0.4555740000000 1.0
C      1  0.5086080000000  0.4815790000000  0.4555860000000 1.0
C      1  0.4922240000000  0.4816020000000  0.5445330000000 1.0
C      1  0.4424350000000  0.5084930000000  0.4720660000000 1.0
C      1  0.5584140000000  0.4924410000000  0.4720940000000 1.0
C      1  0.4424210000000  0.4924710000000  0.5280200000000 1.0
C      1  0.4595680000000  0.4761590000000  0.4383600000000 1.0
C      1  0.4841020000000  0.4379510000000  0.4600410000000 1.0
C      1  0.4383910000000  0.4596920000000  0.4814500000000 1.0
C      1  0.5412630000000  0.4761760000000  0.5617610000000 1.0
C      1  0.5412950000000  0.5247600000000  0.4383650000000 1.0
C      1  0.4595500000000  0.5248010000000  0.5617330000000 1.0
C      1  0.5167170000000  0.4379650000000  0.5400980000000 1.0
C      1  0.5167520000000  0.5629780000000  0.4600180000000 1.0
C      1  0.4841040000000  0.5630010000000  0.5400620000000 1.0
C      1  0.5624340000000  0.4596830000000  0.5186790000000 1.0
C      1  0.5624540000000  0.5412460000000  0.4814570000000 1.0
C      1  0.4383960000000  0.5412730000000  0.5186340000000 1.0
C      1  0.4376860000000  0.4800620000000  0.4605730000000 1.0
C      1  0.4621340000000  0.4388500000000  0.4778350000000 1.0
C      1  0.4857610000000  0.4617970000000  0.4412280000000 1.0
C      1  0.5631450000000  0.4800620000000  0.5395470000000 1.0
C      1  0.4376760000000  0.5209040000000  0.5395110000000 1.0
C      1  0.5631670000000  0.5208670000000  0.4605890000000 1.0
C      1  0.5386850000000  0.4388490000000  0.5223040000000 1.0
C      1  0.4621430000000  0.5621080000000  0.5222590000000 1.0
C      1  0.5387130000000  0.5620870000000  0.4778220000000 1.0
C      1  0.5150650000000  0.4618200000000  0.5589000000000 1.0
C      1  0.4857490000000  0.5391550000000  0.5588750000000 1.0
C      1  0.5151000000000  0.5391230000000  0.4412160000000 1.0
C      1  0.5166030000000  0.5280580000000  0.4794390000000 1.0
C      1  0.5165860000000  0.4728840000000  0.5206780000000 1.0
C      1  0.4842420000000  0.5280730000000  0.5206580000000 1.0
C      1  0.4842430000000  0.4728800000000  0.4794450000000 1.0
END
