TITL C-2782236-320-484 -0.00665521238765329 125000 -1192.4715760048 0 0 200 (C1) n - 1
REM
REM in /home/nfs/bkarasulu/CARBON/AIRSS/Generating-Clusters/REBO/Higher-Symm/SD-CG/HFTN-CG
REM
REM
REM
REM
REM
REM ./C.cell (12c818d87b63d06a65506943cc24bca4)
REM
REM compiler GCC version 9.2.1 20190827 (Red Hat 9.2.1-1)
REM options -cpp -mtune=generic -march=x86-64 -g -O0 -fpre-include=/usr/include/finclude/math-vector-fortran.h
REM seed -2073842145 2065177996 1562147179 -1457920909 -1887044042 1552296981 -547997753 939820848 1423337303 -801368337 -1629401479 -1248687467 980965566 327469601 -661811094 -1636086859 2092176112 992118689 -1768379905 2063815414 -238908280 -67592151 -1038919944 -992565408 298683456 -2100646113 -1097127988 1133700288 1311312818 -1702443336 -1089417509 -24597490 1027175505
REM
CELL 1.54180   50.00000   50.00000   50.00000   90.00000   90.00000   90.00000
LATT -1
SFAC C  
C      1  0.4581660000000  0.6049370000000  0.4649400000000 1.0
C      1  0.5416170000000  0.3998780000000  0.4655350000000 1.0
C      1  0.5435720000000  0.6053880000000  0.5379750000000 1.0
C      1  0.4564170000000  0.3939300000000  0.5350440000000 1.0
C      1  0.6279090000000  0.5024160000000  0.5091570000000 1.0
C      1  0.3663850000000  0.4957670000000  0.5114100000000 1.0
C      1  0.3752620000000  0.5062560000000  0.4830930000000 1.0
C      1  0.6208340000000  0.4898540000000  0.4816830000000 1.0
C      1  0.5539240000000  0.4802320000000  0.4209030000000 1.0
C      1  0.4545540000000  0.5275880000000  0.4113990000000 1.0
C      1  0.4514260000000  0.4732560000000  0.5849520000000 1.0
C      1  0.5452390000000  0.5265220000000  0.5891390000000 1.0
C      1  0.4803700000000  0.4898700000000  0.4267010000000 1.0
C      1  0.5276690000000  0.5079160000000  0.4326790000000 1.0
C      1  0.5248720000000  0.4973370000000  0.5708970000000 1.0
C      1  0.4787860000000  0.5028330000000  0.5720950000000 1.0
C      1  0.5025730000000  0.5133150000000  0.5250450000000 1.0
C      1  0.5207730000000  0.4871250000000  0.5241820000000 1.0
C      1  0.5205420000000  0.5113600000000  0.4791040000000 1.0
C      1  0.4889780000000  0.4878440000000  0.4732750000000 1.0
C      1  0.4031680000000  0.5066150000000  0.4416100000000 1.0
C      1  0.5965110000000  0.4878360000000  0.4392090000000 1.0
C      1  0.6128180000000  0.5126940000000  0.5528090000000 1.0
C      1  0.3864610000000  0.4861430000000  0.5535310000000 1.0
C      1  0.4583060000000  0.5319920000000  0.5380940000000 1.0
C      1  0.5407870000000  0.4565960000000  0.5405290000000 1.0
C      1  0.5426990000000  0.5482150000000  0.4584410000000 1.0
C      1  0.4571980000000  0.4650450000000  0.4657010000000 1.0
C      1  0.4147440000000  0.4163440000000  0.4761030000000 1.0
C      1  0.5821270000000  0.5877640000000  0.4772980000000 1.0
C      1  0.5805730000000  0.4176890000000  0.5275140000000 1.0
C      1  0.4204240000000  0.5790560000000  0.5229890000000 1.0
C      1  0.5653690000000  0.5250810000000  0.5431340000000 1.0
C      1  0.4352410000000  0.4760870000000  0.5355840000000 1.0
C      1  0.4512330000000  0.5206670000000  0.4597760000000 1.0
C      1  0.5522500000000  0.4752670000000  0.4625640000000 1.0
C      1  0.4673130000000  0.4156000000000  0.4352710000000 1.0
C      1  0.5298020000000  0.5891630000000  0.4313320000000 1.0
C      1  0.5283350000000  0.4143610000000  0.5685280000000 1.0
C      1  0.4693950000000  0.5818590000000  0.5639570000000 1.0
C      1  0.4974160000000  0.5982620000000  0.4614470000000 1.0
C      1  0.5019550000000  0.3956740000000  0.4648710000000 1.0
C      1  0.5037000000000  0.6058530000000  0.5357330000000 1.0
C      1  0.4960750000000  0.3932660000000  0.5373790000000 1.0
C      1  0.5752960000000  0.5039880000000  0.5107040000000 1.0
C      1  0.4153850000000  0.4940470000000  0.5176950000000 1.0
C      1  0.4017960000000  0.4877350000000  0.4950310000000 1.0
C      1  0.5932060000000  0.5084050000000  0.4903440000000 1.0
C      1  0.4782280000000  0.4634990000000  0.3986300000000 1.0
C      1  0.5202570000000  0.5417990000000  0.3910500000000 1.0
C      1  0.5161640000000  0.4594950000000  0.6097200000000 1.0
C      1  0.4785640000000  0.5431310000000  0.6117170000000 1.0
C      1  0.4895890000000  0.4380090000000  0.4780480000000 1.0
C      1  0.5068200000000  0.5573860000000  0.4735090000000 1.0
C      1  0.5054250000000  0.4385840000000  0.5258900000000 1.0
C      1  0.5048480000000  0.5594920000000  0.5158640000000 1.0
C      1  0.4709170000000  0.5997550000000  0.5390380000000 1.0
C      1  0.5287860000000  0.3996240000000  0.5404420000000 1.0
C      1  0.5309590000000  0.6023810000000  0.4613030000000 1.0
C      1  0.4688110000000  0.4001430000000  0.4632470000000 1.0
C      1  0.5366210000000  0.5629770000000  0.3913010000000 1.0
C      1  0.4625820000000  0.4422420000000  0.3960200000000 1.0
C      1  0.4617120000000  0.5641070000000  0.6109050000000 1.0
C      1  0.5334090000000  0.4390900000000  0.6098000000000 1.0
C      1  0.6099620000000  0.5064460000000  0.4545990000000 1.0
C      1  0.3890830000000  0.4890990000000  0.4576100000000 1.0
C      1  0.3812890000000  0.5069530000000  0.5340450000000 1.0
C      1  0.6137280000000  0.4919320000000  0.5326200000000 1.0
C      1  0.4259270000000  0.4431510000000  0.4258760000000 1.0
C      1  0.5735480000000  0.5649220000000  0.4231520000000 1.0
C      1  0.5686210000000  0.4438390000000  0.5766710000000 1.0
C      1  0.4280700000000  0.5567020000000  0.5764640000000 1.0
C      1  0.5496860000000  0.3981970000000  0.4886760000000 1.0
C      1  0.4494340000000  0.6060380000000  0.4878890000000 1.0
C      1  0.4468110000000  0.3925460000000  0.5124940000000 1.0
C      1  0.5524400000000  0.6087910000000  0.5149480000000 1.0
C      1  0.4839430000000  0.6070130000000  0.5079900000000 1.0
C      1  0.5146570000000  0.3937610000000  0.5095360000000 1.0
C      1  0.5123770000000  0.6111060000000  0.4888050000000 1.0
C      1  0.4842940000000  0.3925840000000  0.4932310000000 1.0
C      1  0.5460970000000  0.4281880000000  0.5865210000000 1.0
C      1  0.4492720000000  0.5733140000000  0.5868370000000 1.0
C      1  0.4490920000000  0.4281330000000  0.4167220000000 1.0
C      1  0.5487610000000  0.5772440000000  0.4131710000000 1.0
C      1  0.4549450000000  0.5186800000000  0.5655250000000 1.0
C      1  0.5444740000000  0.4737880000000  0.5658850000000 1.0
C      1  0.5464440000000  0.5305530000000  0.4333490000000 1.0
C      1  0.4550850000000  0.4777760000000  0.4369340000000 1.0
C      1  0.4020600000000  0.5377990000000  0.4852750000000 1.0
C      1  0.5965160000000  0.4477980000000  0.4790690000000 1.0
C      1  0.6086280000000  0.5477670000000  0.5138780000000 1.0
C      1  0.3882980000000  0.4517540000000  0.5148080000000 1.0
C      1  0.5942760000000  0.4317200000000  0.5041120000000 1.0
C      1  0.4119720000000  0.5594450000000  0.4991730000000 1.0
C      1  0.4030470000000  0.4343220000000  0.4990270000000 1.0
C      1  0.5940550000000  0.5671770000000  0.4995990000000 1.0
C      1  0.5002980000000  0.5724350000000  0.5721960000000 1.0
C      1  0.4973240000000  0.4247250000000  0.5736660000000 1.0
C      1  0.4994170000000  0.5780740000000  0.4244620000000 1.0
C      1  0.4970700000000  0.4269250000000  0.4279470000000 1.0
C      1  0.4836870000000  0.4389430000000  0.5976820000000 1.0
C      1  0.5128220000000  0.5604840000000  0.5974790000000 1.0
C      1  0.5082230000000  0.4357300000000  0.4004830000000 1.0
C      1  0.4870260000000  0.5620500000000  0.4002030000000 1.0
C      1  0.5004150000000  0.5141020000000  0.3918490000000 1.0
C      1  0.5019840000000  0.4856430000000  0.3918300000000 1.0
C      1  0.4978730000000  0.5149880000000  0.6105520000000 1.0
C      1  0.4957230000000  0.4865660000000  0.6087630000000 1.0
C      1  0.4190690000000  0.5273640000000  0.4576160000000 1.0
C      1  0.5805970000000  0.4675980000000  0.4558390000000 1.0
C      1  0.5950650000000  0.5360080000000  0.5426960000000 1.0
C      1  0.4038920000000  0.4638290000000  0.5411410000000 1.0
C      1  0.4359300000000  0.4359740000000  0.5037420000000 1.0
C      1  0.5602510000000  0.5627930000000  0.4994100000000 1.0
C      1  0.5616230000000  0.4383440000000  0.4977800000000 1.0
C      1  0.4456410000000  0.5559400000000  0.5026000000000 1.0
C      1  0.4638170000000  0.4810460000000  0.5222060000000 1.0
C      1  0.5511490000000  0.5268810000000  0.5140550000000 1.0
C      1  0.5332570000000  0.4640980000000  0.4826480000000 1.0
C      1  0.4685120000000  0.5192000000000  0.4871680000000 1.0
C      1  0.5183740000000  0.5881000000000  0.5123410000000 1.0
C      1  0.4834410000000  0.4172600000000  0.5170440000000 1.0
C      1  0.4873600000000  0.5804070000000  0.4867620000000 1.0
C      1  0.5133400000000  0.4188380000000  0.4864190000000 1.0
C      1  0.4423200000000  0.4030480000000  0.4823520000000 1.0
C      1  0.5545650000000  0.5994800000000  0.4849250000000 1.0
C      1  0.5536800000000  0.4060290000000  0.5199190000000 1.0
C      1  0.4475530000000  0.5931130000000  0.5167060000000 1.0
C      1  0.5672440000000  0.4748700000000  0.5848200000000 1.0
C      1  0.4317290000000  0.5273250000000  0.5831190000000 1.0
C      1  0.4308410000000  0.4729100000000  0.4201540000000 1.0
C      1  0.5718030000000  0.5342870000000  0.4186990000000 1.0
C      1  0.5333340000000  0.4618440000000  0.4301200000000 1.0
C      1  0.4525720000000  0.5416640000000  0.4364580000000 1.0
C      1  0.4485200000000  0.4598340000000  0.5599100000000 1.0
C      1  0.5491100000000  0.5410320000000  0.5646690000000 1.0
C      1  0.6306240000000  0.5308630000000  0.5074850000000 1.0
C      1  0.3644780000000  0.4670280000000  0.5109350000000 1.0
C      1  0.3640850000000  0.5304110000000  0.4756990000000 1.0
C      1  0.6319130000000  0.4650960000000  0.4766020000000 1.0
C      1  0.5319660000000  0.4297350000000  0.5096970000000 1.0
C      1  0.4723000000000  0.5691390000000  0.5134570000000 1.0
C      1  0.4645820000000  0.4271630000000  0.4930400000000 1.0
C      1  0.5317380000000  0.5714560000000  0.4888490000000 1.0
C      1  0.4171210000000  0.4348090000000  0.4514780000000 1.0
C      1  0.5810530000000  0.5731500000000  0.4497020000000 1.0
C      1  0.5785670000000  0.4364160000000  0.5513470000000 1.0
C      1  0.4208370000000  0.5634370000000  0.5496390000000 1.0
C      1  0.5728810000000  0.5497910000000  0.4706340000000 1.0
C      1  0.4321630000000  0.4520240000000  0.4753300000000 1.0
C      1  0.4304470000000  0.5410590000000  0.5292110000000 1.0
C      1  0.5712660000000  0.4563120000000  0.5254350000000 1.0
C      1  0.5866210000000  0.4343280000000  0.4514730000000 1.0
C      1  0.4181130000000  0.5599720000000  0.4565800000000 1.0
C      1  0.4079250000000  0.4322940000000  0.5435420000000 1.0
C      1  0.5881060000000  0.5676110000000  0.5414640000000 1.0
C      1  0.5409430000000  0.5308920000000  0.4852110000000 1.0
C      1  0.4631170000000  0.4857620000000  0.4913260000000 1.0
C      1  0.4716700000000  0.5133100000000  0.5188330000000 1.0
C      1  0.5390920000000  0.4689840000000  0.5092130000000 1.0
C      1  0.4774010000000  0.5364630000000  0.3964230000000 1.0
C      1  0.5157000000000  0.4558930000000  0.3874680000000 1.0
C      1  0.5221570000000  0.5353810000000  0.6034920000000 1.0
C      1  0.4737810000000  0.4643530000000  0.6004840000000 1.0
C      1  0.5209250000000  0.5866980000000  0.5553540000000 1.0
C      1  0.4763160000000  0.4116800000000  0.5559950000000 1.0
C      1  0.4758890000000  0.5908730000000  0.4400600000000 1.0
C      1  0.5191370000000  0.4148190000000  0.4452660000000 1.0
C      1  0.5041090000000  0.4679470000000  0.4237750000000 1.0
C      1  0.5087950000000  0.5308650000000  0.4205190000000 1.0
C      1  0.5072600000000  0.4716670000000  0.5798640000000 1.0
C      1  0.4884620000000  0.5322090000000  0.5823060000000 1.0
C      1  0.5187740000000  0.5368060000000  0.5179290000000 1.0
C      1  0.4934220000000  0.4679240000000  0.5281160000000 1.0
C      1  0.4970790000000  0.5285490000000  0.4803180000000 1.0
C      1  0.5054970000000  0.4654760000000  0.4760870000000 1.0
C      1  0.4562570000000  0.5674200000000  0.4475490000000 1.0
C      1  0.5377820000000  0.4400720000000  0.4482950000000 1.0
C      1  0.5431760000000  0.5654870000000  0.5505710000000 1.0
C      1  0.4535070000000  0.4331110000000  0.5510420000000 1.0
C      1  0.5628930000000  0.5711450000000  0.5307490000000 1.0
C      1  0.4326510000000  0.4259650000000  0.5331150000000 1.0
C      1  0.4402080000000  0.5701190000000  0.4729460000000 1.0
C      1  0.5590710000000  0.4358440000000  0.4664670000000 1.0
C      1  0.5918310000000  0.5278640000000  0.4682940000000 1.0
C      1  0.4065510000000  0.4687000000000  0.4728810000000 1.0
C      1  0.4083770000000  0.5211060000000  0.5275430000000 1.0
C      1  0.5862220000000  0.4825940000000  0.5263960000000 1.0
C      1  0.5617860000000  0.5027820000000  0.5943900000000 1.0
C      1  0.4350400000000  0.4963890000000  0.5916580000000 1.0
C      1  0.4396280000000  0.5021980000000  0.4094570000000 1.0
C      1  0.5687870000000  0.5031180000000  0.4148380000000 1.0
C      1  0.5366460000000  0.5067430000000  0.5448310000000 1.0
C      1  0.4912600000000  0.4926070000000  0.5497860000000 1.0
C      1  0.4803480000000  0.5047090000000  0.4520340000000 1.0
C      1  0.5287090000000  0.4942280000000  0.4569250000000 1.0
C      1  0.4784730000000  0.5500490000000  0.5577220000000 1.0
C      1  0.5123350000000  0.4491700000000  0.5576430000000 1.0
C      1  0.5134240000000  0.5544060000000  0.4420410000000 1.0
C      1  0.4822400000000  0.4505710000000  0.4473930000000 1.0
END
