TITL C-2782231-7322-708 0.000489009538962169 125000 -568.503401807601 0 0 97 (C1) n - 1
REM
REM in /home/nfs/bkarasulu/CARBON/AIRSS/Generating-Clusters/REBO/Higher-Symm/SD-CG/HFTN-CG
REM
REM
REM
REM
REM
REM ./C.cell (12c818d87b63d06a65506943cc24bca4)
REM
REM compiler GCC version 9.2.1 20190827 (Red Hat 9.2.1-1)
REM options -cpp -mtune=generic -march=x86-64 -g -O0 -fpre-include=/usr/include/finclude/math-vector-fortran.h
REM seed -2072250347 1292773885 -1761336410 1096626858 -1420112680 -622931757 575137279 184784677 -759091874 876954018 -304160627 -711645215 -1875426005 -467094544 1685612255 1507276192 536945963 1972228966 -1264521189 -1911284290 1557597760 940497231 -1258162026 1014047571 2007963266 1803858505 -485496281 1857153666 685700756 -651040498 1603905323 554123088 1364302541
REM
CELL 1.54180   50.00000   50.00000   50.00000   90.00000   90.00000   90.00000
LATT -1
SFAC C  
C      1  0.5269440000000  0.5598580000000  0.5478690000000 1.0
C      1  0.5326390000000  0.4387840000000  0.5480290000000 1.0
C      1  0.4284740000000  0.4642180000000  0.4987440000000 1.0
C      1  0.4197530000000  0.5361000000000  0.5004050000000 1.0
C      1  0.4897190000000  0.5870250000000  0.5710530000000 1.0
C      1  0.4968870000000  0.4164000000000  0.5755770000000 1.0
C      1  0.4633380000000  0.5641460000000  0.4664570000000 1.0
C      1  0.4634360000000  0.4393630000000  0.4613450000000 1.0
C      1  0.5385300000000  0.4243020000000  0.4936890000000 1.0
C      1  0.5375450000000  0.5734770000000  0.4934220000000 1.0
C      1  0.4383280000000  0.5150250000000  0.5565340000000 1.0
C      1  0.4388240000000  0.4868840000000  0.5572810000000 1.0
C      1  0.4161000000000  0.4865480000000  0.4782190000000 1.0
C      1  0.4143110000000  0.5148450000000  0.4784580000000 1.0
C      1  0.5063630000000  0.4834530000000  0.5179160000000 1.0
C      1  0.4909490000000  0.5111170000000  0.4935110000000 1.0
C      1  0.4857560000000  0.5628310000000  0.5087200000000 1.0
C      1  0.4882820000000  0.4334300000000  0.5120540000000 1.0
C      1  0.5071350000000  0.4130120000000  0.5156770000000 1.0
C      1  0.5035960000000  0.5833360000000  0.5121300000000 1.0
C      1  0.4452710000000  0.4429370000000  0.4814780000000 1.0
C      1  0.4406180000000  0.5605890000000  0.4902560000000 1.0
C      1  0.4658730000000  0.5246760000000  0.5493660000000 1.0
C      1  0.4669500000000  0.4758140000000  0.5492440000000 1.0
C      1  0.4682830000000  0.5137980000000  0.4681670000000 1.0
C      1  0.4641550000000  0.4837190000000  0.4681330000000 1.0
C      1  0.4060090000000  0.5127030000000  0.5195540000000 1.0
C      1  0.4090290000000  0.4851980000000  0.5174960000000 1.0
C      1  0.4180120000000  0.4774230000000  0.4509160000000 1.0
C      1  0.4183380000000  0.5257850000000  0.4521800000000 1.0
C      1  0.5126020000000  0.4852910000000  0.4554040000000 1.0
C      1  0.5284220000000  0.5141500000000  0.4584060000000 1.0
C      1  0.5179330000000  0.4912260000000  0.5453000000000 1.0
C      1  0.5172810000000  0.5244020000000  0.5469240000000 1.0
C      1  0.4864970000000  0.5794180000000  0.4713530000000 1.0
C      1  0.4861200000000  0.4210130000000  0.4639450000000 1.0
C      1  0.5437230000000  0.4867940000000  0.4173350000000 1.0
C      1  0.5461990000000  0.5140230000000  0.4170260000000 1.0
C      1  0.4634690000000  0.4640170000000  0.4404130000000 1.0
C      1  0.4667640000000  0.5383260000000  0.4465890000000 1.0
C      1  0.5513280000000  0.4582450000000  0.5594650000000 1.0
C      1  0.5497350000000  0.5412240000000  0.5617850000000 1.0
C      1  0.4398370000000  0.5524610000000  0.5235200000000 1.0
C      1  0.4459110000000  0.4515250000000  0.5254250000000 1.0
C      1  0.4858450000000  0.5147450000000  0.5696940000000 1.0
C      1  0.4866440000000  0.4869260000000  0.5697440000000 1.0
C      1  0.5858290000000  0.4848410000000  0.5182840000000 1.0
C      1  0.5823390000000  0.5129680000000  0.5144420000000 1.0
C      1  0.5081440000000  0.4541760000000  0.4657340000000 1.0
C      1  0.5141820000000  0.5431880000000  0.4620110000000 1.0
C      1  0.5595790000000  0.5388920000000  0.4561050000000 1.0
C      1  0.5559350000000  0.4555050000000  0.4524420000000 1.0
C      1  0.4754300000000  0.4852490000000  0.5196350000000 1.0
C      1  0.4696550000000  0.5162100000000  0.5196350000000 1.0
C      1  0.4953320000000  0.5622080000000  0.5587600000000 1.0
C      1  0.5023090000000  0.4398120000000  0.5603470000000 1.0
C      1  0.5475460000000  0.4844950000000  0.5297010000000 1.0
C      1  0.5463630000000  0.5154840000000  0.5317100000000 1.0
C      1  0.5396070000000  0.4613290000000  0.4299460000000 1.0
C      1  0.5457710000000  0.5393210000000  0.4308790000000 1.0
C      1  0.4912010000000  0.5420360000000  0.4845600000000 1.0
C      1  0.4883340000000  0.4506090000000  0.4905280000000 1.0
C      1  0.5752300000000  0.4685850000000  0.5422600000000 1.0
C      1  0.5741090000000  0.5336650000000  0.5401330000000 1.0
C      1  0.5089820000000  0.5166530000000  0.4313620000000 1.0
C      1  0.5001120000000  0.4891580000000  0.4268190000000 1.0
C      1  0.5568690000000  0.4788410000000  0.4748880000000 1.0
C      1  0.5581680000000  0.5074320000000  0.4677280000000 1.0
C      1  0.5151780000000  0.4241740000000  0.4773480000000 1.0
C      1  0.5152880000000  0.5724150000000  0.4755300000000 1.0
C      1  0.5197420000000  0.5549950000000  0.4311360000000 1.0
C      1  0.5123010000000  0.4518530000000  0.4337280000000 1.0
C      1  0.4716930000000  0.5541100000000  0.5354580000000 1.0
C      1  0.4768530000000  0.4455520000000  0.5383770000000 1.0
C      1  0.4254500000000  0.4701990000000  0.5379810000000 1.0
C      1  0.4213980000000  0.5296840000000  0.5394890000000 1.0
C      1  0.5633640000000  0.4403220000000  0.4820310000000 1.0
C      1  0.5631070000000  0.5555750000000  0.4845380000000 1.0
C      1  0.5303180000000  0.5755450000000  0.5226770000000 1.0
C      1  0.5340200000000  0.4230650000000  0.5239700000000 1.0
C      1  0.4591120000000  0.5344750000000  0.4935860000000 1.0
C      1  0.4706110000000  0.4717640000000  0.4927340000000 1.0
C      1  0.5382650000000  0.5132960000000  0.5714700000000 1.0
C      1  0.5382270000000  0.4822500000000  0.5697160000000 1.0
C      1  0.4420920000000  0.5167050000000  0.4382740000000 1.0
C      1  0.4409910000000  0.4875890000000  0.4360670000000 1.0
C      1  0.5541050000000  0.5440900000000  0.5147720000000 1.0
C      1  0.5546350000000  0.4591160000000  0.5093990000000 1.0
C      1  0.4914150000000  0.5404180000000  0.4293300000000 1.0
C      1  0.4868910000000  0.4632570000000  0.4212290000000 1.0
C      1  0.5760870000000  0.5242290000000  0.4883510000000 1.0
C      1  0.5831160000000  0.4665460000000  0.4923630000000 1.0
C      1  0.4980460000000  0.5374250000000  0.5792840000000 1.0
C      1  0.5025690000000  0.4664510000000  0.5782060000000 1.0
C      1  0.5300660000000  0.4747950000000  0.4951330000000 1.0
C      1  0.5365210000000  0.5276810000000  0.4950800000000 1.0
C      1  0.5202190000000  0.5053090000000  0.4965040000000 1.0
END
