TITL C-2782236-320-519 -0.00274372628300118 125000 -552.79116086325 0 0 99 (C1) n - 1
REM
REM in /home/nfs/bkarasulu/CARBON/AIRSS/Generating-Clusters/REBO/Higher-Symm/SD-CG/HFTN-CG
REM
REM
REM
REM
REM
REM ./C.cell (12c818d87b63d06a65506943cc24bca4)
REM
REM compiler GCC version 9.2.1 20190827 (Red Hat 9.2.1-1)
REM options -cpp -mtune=generic -march=x86-64 -g -O0 -fpre-include=/usr/include/finclude/math-vector-fortran.h
REM seed -204219213 -1925776049 -1083318121 -1952924083 683618287 -201440237 -2092817156 -732656051 -1210571054 1756677460 172516005 2034738747 1843760315 1172422469 1692216143 1803831654 -833763616 -455493279 -376811265 -2135567404 -487591485 1028837589 1518199801 1940009342 -1636018185 775240426 1767938778 -1791363899 -1180158589 -803740540 428758753 -130884138 -1522384216
REM
CELL 1.54180   50.00000   50.00000   50.00000   90.00000   90.00000   90.00000
LATT -1
SFAC C  
C      1  0.5178250000000  0.5515560000000  0.4820660000000 1.0
C      1  0.5202990000000  0.4872970000000  0.5550670000000 1.0
C      1  0.5205010000000  0.4578950000000  0.4623680000000 1.0
C      1  0.4857460000000  0.5586070000000  0.4840220000000 1.0
C      1  0.4883060000000  0.4847290000000  0.5586660000000 1.0
C      1  0.4886090000000  0.4582610000000  0.4575710000000 1.0
C      1  0.5117440000000  0.5575980000000  0.5141330000000 1.0
C      1  0.5147160000000  0.4837670000000  0.4417190000000 1.0
C      1  0.5127290000000  0.4574910000000  0.5429590000000 1.0
C      1  0.4797850000000  0.5536350000000  0.5167830000000 1.0
C      1  0.4826240000000  0.4890470000000  0.4467310000000 1.0
C      1  0.4807840000000  0.4593830000000  0.5387740000000 1.0
C      1  0.4813750000000  0.5522800000000  0.4415970000000 1.0
C      1  0.4868630000000  0.5247950000000  0.5729750000000 1.0
C      1  0.4880710000000  0.4246640000000  0.4850240000000 1.0
C      1  0.5130530000000  0.5514630000000  0.4416400000000 1.0
C      1  0.5190160000000  0.5228980000000  0.5737030000000 1.0
C      1  0.5201350000000  0.4236810000000  0.4830270000000 1.0
C      1  0.4805110000000  0.5526410000000  0.5567380000000 1.0
C      1  0.4878980000000  0.5241490000000  0.4269060000000 1.0
C      1  0.4818040000000  0.4256240000000  0.5173260000000 1.0
C      1  0.5127340000000  0.5503130000000  0.5567090000000 1.0
C      1  0.5198260000000  0.5236430000000  0.4265060000000 1.0
C      1  0.5141000000000  0.4254810000000  0.5151580000000 1.0
C      1  0.4560250000000  0.5177460000000  0.4388330000000 1.0
C      1  0.4496240000000  0.5496340000000  0.5425440000000 1.0
C      1  0.4509380000000  0.4395630000000  0.5214850000000 1.0
C      1  0.5508230000000  0.5146770000000  0.4372850000000 1.0
C      1  0.5445420000000  0.5412680000000  0.5467300000000 1.0
C      1  0.5464600000000  0.4373930000000  0.5122250000000 1.0
C      1  0.4548110000000  0.5212150000000  0.5608090000000 1.0
C      1  0.4505620000000  0.5474190000000  0.4551080000000 1.0
C      1  0.4564860000000  0.4381320000000  0.4878280000000 1.0
C      1  0.5499160000000  0.5122380000000  0.5639220000000 1.0
C      1  0.5446570000000  0.5441590000000  0.4535290000000 1.0
C      1  0.5508820000000  0.4376940000000  0.4783060000000 1.0
C      1  0.5332440000000  0.4968760000000  0.5897490000000 1.0
C      1  0.5336110000000  0.4234570000000  0.4522420000000 1.0
C      1  0.5313630000000  0.5759050000000  0.4559120000000 1.0
C      1  0.4669540000000  0.5022010000000  0.5868280000000 1.0
C      1  0.4680520000000  0.4244980000000  0.4584790000000 1.0
C      1  0.4661750000000  0.5778810000000  0.4553410000000 1.0
C      1  0.5351950000000  0.4989050000000  0.4112810000000 1.0
C      1  0.5340240000000  0.4243690000000  0.5415300000000 1.0
C      1  0.5326650000000  0.5733460000000  0.5437940000000 1.0
C      1  0.4693870000000  0.4998780000000  0.4125770000000 1.0
C      1  0.4672350000000  0.4248270000000  0.5478710000000 1.0
C      1  0.4665950000000  0.5794730000000  0.5416380000000 1.0
C      1  0.4683510000000  0.5304180000000  0.4864880000000 1.0
C      1  0.4718610000000  0.4978910000000  0.5332920000000 1.0
C      1  0.4740120000000  0.4735990000000  0.4825090000000 1.0
C      1  0.5256830000000  0.5214660000000  0.4802890000000 1.0
C      1  0.5292530000000  0.5047800000000  0.5305730000000 1.0
C      1  0.5306340000000  0.4701870000000  0.4896370000000 1.0
C      1  0.4699280000000  0.5239400000000  0.5198560000000 1.0
C      1  0.4747570000000  0.5054920000000  0.4717430000000 1.0
C      1  0.4721950000000  0.4718200000000  0.5115280000000 1.0
C      1  0.5266990000000  0.5284910000000  0.5134020000000 1.0
C      1  0.5324200000000  0.4956340000000  0.4670970000000 1.0
C      1  0.5294160000000  0.4727860000000  0.5190310000000 1.0
C      1  0.5867450000000  0.5223050000000  0.5181570000000 1.0
C      1  0.5892340000000  0.4721100000000  0.5101480000000 1.0
C      1  0.5898830000000  0.5046700000000  0.4711630000000 1.0
C      1  0.4112840000000  0.5238010000000  0.5175440000000 1.0
C      1  0.4137420000000  0.4740990000000  0.5115540000000 1.0
C      1  0.4146660000000  0.5036130000000  0.4711720000000 1.0
C      1  0.5839370000000  0.5267720000000  0.4880720000000 1.0
C      1  0.5879600000000  0.4760300000000  0.4821020000000 1.0
C      1  0.5852950000000  0.4958520000000  0.5287020000000 1.0
C      1  0.4134010000000  0.5268870000000  0.4872970000000 1.0
C      1  0.4167560000000  0.4760230000000  0.4833290000000 1.0
C      1  0.4143530000000  0.4985040000000  0.5298950000000 1.0
C      1  0.4400230000000  0.4928590000000  0.4556010000000 1.0
C      1  0.4337290000000  0.5455290000000  0.5161050000000 1.0
C      1  0.4365190000000  0.4654590000000  0.5311340000000 1.0
C      1  0.5676200000000  0.4931020000000  0.4524730000000 1.0
C      1  0.5621380000000  0.5421150000000  0.5176280000000 1.0
C      1  0.5649390000000  0.4615700000000  0.5274940000000 1.0
C      1  0.4375560000000  0.4940800000000  0.5496630000000 1.0
C      1  0.4346350000000  0.5478780000000  0.4821550000000 1.0
C      1  0.4400170000000  0.4617640000000  0.4697180000000 1.0
C      1  0.5624020000000  0.4892350000000  0.5472630000000 1.0
C      1  0.5586660000000  0.5437160000000  0.4837060000000 1.0
C      1  0.5653180000000  0.4623880000000  0.4669940000000 1.0
C      1  0.5152560000000  0.4436200000000  0.4316980000000 1.0
C      1  0.5152840000000  0.5855050000000  0.4845190000000 1.0
C      1  0.5152890000000  0.4685580000000  0.5832370000000 1.0
C      1  0.4814080000000  0.4389850000000  0.4319770000000 1.0
C      1  0.4819020000000  0.5912730000000  0.4802910000000 1.0
C      1  0.4817240000000  0.4721860000000  0.5885100000000 1.0
C      1  0.5191660000000  0.4378310000000  0.5686420000000 1.0
C      1  0.5189980000000  0.5893270000000  0.5183390000000 1.0
C      1  0.5187510000000  0.4709400000000  0.4115010000000 1.0
C      1  0.4856080000000  0.4442760000000  0.5691000000000 1.0
C      1  0.4851430000000  0.5873610000000  0.5140730000000 1.0
C      1  0.4853020000000  0.4701720000000  0.4183710000000 1.0
C      1  0.5031040000000  0.4885270000000  0.4808130000000 1.0
C      1  0.5006710000000  0.4885740000000  0.5205770000000 1.0
C      1  0.4975710000000  0.5223550000000  0.4998270000000 1.0
END
