TITL C-2782234-8014-931 0.00205658359384524 125000 -645.438238105364 0 0 110 (C1) n - 1
REM
REM in /home/nfs/bkarasulu/CARBON/AIRSS/Generating-Clusters/REBO/Higher-Symm/SD-CG/HFTN-CG
REM
REM
REM
REM
REM
REM ./C.cell (12c818d87b63d06a65506943cc24bca4)
REM
REM compiler GCC version 9.2.1 20190827 (Red Hat 9.2.1-1)
REM options -cpp -mtune=generic -march=x86-64 -g -O0 -fpre-include=/usr/include/finclude/math-vector-fortran.h
REM seed 2077473818 716705805 -2094651984 523123832 -553870595 27225474 -422750790 251557163 1802698982 -1891607508 1422796880 1107251687 729052080 -1687685845 1227788354 1059741211 1059853581 -276619887 1575295187 -1497956 1231753306 2141158321 516209834 -967693981 -323447097 914026102 628687859 -682999333 -1264820099 1780331317 166621263 -760667082 -81351148
REM
CELL 1.54180   50.00000   50.00000   50.00000   90.00000   90.00000   90.00000
LATT -1
SFAC C  
C      1  0.4746210000000  0.3978040000000  0.5726000000000 1.0
C      1  0.4405840000000  0.4881520000000  0.5464250000000 1.0
C      1  0.5685840000000  0.4828190000000  0.5290580000000 1.0
C      1  0.5174590000000  0.4611150000000  0.4257940000000 1.0
C      1  0.5514590000000  0.5146970000000  0.4425260000000 1.0
C      1  0.5067710000000  0.5072360000000  0.5980600000000 1.0
C      1  0.5236470000000  0.5934570000000  0.4666820000000 1.0
C      1  0.5317960000000  0.5062980000000  0.5864810000000 1.0
C      1  0.5510470000000  0.4788900000000  0.4832390000000 1.0
C      1  0.5962610000000  0.4985930000000  0.5238980000000 1.0
C      1  0.4170310000000  0.4661380000000  0.4858730000000 1.0
C      1  0.5316860000000  0.4575990000000  0.4716400000000 1.0
C      1  0.4754180000000  0.4971740000000  0.6056370000000 1.0
C      1  0.4559810000000  0.4861950000000  0.4727840000000 1.0
C      1  0.4505850000000  0.5362510000000  0.4809310000000 1.0
C      1  0.5271290000000  0.5303160000000  0.3974080000000 1.0
C      1  0.4150550000000  0.5183870000000  0.4783160000000 1.0
C      1  0.5609260000000  0.4025790000000  0.4992470000000 1.0
C      1  0.4148990000000  0.5321470000000  0.5258980000000 1.0
C      1  0.5723520000000  0.4448570000000  0.5171400000000 1.0
C      1  0.4417870000000  0.4354750000000  0.4770190000000 1.0
C      1  0.4655950000000  0.3919820000000  0.4914160000000 1.0
C      1  0.4738920000000  0.5845390000000  0.4790850000000 1.0
C      1  0.5474740000000  0.4760840000000  0.5124860000000 1.0
C      1  0.4509090000000  0.4863020000000  0.4452490000000 1.0
C      1  0.5517470000000  0.4875360000000  0.4505260000000 1.0
C      1  0.4627620000000  0.4447630000000  0.5489860000000 1.0
C      1  0.5923980000000  0.5243580000000  0.5073150000000 1.0
C      1  0.4802500000000  0.4901560000000  0.5442230000000 1.0
C      1  0.4209310000000  0.4875340000000  0.4384050000000 1.0
C      1  0.4400280000000  0.5548670000000  0.5298690000000 1.0
C      1  0.5524690000000  0.4376920000000  0.4534580000000 1.0
C      1  0.5190170000000  0.4653900000000  0.5655440000000 1.0
C      1  0.4799600000000  0.5316230000000  0.5178550000000 1.0
C      1  0.4970690000000  0.4816700000000  0.4272190000000 1.0
C      1  0.4622440000000  0.5403230000000  0.4343430000000 1.0
C      1  0.4512150000000  0.4671230000000  0.5623990000000 1.0
C      1  0.5478970000000  0.5330110000000  0.5852060000000 1.0
C      1  0.5822340000000  0.4736920000000  0.4734940000000 1.0
C      1  0.5279820000000  0.5678880000000  0.4969320000000 1.0
C      1  0.4966670000000  0.5857370000000  0.4538580000000 1.0
C      1  0.5043030000000  0.5069590000000  0.4375740000000 1.0
C      1  0.5262300000000  0.5698560000000  0.4196140000000 1.0
C      1  0.4770550000000  0.5580710000000  0.4196900000000 1.0
C      1  0.4927070000000  0.5083340000000  0.5109160000000 1.0
C      1  0.5347800000000  0.5281310000000  0.5531330000000 1.0
C      1  0.3958830000000  0.5135580000000  0.5130130000000 1.0
C      1  0.5751130000000  0.5591240000000  0.5353850000000 1.0
C      1  0.4429240000000  0.4518230000000  0.5015380000000 1.0
C      1  0.4829630000000  0.5271030000000  0.5913480000000 1.0
C      1  0.4800280000000  0.4811160000000  0.5138940000000 1.0
C      1  0.5065250000000  0.4353400000000  0.4341290000000 1.0
C      1  0.5948680000000  0.4646130000000  0.5250320000000 1.0
C      1  0.5196150000000  0.4742960000000  0.5238890000000 1.0
C      1  0.4917370000000  0.4710460000000  0.5612320000000 1.0
C      1  0.4674760000000  0.5303850000000  0.4602940000000 1.0
C      1  0.5262150000000  0.5557010000000  0.5718640000000 1.0
C      1  0.5231890000000  0.4228540000000  0.4539290000000 1.0
C      1  0.4805420000000  0.4390960000000  0.4682650000000 1.0
C      1  0.5495010000000  0.5710450000000  0.4349380000000 1.0
C      1  0.4712990000000  0.4500150000000  0.5200130000000 1.0
C      1  0.4995160000000  0.5663580000000  0.5684070000000 1.0
C      1  0.5362600000000  0.5131780000000  0.5029930000000 1.0
C      1  0.5054310000000  0.4506380000000  0.5167280000000 1.0
C      1  0.4678690000000  0.4964530000000  0.6324480000000 1.0
C      1  0.4465600000000  0.4466960000000  0.4486760000000 1.0
C      1  0.4699200000000  0.4695390000000  0.4303020000000 1.0
C      1  0.4005480000000  0.4909100000000  0.4924650000000 1.0
C      1  0.5314380000000  0.5049730000000  0.5344400000000 1.0
C      1  0.4991510000000  0.5733130000000  0.4285170000000 1.0
C      1  0.5341810000000  0.4895860000000  0.5637780000000 1.0
C      1  0.4229510000000  0.5489850000000  0.4726950000000 1.0
C      1  0.5293910000000  0.4410590000000  0.5713310000000 1.0
C      1  0.5818830000000  0.4484320000000  0.4617650000000 1.0
C      1  0.5588040000000  0.5602310000000  0.4885720000000 1.0
C      1  0.4688530000000  0.4206440000000  0.5611150000000 1.0
C      1  0.5447120000000  0.4645090000000  0.4346150000000 1.0
C      1  0.5065870000000  0.4573960000000  0.4747360000000 1.0
C      1  0.5783720000000  0.5495350000000  0.5100260000000 1.0
C      1  0.5229030000000  0.4313540000000  0.5033930000000 1.0
C      1  0.4412830000000  0.5744780000000  0.4772710000000 1.0
C      1  0.5579210000000  0.5527020000000  0.5587930000000 1.0
C      1  0.4618580000000  0.4760890000000  0.5873000000000 1.0
C      1  0.5113800000000  0.5120330000000  0.4905210000000 1.0
C      1  0.4339480000000  0.5042040000000  0.5205910000000 1.0
C      1  0.5560350000000  0.5389970000000  0.4640490000000 1.0
C      1  0.5073190000000  0.5494840000000  0.4772540000000 1.0
C      1  0.5265580000000  0.5241390000000  0.4239810000000 1.0
C      1  0.5264940000000  0.5430780000000  0.4517780000000 1.0
C      1  0.4982570000000  0.5856310000000  0.5493510000000 1.0
C      1  0.4593560000000  0.5410730000000  0.5528720000000 1.0
C      1  0.5119250000000  0.4173540000000  0.4800400000000 1.0
C      1  0.4823530000000  0.4108550000000  0.4814600000000 1.0
C      1  0.5518720000000  0.4273160000000  0.5074860000000 1.0
C      1  0.4769360000000  0.4684540000000  0.4850980000000 1.0
C      1  0.5037690000000  0.5930850000000  0.4921580000000 1.0
C      1  0.5470410000000  0.5785050000000  0.4623730000000 1.0
C      1  0.4782720000000  0.5480820000000  0.5732580000000 1.0
C      1  0.4513340000000  0.5305620000000  0.5107960000000 1.0
C      1  0.4583400000000  0.5695240000000  0.5056640000000 1.0
C      1  0.4494080000000  0.3737520000000  0.5010330000000 1.0
C      1  0.4752660000000  0.4381760000000  0.4365980000000 1.0
C      1  0.5080800000000  0.5797950000000  0.5219190000000 1.0
C      1  0.4961340000000  0.5202450000000  0.4635920000000 1.0
C      1  0.5839990000000  0.5012410000000  0.4860030000000 1.0
C      1  0.5585160000000  0.5179110000000  0.4873430000000 1.0
C      1  0.4391440000000  0.4991740000000  0.4894570000000 1.0
C      1  0.4599980000000  0.5129490000000  0.5495180000000 1.0
C      1  0.4902610000000  0.5577770000000  0.5047050000000 1.0
C      1  0.4208470000000  0.4626290000000  0.4565220000000 1.0
END
