TITL C-2782229-3092-596 -0.00521726436191767 125000 -988.288536209753 0 0 166 (C1) n - 1
REM
REM in /home/nfs/bkarasulu/CARBON/AIRSS/Generating-Clusters/REBO/Higher-Symm/SD-CG/HFTN-CG
REM
REM
REM
REM
REM
REM ./C.cell (12c818d87b63d06a65506943cc24bca4)
REM
REM compiler GCC version 9.2.1 20190827 (Red Hat 9.2.1-1)
REM options -cpp -mtune=generic -march=x86-64 -g -O0 -fpre-include=/usr/include/finclude/math-vector-fortran.h
REM seed -715027777 403171451 1078698531 -1547057469 1902890549 -677132973 -1466354474 -95604982 -235973398 -1532982280 -378015429 -1959782540 1529485855 -728156771 407038314 1850108905 303061376 -2033823500 1208118272 -35256831 793030519 -1119886576 208648669 -699428978 1074546693 -215103164 -20724617 1313925654 1096391304 -324508652 1892849972 -62501207 -50035022
REM
CELL 1.54180   50.00000   50.00000   50.00000   90.00000   90.00000   90.00000
LATT -1
SFAC C  
C      1  0.5255830000000  0.5936900000000  0.4623230000000 1.0
C      1  0.5250670000000  0.5969940000000  0.5175520000000 1.0
C      1  0.5274620000000  0.5734000000000  0.5661510000000 1.0
C      1  0.5270050000000  0.5214240000000  0.5931250000000 1.0
C      1  0.5334700000000  0.4669500000000  0.5916610000000 1.0
C      1  0.5417910000000  0.4257070000000  0.5594180000000 1.0
C      1  0.5297590000000  0.3951660000000  0.5089070000000 1.0
C      1  0.5220700000000  0.4036850000000  0.4553920000000 1.0
C      1  0.5221900000000  0.4503000000000  0.4164020000000 1.0
C      1  0.5223960000000  0.4959610000000  0.3976360000000 1.0
C      1  0.5249640000000  0.5568590000000  0.4197590000000 1.0
C      1  0.6116480000000  0.5273690000000  0.4794010000000 1.0
C      1  0.6226970000000  0.5366850000000  0.5036040000000 1.0
C      1  0.6069570000000  0.5420070000000  0.5264190000000 1.0
C      1  0.5962540000000  0.5339780000000  0.5548600000000 1.0
C      1  0.5885940000000  0.5067470000000  0.5646310000000 1.0
C      1  0.6016490000000  0.4805180000000  0.5533290000000 1.0
C      1  0.6203880000000  0.4659950000000  0.5382180000000 1.0
C      1  0.6141100000000  0.4539260000000  0.5135650000000 1.0
C      1  0.6148430000000  0.4539560000000  0.4818040000000 1.0
C      1  0.6091940000000  0.4753750000000  0.4605410000000 1.0
C      1  0.6046040000000  0.5044050000000  0.4591220000000 1.0
C      1  0.5363050000000  0.4599800000000  0.5186980000000 1.0
C      1  0.5292080000000  0.4566570000000  0.4918160000000 1.0
C      1  0.5226740000000  0.4708280000000  0.4686320000000 1.0
C      1  0.5431990000000  0.4841200000000  0.4555780000000 1.0
C      1  0.5399640000000  0.5134210000000  0.4513310000000 1.0
C      1  0.5245030000000  0.5279290000000  0.4691120000000 1.0
C      1  0.5362030000000  0.5356720000000  0.4939050000000 1.0
C      1  0.5204610000000  0.5359040000000  0.5174110000000 1.0
C      1  0.5320320000000  0.5270790000000  0.5414170000000 1.0
C      1  0.5239470000000  0.4969050000000  0.5503500000000 1.0
C      1  0.5168580000000  0.4711860000000  0.5359650000000 1.0
C      1  0.4488210000000  0.6026320000000  0.4824880000000 1.0
C      1  0.4373190000000  0.5779270000000  0.5289340000000 1.0
C      1  0.4605790000000  0.5462930000000  0.5715550000000 1.0
C      1  0.4497310000000  0.4984200000000  0.5932780000000 1.0
C      1  0.4267200000000  0.4526710000000  0.5749660000000 1.0
C      1  0.4339430000000  0.4193180000000  0.5339790000000 1.0
C      1  0.4420830000000  0.4077550000000  0.4830790000000 1.0
C      1  0.4465450000000  0.4270530000000  0.4322870000000 1.0
C      1  0.4444990000000  0.4745700000000  0.4066050000000 1.0
C      1  0.4376650000000  0.5258030000000  0.4088990000000 1.0
C      1  0.4473410000000  0.5763950000000  0.4354210000000 1.0
C      1  0.4101290000000  0.5013830000000  0.5598540000000 1.0
C      1  0.4105980000000  0.4732960000000  0.5447440000000 1.0
C      1  0.4131680000000  0.4554610000000  0.5239630000000 1.0
C      1  0.4087540000000  0.4491270000000  0.4952190000000 1.0
C      1  0.4097760000000  0.4695730000000  0.4688180000000 1.0
C      1  0.3862920000000  0.4877170000000  0.4660060000000 1.0
C      1  0.3776840000000  0.5103490000000  0.4709440000000 1.0
C      1  0.3935450000000  0.5370280000000  0.4765860000000 1.0
C      1  0.3998540000000  0.5474420000000  0.5063890000000 1.0
C      1  0.3964490000000  0.5456510000000  0.5338770000000 1.0
C      1  0.4113610000000  0.5299880000000  0.5515620000000 1.0
C      1  0.5083130000000  0.4259720000000  0.4354840000000 1.0
C      1  0.5069930000000  0.4720250000000  0.4001310000000 1.0
C      1  0.5065340000000  0.5434200000000  0.4039030000000 1.0
C      1  0.5108800000000  0.5783000000000  0.4375030000000 1.0
C      1  0.5072100000000  0.5989200000000  0.4897770000000 1.0
C      1  0.5103310000000  0.5837430000000  0.5429150000000 1.0
C      1  0.5132600000000  0.5512230000000  0.5840330000000 1.0
C      1  0.5118570000000  0.4918140000000  0.5919790000000 1.0
C      1  0.5225030000000  0.4392320000000  0.5817320000000 1.0
C      1  0.5226360000000  0.4079700000000  0.5396630000000 1.0
C      1  0.5070420000000  0.3973740000000  0.4854350000000 1.0
C      1  0.4789600000000  0.6173490000000  0.4830630000000 1.0
C      1  0.4822660000000  0.6023350000000  0.5419260000000 1.0
C      1  0.4821630000000  0.5621870000000  0.5933560000000 1.0
C      1  0.4802420000000  0.4968390000000  0.6041350000000 1.0
C      1  0.4896580000000  0.4385070000000  0.5843170000000 1.0
C      1  0.4614120000000  0.4136270000000  0.5383990000000 1.0
C      1  0.4724050000000  0.3984840000000  0.4880840000000 1.0
C      1  0.4766600000000  0.4178960000000  0.4255000000000 1.0
C      1  0.4740500000000  0.4779250000000  0.3937390000000 1.0
C      1  0.4621100000000  0.5311400000000  0.3897300000000 1.0
C      1  0.4783400000000  0.5802240000000  0.4272160000000 1.0
C      1  0.5718750000000  0.5115710000000  0.4529220000000 1.0
C      1  0.5816050000000  0.5322120000000  0.4752990000000 1.0
C      1  0.5645070000000  0.5388970000000  0.4964650000000 1.0
C      1  0.5766270000000  0.5421830000000  0.5215150000000 1.0
C      1  0.5624430000000  0.5319690000000  0.5482880000000 1.0
C      1  0.5554320000000  0.5000900000000  0.5584380000000 1.0
C      1  0.5723590000000  0.4757860000000  0.5462530000000 1.0
C      1  0.5639110000000  0.4601470000000  0.5249090000000 1.0
C      1  0.5837740000000  0.4515300000000  0.5065170000000 1.0
C      1  0.5813190000000  0.4522890000000  0.4760440000000 1.0
C      1  0.5749480000000  0.4776850000000  0.4567700000000 1.0
C      1  0.4910760000000  0.5416530000000  0.5178740000000 1.0
C      1  0.4724390000000  0.5180100000000  0.5278760000000 1.0
C      1  0.4936440000000  0.5114160000000  0.5490660000000 1.0
C      1  0.4898130000000  0.4661170000000  0.5326310000000 1.0
C      1  0.4776740000000  0.4543630000000  0.5072800000000 1.0
C      1  0.4905330000000  0.4516230000000  0.4832000000000 1.0
C      1  0.4920230000000  0.4723860000000  0.4603500000000 1.0
C      1  0.4691430000000  0.4925050000000  0.4654380000000 1.0
C      1  0.4751740000000  0.5184840000000  0.4508540000000 1.0
C      1  0.4958940000000  0.5346420000000  0.4652150000000 1.0
C      1  0.4832650000000  0.5513080000000  0.4908950000000 1.0
C      1  0.4463080000000  0.5325910000000  0.5120860000000 1.0
C      1  0.4411550000000  0.5186070000000  0.5417230000000 1.0
C      1  0.4398520000000  0.4874360000000  0.5510160000000 1.0
C      1  0.4593910000000  0.4699800000000  0.5378030000000 1.0
C      1  0.4448860000000  0.4540450000000  0.5113490000000 1.0
C      1  0.4378530000000  0.4527680000000  0.4789240000000 1.0
C      1  0.4415940000000  0.4800840000000  0.4609480000000 1.0
C      1  0.4226090000000  0.4968860000000  0.4425920000000 1.0
C      1  0.4119360000000  0.5201870000000  0.4529070000000 1.0
C      1  0.4276010000000  0.5436990000000  0.4660790000000 1.0
C      1  0.4278960000000  0.5440850000000  0.4957140000000 1.0
C      1  0.5513720000000  0.4378070000000  0.4271820000000 1.0
C      1  0.5476520000000  0.4951310000000  0.4108430000000 1.0
C      1  0.5514580000000  0.5476230000000  0.4234790000000 1.0
C      1  0.5578140000000  0.5863490000000  0.4533860000000 1.0
C      1  0.5542820000000  0.6043850000000  0.5040040000000 1.0
C      1  0.5563650000000  0.5880810000000  0.5585450000000 1.0
C      1  0.5566870000000  0.5381450000000  0.5884970000000 1.0
C      1  0.5607310000000  0.4838490000000  0.6026560000000 1.0
C      1  0.5703780000000  0.4404150000000  0.5647070000000 1.0
C      1  0.5615290000000  0.4066500000000  0.5167770000000 1.0
C      1  0.5533190000000  0.3932980000000  0.4639770000000 1.0
C      1  0.5061350000000  0.5178530000000  0.3914360000000 1.0
C      1  0.4640610000000  0.5297980000000  0.4294790000000 1.0
C      1  0.4921090000000  0.5663740000000  0.4619100000000 1.0
C      1  0.4792750000000  0.5808780000000  0.4965790000000 1.0
C      1  0.4847270000000  0.5627440000000  0.5387620000000 1.0
C      1  0.4912840000000  0.5344220000000  0.5666540000000 1.0
C      1  0.4892290000000  0.4865280000000  0.5669440000000 1.0
C      1  0.5052930000000  0.4129450000000  0.5675260000000 1.0
C      1  0.5028460000000  0.4225050000000  0.5190250000000 1.0
C      1  0.4969160000000  0.4269190000000  0.4751420000000 1.0
C      1  0.4883220000000  0.4535750000000  0.4373930000000 1.0
C      1  0.4369040000000  0.4168420000000  0.4568060000000 1.0
C      1  0.4377560000000  0.4494120000000  0.4176730000000 1.0
C      1  0.4306970000000  0.4973290000000  0.4157740000000 1.0
C      1  0.4339390000000  0.5554660000000  0.4239770000000 1.0
C      1  0.4405890000000  0.5917460000000  0.4579180000000 1.0
C      1  0.4380170000000  0.5932280000000  0.5066280000000 1.0
C      1  0.4521600000000  0.5632560000000  0.5456090000000 1.0
C      1  0.4433500000000  0.5231860000000  0.5832480000000 1.0
C      1  0.4361200000000  0.4741890000000  0.5885210000000 1.0
C      1  0.4226700000000  0.4335710000000  0.5559760000000 1.0
C      1  0.4270390000000  0.4139340000000  0.5066790000000 1.0
C      1  0.4812490000000  0.4059250000000  0.4561030000000 1.0
C      1  0.4767360000000  0.4482020000000  0.4090600000000 1.0
C      1  0.4795150000000  0.5089200000000  0.3850910000000 1.0
C      1  0.4774420000000  0.5535800000000  0.4103090000000 1.0
C      1  0.4815470000000  0.5972950000000  0.4566570000000 1.0
C      1  0.4747270000000  0.6064740000000  0.5153610000000 1.0
C      1  0.4792400000000  0.5813160000000  0.5673400000000 1.0
C      1  0.4833850000000  0.5285400000000  0.5992050000000 1.0
C      1  0.4815710000000  0.4658170000000  0.5901850000000 1.0
C      1  0.4731480000000  0.4178220000000  0.5631970000000 1.0
C      1  0.4781990000000  0.4116940000000  0.5158700000000 1.0
C      1  0.5662840000000  0.4216560000000  0.5383030000000 1.0
C      1  0.5571040000000  0.3895240000000  0.4908440000000 1.0
C      1  0.5511880000000  0.4152350000000  0.4416430000000 1.0
C      1  0.5513180000000  0.4685910000000  0.4197110000000 1.0
C      1  0.5581840000000  0.5208420000000  0.4165260000000 1.0
C      1  0.5674500000000  0.5657150000000  0.4380690000000 1.0
C      1  0.5538770000000  0.6055900000000  0.4772130000000 1.0
C      1  0.5545660000000  0.6018840000000  0.5349440000000 1.0
C      1  0.5568850000000  0.5610630000000  0.5751700000000 1.0
C      1  0.5572920000000  0.5109100000000  0.6037770000000 1.0
C      1  0.5661750000000  0.4605240000000  0.5826790000000 1.0
C      1  0.4710630000000  0.4971730000000  0.4959760000000 1.0
END
