TITL C-2782230-7391-1226 0.00204741928241395 125000 -1107.68947796782 0 0 192 (C1) n - 1
REM
REM in /home/nfs/bkarasulu/CARBON/AIRSS/Generating-Clusters/REBO/Higher-Symm/SD-CG/HFTN-CG
REM
REM
REM
REM
REM
REM ./C.cell (12c818d87b63d06a65506943cc24bca4)
REM
REM compiler GCC version 9.2.1 20190827 (Red Hat 9.2.1-1)
REM options -cpp -mtune=generic -march=x86-64 -g -O0 -fpre-include=/usr/include/finclude/math-vector-fortran.h
REM seed -1410997046 1675921064 615580017 -2025148188 -599178224 -141401767 -683865733 2062142043 1688998284 593160881 -817397779 -943642282 -1059225306 1441948171 -1280061542 -656712032 1391189278 -1317049368 1552063285 919515626 -1752769189 1947900286 -1140984941 15560762 -759100828 610346441 1661222604 -966189272 -1830055460 919665253 -1778568940 -264796451 2107035049
REM
CELL 1.54180   50.00000   50.00000   50.00000   90.00000   90.00000   90.00000
LATT -1
SFAC C  
C      1  0.5594350000000  0.4398160000000  0.5645100000000 1.0
C      1  0.5988100000000  0.4656570000000  0.5264940000000 1.0
C      1  0.4857940000000  0.5476840000000  0.3970770000000 1.0
C      1  0.5433980000000  0.5776930000000  0.5298470000000 1.0
C      1  0.4528060000000  0.5519090000000  0.5145140000000 1.0
C      1  0.4399530000000  0.4297470000000  0.4491860000000 1.0
C      1  0.5866680000000  0.5080330000000  0.5000630000000 1.0
C      1  0.4488620000000  0.4602030000000  0.4246400000000 1.0
C      1  0.4972100000000  0.3885070000000  0.5295790000000 1.0
C      1  0.4521090000000  0.5496650000000  0.4423290000000 1.0
C      1  0.4355090000000  0.5231500000000  0.5083540000000 1.0
C      1  0.4675080000000  0.4459400000000  0.5293580000000 1.0
C      1  0.5038650000000  0.4267280000000  0.5686890000000 1.0
C      1  0.5602790000000  0.5217830000000  0.4231170000000 1.0
C      1  0.4554870000000  0.5303670000000  0.5417330000000 1.0
C      1  0.4612990000000  0.4359680000000  0.4162070000000 1.0
C      1  0.5714910000000  0.5508820000000  0.4541460000000 1.0
C      1  0.4178640000000  0.5094770000000  0.4699250000000 1.0
C      1  0.5793700000000  0.4750230000000  0.5005790000000 1.0
C      1  0.5206830000000  0.4562050000000  0.5124600000000 1.0
C      1  0.4200950000000  0.4408550000000  0.5009710000000 1.0
C      1  0.4049520000000  0.5408170000000  0.4488510000000 1.0
C      1  0.4661830000000  0.4572170000000  0.4977080000000 1.0
C      1  0.5116000000000  0.5962290000000  0.5142180000000 1.0
C      1  0.5500990000000  0.4467540000000  0.4803640000000 1.0
C      1  0.5124830000000  0.4041020000000  0.5461330000000 1.0
C      1  0.4791050000000  0.4444750000000  0.5811190000000 1.0
C      1  0.4621270000000  0.4619480000000  0.5787420000000 1.0
C      1  0.5586480000000  0.5921570000000  0.4823570000000 1.0
C      1  0.5283220000000  0.4005880000000  0.4933150000000 1.0
C      1  0.4925830000000  0.6150670000000  0.4845530000000 1.0
C      1  0.4821960000000  0.5642090000000  0.5273090000000 1.0
C      1  0.4803010000000  0.4217100000000  0.5089420000000 1.0
C      1  0.5127200000000  0.4853600000000  0.4254110000000 1.0
C      1  0.4572430000000  0.6076150000000  0.5252390000000 1.0
C      1  0.5048410000000  0.4587570000000  0.4639910000000 1.0
C      1  0.4632190000000  0.5421030000000  0.5790980000000 1.0
C      1  0.4680010000000  0.3871680000000  0.4591160000000 1.0
C      1  0.4461140000000  0.5095730000000  0.4808640000000 1.0
C      1  0.5074940000000  0.5248430000000  0.4274540000000 1.0
C      1  0.4740480000000  0.5191690000000  0.4551170000000 1.0
C      1  0.4142910000000  0.5251450000000  0.5553680000000 1.0
C      1  0.5292680000000  0.5884950000000  0.5897720000000 1.0
C      1  0.5157460000000  0.6058890000000  0.4680640000000 1.0
C      1  0.5772980000000  0.4465720000000  0.4348450000000 1.0
C      1  0.5489830000000  0.4799720000000  0.6028800000000 1.0
C      1  0.4998430000000  0.5287750000000  0.5495660000000 1.0
C      1  0.4180580000000  0.5706890000000  0.5276170000000 1.0
C      1  0.5149090000000  0.5589170000000  0.5281860000000 1.0
C      1  0.5194860000000  0.4228610000000  0.4265000000000 1.0
C      1  0.5183830000000  0.5134520000000  0.5253060000000 1.0
C      1  0.5626880000000  0.5466860000000  0.4877830000000 1.0
C      1  0.5471760000000  0.5691020000000  0.4388270000000 1.0
C      1  0.5283090000000  0.5915570000000  0.4397480000000 1.0
C      1  0.3959910000000  0.5286380000000  0.5060140000000 1.0
C      1  0.5701240000000  0.4699710000000  0.5700070000000 1.0
C      1  0.4433260000000  0.5141160000000  0.4076160000000 1.0
C      1  0.5356680000000  0.5426770000000  0.4221290000000 1.0
C      1  0.4949930000000  0.4672790000000  0.4934950000000 1.0
C      1  0.5274360000000  0.4496770000000  0.4151890000000 1.0
C      1  0.5723040000000  0.4735550000000  0.4135330000000 1.0
C      1  0.5283510000000  0.5768220000000  0.4765790000000 1.0
C      1  0.5102410000000  0.5691100000000  0.5953340000000 1.0
C      1  0.5161420000000  0.5572420000000  0.6430020000000 1.0
C      1  0.3900560000000  0.5010050000000  0.5081230000000 1.0
C      1  0.4472620000000  0.5715430000000  0.4885200000000 1.0
C      1  0.4715150000000  0.4991180000000  0.4315060000000 1.0
C      1  0.5346880000000  0.4194490000000  0.4504900000000 1.0
C      1  0.4787610000000  0.3860720000000  0.4852960000000 1.0
C      1  0.4816230000000  0.5864600000000  0.4369880000000 1.0
C      1  0.5847480000000  0.4927040000000  0.5627790000000 1.0
C      1  0.5979590000000  0.4813920000000  0.4726370000000 1.0
C      1  0.4973630000000  0.5051060000000  0.6049650000000 1.0
C      1  0.6033540000000  0.5138100000000  0.5244480000000 1.0
C      1  0.5636380000000  0.4217320000000  0.4523180000000 1.0
C      1  0.5373220000000  0.5871600000000  0.5596140000000 1.0
C      1  0.4038590000000  0.4732560000000  0.4340030000000 1.0
C      1  0.5922740000000  0.5585950000000  0.4983580000000 1.0
C      1  0.5061920000000  0.5844750000000  0.4223380000000 1.0
C      1  0.4622060000000  0.5457310000000  0.4738470000000 1.0
C      1  0.5029670000000  0.3864600000000  0.5013170000000 1.0
C      1  0.4038670000000  0.4198820000000  0.4821110000000 1.0
C      1  0.4675280000000  0.4470570000000  0.4571700000000 1.0
C      1  0.4241200000000  0.4657450000000  0.6068040000000 1.0
C      1  0.5488600000000  0.4636910000000  0.4345920000000 1.0
C      1  0.4978640000000  0.4886280000000  0.5168040000000 1.0
C      1  0.4780640000000  0.4722710000000  0.3879140000000 1.0
C      1  0.5314120000000  0.4394400000000  0.5781170000000 1.0
C      1  0.4780910000000  0.6191970000000  0.5118900000000 1.0
C      1  0.5938940000000  0.4731010000000  0.4461820000000 1.0
C      1  0.4987510000000  0.4628790000000  0.4040500000000 1.0
C      1  0.4638330000000  0.5967350000000  0.4824670000000 1.0
C      1  0.4639100000000  0.5660670000000  0.3978890000000 1.0
C      1  0.5579860000000  0.4159000000000  0.5273150000000 1.0
C      1  0.4042590000000  0.4812320000000  0.4963390000000 1.0
C      1  0.4050480000000  0.4430370000000  0.5627860000000 1.0
C      1  0.4164420000000  0.4461790000000  0.4418800000000 1.0
C      1  0.4940080000000  0.5749760000000  0.4968950000000 1.0
C      1  0.4489160000000  0.4740920000000  0.6154250000000 1.0
C      1  0.5633130000000  0.5017980000000  0.4757460000000 1.0
C      1  0.5326850000000  0.4248450000000  0.5391260000000 1.0
C      1  0.5059870000000  0.5060990000000  0.3992930000000 1.0
C      1  0.4871560000000  0.5420610000000  0.4947790000000 1.0
C      1  0.4025700000000  0.5356690000000  0.4787590000000 1.0
C      1  0.3952600000000  0.5263070000000  0.5735210000000 1.0
C      1  0.5696110000000  0.4441780000000  0.5023400000000 1.0
C      1  0.4472380000000  0.4062550000000  0.5566980000000 1.0
C      1  0.5835280000000  0.5767750000000  0.4722090000000 1.0
C      1  0.5021190000000  0.4738860000000  0.5951700000000 1.0
C      1  0.4781590000000  0.4795950000000  0.4586120000000 1.0
C      1  0.5447780000000  0.5214370000000  0.4964970000000 1.0
C      1  0.5349780000000  0.4787160000000  0.4004050000000 1.0
C      1  0.4865040000000  0.5471490000000  0.4422530000000 1.0
C      1  0.4472990000000  0.4022000000000  0.4486450000000 1.0
C      1  0.5147930000000  0.5511600000000  0.6161830000000 1.0
C      1  0.5221400000000  0.4352920000000  0.4744990000000 1.0
C      1  0.4412090000000  0.4639050000000  0.5345970000000 1.0
C      1  0.4224400000000  0.4182030000000  0.5532760000000 1.0
C      1  0.4765020000000  0.5180660000000  0.4032200000000 1.0
C      1  0.6009680000000  0.4137860000000  0.4828960000000 1.0
C      1  0.4401120000000  0.5847240000000  0.5437340000000 1.0
C      1  0.4165810000000  0.4629070000000  0.5794960000000 1.0
C      1  0.4613660000000  0.4285800000000  0.4826970000000 1.0
C      1  0.5595950000000  0.5009790000000  0.3987880000000 1.0
C      1  0.4928450000000  0.4512650000000  0.4350080000000 1.0
C      1  0.4392380000000  0.5073480000000  0.5571150000000 1.0
C      1  0.6028600000000  0.5121930000000  0.4722000000000 1.0
C      1  0.5869500000000  0.5008960000000  0.4276760000000 1.0
C      1  0.4642500000000  0.5987640000000  0.5631900000000 1.0
C      1  0.5287750000000  0.4613020000000  0.5988970000000 1.0
C      1  0.5352820000000  0.5274750000000  0.5742360000000 1.0
C      1  0.5941300000000  0.5260690000000  0.4481850000000 1.0
C      1  0.4384830000000  0.4762430000000  0.5625880000000 1.0
C      1  0.5870580000000  0.4336810000000  0.5299250000000 1.0
C      1  0.4562420000000  0.4837200000000  0.4058520000000 1.0
C      1  0.6036690000000  0.4900890000000  0.5413420000000 1.0
C      1  0.4352720000000  0.4689140000000  0.4886700000000 1.0
C      1  0.5830010000000  0.5733710000000  0.5267930000000 1.0
C      1  0.5454300000000  0.4785220000000  0.5057060000000 1.0
C      1  0.4191870000000  0.5785510000000  0.5006120000000 1.0
C      1  0.5653350000000  0.5966890000000  0.5154420000000 1.0
C      1  0.4765930000000  0.4215630000000  0.5487420000000 1.0
C      1  0.5610590000000  0.4551310000000  0.5340580000000 1.0
C      1  0.5098680000000  0.5593000000000  0.4076520000000 1.0
C      1  0.5511230000000  0.4731260000000  0.4647410000000 1.0
C      1  0.5524420000000  0.5233370000000  0.4558520000000 1.0
C      1  0.4809590000000  0.5248840000000  0.5213400000000 1.0
C      1  0.5741780000000  0.4128960000000  0.4778470000000 1.0
C      1  0.5097960000000  0.5166090000000  0.4914380000000 1.0
C      1  0.4884140000000  0.4204400000000  0.4220570000000 1.0
C      1  0.5216190000000  0.5245690000000  0.6056120000000 1.0
C      1  0.4738470000000  0.4819220000000  0.6120250000000 1.0
C      1  0.5469880000000  0.5253740000000  0.5278400000000 1.0
C      1  0.4341990000000  0.4124640000000  0.4896930000000 1.0
C      1  0.4292850000000  0.4963540000000  0.4324160000000 1.0
C      1  0.4842520000000  0.5816570000000  0.4647660000000 1.0
C      1  0.5369490000000  0.5606170000000  0.5022610000000 1.0
C      1  0.5544160000000  0.4873860000000  0.5373210000000 1.0
C      1  0.4177190000000  0.4432350000000  0.5310490000000 1.0
C      1  0.5141670000000  0.5566800000000  0.4576420000000 1.0
C      1  0.5553720000000  0.4061780000000  0.4996120000000 1.0
C      1  0.5353870000000  0.6060300000000  0.5028440000000 1.0
C      1  0.3993020000000  0.4910450000000  0.4579960000000 1.0
C      1  0.5259400000000  0.4886320000000  0.4797120000000 1.0
C      1  0.5176750000000  0.4549720000000  0.5440800000000 1.0
C      1  0.5316560000000  0.5053510000000  0.3798720000000 1.0
C      1  0.4304650000000  0.5304180000000  0.4338740000000 1.0
C      1  0.5299050000000  0.5533950000000  0.5584830000000 1.0
C      1  0.6003060000000  0.5437880000000  0.5275920000000 1.0
C      1  0.4974290000000  0.5581930000000  0.5665850000000 1.0
C      1  0.5650770000000  0.5152680000000  0.5536530000000 1.0
C      1  0.4982330000000  0.4751530000000  0.5633370000000 1.0
C      1  0.4693710000000  0.4955080000000  0.5280440000000 1.0
C      1  0.4888710000000  0.5876510000000  0.5589380000000 1.0
C      1  0.4567070000000  0.3962570000000  0.5053420000000 1.0
C      1  0.4590630000000  0.5741660000000  0.4247030000000 1.0
C      1  0.5112300000000  0.5009450000000  0.4517420000000 1.0
C      1  0.4794810000000  0.5024240000000  0.4824050000000 1.0
C      1  0.5086710000000  0.5062300000000  0.5726770000000 1.0
C      1  0.4668040000000  0.3923050000000  0.5345270000000 1.0
C      1  0.4710540000000  0.5183860000000  0.5783800000000 1.0
C      1  0.5377410000000  0.4722290000000  0.5616320000000 1.0
C      1  0.4144830000000  0.5402020000000  0.5290320000000 1.0
C      1  0.4373000000000  0.4718440000000  0.4548120000000 1.0
C      1  0.4600070000000  0.5606860000000  0.5527580000000 1.0
C      1  0.5484720000000  0.5065790000000  0.5978250000000 1.0
C      1  0.5701450000000  0.5457680000000  0.5419010000000 1.0
C      1  0.5105660000000  0.5966880000000  0.5424130000000 1.0
C      1  0.5243390000000  0.5291740000000  0.4631480000000 1.0
C      1  0.4415280000000  0.4903240000000  0.5151020000000 1.0
C      1  0.4734440000000  0.4944510000000  0.5584780000000 1.0
C      1  0.5087780000000  0.4260190000000  0.5020570000000 1.0
END
