TITL C-2782239-8622-141 0.355652115269403 125000 -651.280738294802 0 0 114 (C1) n - 1
REM
REM in /home/nfs/bkarasulu/CARBON/AIRSS/Generating-Clusters/REBO/Higher-Symm/SD-CG/HFTN-CG
REM
REM
REM
REM
REM
REM ./C.cell (12c818d87b63d06a65506943cc24bca4)
REM
REM compiler GCC version 9.2.1 20190827 (Red Hat 9.2.1-1)
REM options -cpp -mtune=generic -march=x86-64 -g -O0 -fpre-include=/usr/include/finclude/math-vector-fortran.h
REM seed -867525353 1566004984 1264985450 162020026 -1856835815 1351181205 -346185033 -2024364120 538949832 -184492229 -570235248 1248136640 1199246157 -229188864 -1637255335 984934481 -2100964197 -1539025036 -2074373676 -1788800222 -1278679786 -957816745 911242155 -1790756386 1614309710 -1682669543 -424532206 835507118 -1713016210 977194098 -984941543 -147306724 898901251
REM
CELL 1.54180   50.00000   50.00000   50.00000   90.00000   90.00000   90.00000
LATT -1
SFAC C  
C      1  0.4959200000000  0.4894160000000  0.5904560000000 1.0
C      1  0.5036300000000  0.5100100000000  0.4103000000000 1.0
C      1  0.5482670000000  0.5213920000000  0.4294290000000 1.0
C      1  0.4497160000000  0.4807470000000  0.5701150000000 1.0
C      1  0.4252710000000  0.4956920000000  0.5570280000000 1.0
C      1  0.5728430000000  0.5099060000000  0.4428940000000 1.0
C      1  0.4747950000000  0.4286020000000  0.4953450000000 1.0
C      1  0.5240040000000  0.5714490000000  0.5049430000000 1.0
C      1  0.4787220000000  0.5506720000000  0.4248900000000 1.0
C      1  0.5197510000000  0.4487390000000  0.5746940000000 1.0
C      1  0.5265480000000  0.4101690000000  0.4991480000000 1.0
C      1  0.4718060000000  0.5881680000000  0.5003610000000 1.0
C      1  0.5302900000000  0.5692310000000  0.4513550000000 1.0
C      1  0.4674500000000  0.4317390000000  0.5484400000000 1.0
C      1  0.4297050000000  0.5595350000000  0.4765970000000 1.0
C      1  0.5693660000000  0.4377440000000  0.5218530000000 1.0
C      1  0.4518210000000  0.4970010000000  0.5120140000000 1.0
C      1  0.5473210000000  0.5027510000000  0.4883680000000 1.0
C      1  0.5494120000000  0.4251560000000  0.5028470000000 1.0
C      1  0.4491880000000  0.5730520000000  0.4956630000000 1.0
C      1  0.4798080000000  0.5550460000000  0.4733260000000 1.0
C      1  0.5190200000000  0.4449590000000  0.5269150000000 1.0
C      1  0.4440700000000  0.5526680000000  0.5603540000000 1.0
C      1  0.5617190000000  0.4493610000000  0.4425290000000 1.0
C      1  0.4433140000000  0.4652250000000  0.5028170000000 1.0
C      1  0.5561630000000  0.5348660000000  0.4951810000000 1.0
C      1  0.5027350000000  0.4473820000000  0.5004610000000 1.0
C      1  0.4962200000000  0.5522230000000  0.4999260000000 1.0
C      1  0.4702540000000  0.5314000000000  0.5039400000000 1.0
C      1  0.5272410000000  0.4693380000000  0.4964490000000 1.0
C      1  0.5959210000000  0.5159740000000  0.5161260000000 1.0
C      1  0.4023900000000  0.4803400000000  0.4799690000000 1.0
C      1  0.4984670000000  0.4416010000000  0.5515820000000 1.0
C      1  0.4996700000000  0.5583630000000  0.4480950000000 1.0
C      1  0.5617230000000  0.5460640000000  0.4577750000000 1.0
C      1  0.4373760000000  0.4565070000000  0.5409150000000 1.0
C      1  0.5369950000000  0.4697930000000  0.4350260000000 1.0
C      1  0.4665810000000  0.5305490000000  0.5656780000000 1.0
C      1  0.4997350000000  0.4077510000000  0.4969580000000 1.0
C      1  0.4984490000000  0.5918720000000  0.5034700000000 1.0
C      1  0.4286070000000  0.5438560000000  0.5395430000000 1.0
C      1  0.5758040000000  0.4611010000000  0.4664650000000 1.0
C      1  0.4919630000000  0.4080570000000  0.5480700000000 1.0
C      1  0.5052080000000  0.5922540000000  0.4517070000000 1.0
C      1  0.4916530000000  0.4614430000000  0.5854700000000 1.0
C      1  0.5067150000000  0.5383280000000  0.4143250000000 1.0
C      1  0.4552590000000  0.4371160000000  0.5188160000000 1.0
C      1  0.5432340000000  0.5636180000000  0.4810390000000 1.0
C      1  0.4914030000000  0.4779230000000  0.4774860000000 1.0
C      1  0.5090270000000  0.5223030000000  0.5230540000000 1.0
C      1  0.4415110000000  0.5447750000000  0.5115600000000 1.0
C      1  0.5539860000000  0.4555340000000  0.4898030000000 1.0
C      1  0.5283430000000  0.4969720000000  0.4244760000000 1.0
C      1  0.4721130000000  0.5027840000000  0.5758020000000 1.0
C      1  0.5222090000000  0.5328480000000  0.4954540000000 1.0
C      1  0.4772500000000  0.4672430000000  0.5045910000000 1.0
C      1  0.5383800000000  0.5632230000000  0.5290730000000 1.0
C      1  0.4621100000000  0.4364980000000  0.4704250000000 1.0
C      1  0.5126960000000  0.4482990000000  0.4336400000000 1.0
C      1  0.4919180000000  0.5508510000000  0.5699230000000 1.0
C      1  0.5510100000000  0.4917430000000  0.4570160000000 1.0
C      1  0.4501460000000  0.5104100000000  0.5433520000000 1.0
C      1  0.5234570000000  0.4988900000000  0.5821460000000 1.0
C      1  0.4765860000000  0.4996400000000  0.4191160000000 1.0
C      1  0.4749560000000  0.5866430000000  0.4605580000000 1.0
C      1  0.5224120000000  0.4128030000000  0.5388220000000 1.0
C      1  0.5460320000000  0.5299620000000  0.5356540000000 1.0
C      1  0.4551920000000  0.4697690000000  0.4630700000000 1.0
C      1  0.5832010000000  0.4470880000000  0.5674080000000 1.0
C      1  0.4155780000000  0.5510750000000  0.4309420000000 1.0
C      1  0.5134950000000  0.5129250000000  0.4489390000000 1.0
C      1  0.4862290000000  0.4872210000000  0.5510310000000 1.0
C      1  0.4153580000000  0.4570230000000  0.5547020000000 1.0
C      1  0.5832190000000  0.5485100000000  0.4434360000000 1.0
C      1  0.4829580000000  0.4445190000000  0.4216550000000 1.0
C      1  0.5222620000000  0.5543620000000  0.5792980000000 1.0
C      1  0.5153960000000  0.4779120000000  0.5575800000000 1.0
C      1  0.4837720000000  0.5220540000000  0.4427420000000 1.0
C      1  0.5433540000000  0.5159230000000  0.5888220000000 1.0
C      1  0.4575700000000  0.4812940000000  0.4134300000000 1.0
C      1  0.5699320000000  0.5545450000000  0.5396360000000 1.0
C      1  0.4318420000000  0.4451220000000  0.4568660000000 1.0
C      1  0.3986250000000  0.5065140000000  0.4869800000000 1.0
C      1  0.5997180000000  0.4906140000000  0.5100560000000 1.0
C      1  0.5328720000000  0.5306170000000  0.4651140000000 1.0
C      1  0.4665420000000  0.4699260000000  0.5345330000000 1.0
C      1  0.3992280000000  0.5179310000000  0.5161630000000 1.0
C      1  0.6034050000000  0.4739430000000  0.4817210000000 1.0
C      1  0.5315320000000  0.5450730000000  0.4279070000000 1.0
C      1  0.4664230000000  0.4560220000000  0.5715830000000 1.0
C      1  0.4682110000000  0.5240120000000  0.4704860000000 1.0
C      1  0.5306740000000  0.4761040000000  0.5298940000000 1.0
C      1  0.5649940000000  0.4371460000000  0.5497980000000 1.0
C      1  0.4335300000000  0.5611180000000  0.4487260000000 1.0
C      1  0.4115440000000  0.5202690000000  0.5416780000000 1.0
C      1  0.5907550000000  0.4898810000000  0.4558080000000 1.0
C      1  0.5168620000000  0.4952580000000  0.4767510000000 1.0
C      1  0.4829760000000  0.5058350000000  0.5227410000000 1.0
C      1  0.5399800000000  0.4028430000000  0.4324470000000 1.0
C      1  0.4664420000000  0.5967850000000  0.5764260000000 1.0
C      1  0.4593280000000  0.5698740000000  0.4407640000000 1.0
C      1  0.5388430000000  0.4296050000000  0.5580590000000 1.0
C      1  0.4213870000000  0.4614730000000  0.4823630000000 1.0
C      1  0.5791290000000  0.5369880000000  0.5146350000000 1.0
C      1  0.5374530000000  0.5047680000000  0.5194100000000 1.0
C      1  0.4621510000000  0.4950240000000  0.4803260000000 1.0
C      1  0.4156080000000  0.5351650000000  0.4916200000000 1.0
C      1  0.5833090000000  0.4616470000000  0.5061170000000 1.0
C      1  0.4936300000000  0.4575290000000  0.4578480000000 1.0
C      1  0.5086070000000  0.5412680000000  0.5440920000000 1.0
C      1  0.5388860000000  0.4300650000000  0.4356520000000 1.0
C      1  0.4665880000000  0.5701450000000  0.5699750000000 1.0
C      1  0.4605770000000  0.4469710000000  0.4379600000000 1.0
C      1  0.5431640000000  0.5526750000000  0.5611900000000 1.0
END
