TITL C-2782227-3064-747 0.00313941265692623 125000 -800.452692095758 0 0 136 (C1) n - 1
REM
REM in /home/nfs/bkarasulu/CARBON/AIRSS/Generating-Clusters/REBO/Higher-Symm/SD-CG/HFTN-CG
REM
REM
REM
REM
REM
REM ./C.cell (12c818d87b63d06a65506943cc24bca4)
REM
REM compiler GCC version 9.2.1 20190827 (Red Hat 9.2.1-1)
REM options -cpp -mtune=generic -march=x86-64 -g -O0 -fpre-include=/usr/include/finclude/math-vector-fortran.h
REM seed 920794451 725768322 132263090 370358463 -958006039 -1919065861 -396670221 889449832 -187592767 1108310527 1698942916 -939350114 332916010 -1674830825 1013663380 -2095817031 -444945423 1967876070 -1749424100 1915561147 232261309 1613321737 609174227 808255348 1561310007 -1560891385 710180193 175232615 -740217594 -1108507897 -1873153315 -10992588 -1572552941
REM
CELL 1.54180   50.00000   50.00000   50.00000   90.00000   90.00000   90.00000
LATT -1
SFAC C  
C      1  0.5558430000000  0.4616160000000  0.4813690000000 1.0
C      1  0.5501590000000  0.4985680000000  0.5332380000000 1.0
C      1  0.5428480000000  0.5284570000000  0.4859780000000 1.0
C      1  0.4077550000000  0.5258390000000  0.5627720000000 1.0
C      1  0.4116520000000  0.5502490000000  0.4554470000000 1.0
C      1  0.4216080000000  0.4371960000000  0.4839850000000 1.0
C      1  0.5489120000000  0.4276690000000  0.5420240000000 1.0
C      1  0.5466480000000  0.5722340000000  0.5339540000000 1.0
C      1  0.5499230000000  0.4907590000000  0.4205980000000 1.0
C      1  0.4982100000000  0.5392240000000  0.4701160000000 1.0
C      1  0.5063170000000  0.4524710000000  0.4785160000000 1.0
C      1  0.4991250000000  0.4992000000000  0.5517710000000 1.0
C      1  0.4657740000000  0.5322510000000  0.5468620000000 1.0
C      1  0.4663290000000  0.5207710000000  0.4551190000000 1.0
C      1  0.4777180000000  0.4478050000000  0.5059760000000 1.0
C      1  0.5685870000000  0.4681620000000  0.4313980000000 1.0
C      1  0.5582580000000  0.4553610000000  0.5602740000000 1.0
C      1  0.5629810000000  0.5719450000000  0.5104230000000 1.0
C      1  0.4226370000000  0.5123490000000  0.5836260000000 1.0
C      1  0.4282340000000  0.5745870000000  0.4522940000000 1.0
C      1  0.4271850000000  0.4242710000000  0.4586010000000 1.0
C      1  0.5648300000000  0.4198020000000  0.5102320000000 1.0
C      1  0.5574020000000  0.5506800000000  0.5587390000000 1.0
C      1  0.5592170000000  0.5227860000000  0.4296710000000 1.0
C      1  0.5212040000000  0.4917750000000  0.5197190000000 1.0
C      1  0.5167320000000  0.5154790000000  0.5028510000000 1.0
C      1  0.5352370000000  0.4858290000000  0.4837530000000 1.0
C      1  0.5758470000000  0.5257880000000  0.4907370000000 1.0
C      1  0.5852720000000  0.4784620000000  0.4780730000000 1.0
C      1  0.5785120000000  0.4865220000000  0.5240340000000 1.0
C      1  0.4488560000000  0.4377780000000  0.5316360000000 1.0
C      1  0.4264030000000  0.5705550000000  0.5391310000000 1.0
C      1  0.4258810000000  0.5036820000000  0.4381130000000 1.0
C      1  0.4949130000000  0.4958040000000  0.5912890000000 1.0
C      1  0.4927540000000  0.5781430000000  0.4631150000000 1.0
C      1  0.4953880000000  0.4272190000000  0.4495810000000 1.0
C      1  0.4333720000000  0.5394770000000  0.5034310000000 1.0
C      1  0.4497990000000  0.4916860000000  0.4815410000000 1.0
C      1  0.4454710000000  0.4867460000000  0.5251700000000 1.0
C      1  0.4741700000000  0.4789190000000  0.4984800000000 1.0
C      1  0.4641840000000  0.5095810000000  0.5220180000000 1.0
C      1  0.4527210000000  0.5251180000000  0.4850310000000 1.0
C      1  0.4918400000000  0.4779620000000  0.5277160000000 1.0
C      1  0.4844760000000  0.5237730000000  0.4972530000000 1.0
C      1  0.5009650000000  0.4844570000000  0.4811770000000 1.0
C      1  0.5800280000000  0.4300860000000  0.4814220000000 1.0
C      1  0.5698050000000  0.5189690000000  0.5612490000000 1.0
C      1  0.5665170000000  0.5436280000000  0.4561970000000 1.0
C      1  0.5930000000000  0.4531280000000  0.4940210000000 1.0
C      1  0.5889170000000  0.5142510000000  0.5358760000000 1.0
C      1  0.5926080000000  0.5230210000000  0.4634490000000 1.0
C      1  0.5592270000000  0.4877570000000  0.5705770000000 1.0
C      1  0.5564720000000  0.5656480000000  0.4804780000000 1.0
C      1  0.5684810000000  0.4400850000000  0.4509440000000 1.0
C      1  0.5891900000000  0.5624660000000  0.5173450000000 1.0
C      1  0.5947400000000  0.4815020000000  0.4329320000000 1.0
C      1  0.5790680000000  0.4420620000000  0.5402220000000 1.0
C      1  0.5088290000000  0.5640230000000  0.5077170000000 1.0
C      1  0.5076410000000  0.4742500000000  0.4433860000000 1.0
C      1  0.5104840000000  0.4615770000000  0.5591450000000 1.0
C      1  0.5265640000000  0.5404440000000  0.5203720000000 1.0
C      1  0.5293060000000  0.4925600000000  0.4543360000000 1.0
C      1  0.5304880000000  0.4631600000000  0.5316630000000 1.0
C      1  0.4767010000000  0.5870570000000  0.5135780000000 1.0
C      1  0.4746940000000  0.4711640000000  0.4214690000000 1.0
C      1  0.4704710000000  0.4558310000000  0.5855740000000 1.0
C      1  0.5173790000000  0.5786880000000  0.5434350000000 1.0
C      1  0.5184490000000  0.4981250000000  0.4136330000000 1.0
C      1  0.5168190000000  0.4211970000000  0.5354850000000 1.0
C      1  0.4416790000000  0.4000130000000  0.4622890000000 1.0
C      1  0.4407730000000  0.5302200000000  0.5976610000000 1.0
C      1  0.4417530000000  0.5754300000000  0.4263690000000 1.0
C      1  0.5408030000000  0.5711660000000  0.4505610000000 1.0
C      1  0.5429400000000  0.4218190000000  0.4460790000000 1.0
C      1  0.5397410000000  0.5109470000000  0.5866290000000 1.0
C      1  0.4871100000000  0.5444420000000  0.5240400000000 1.0
C      1  0.4906600000000  0.5019560000000  0.4549820000000 1.0
C      1  0.4953070000000  0.4447830000000  0.5349330000000 1.0
C      1  0.4386310000000  0.4832800000000  0.4516420000000 1.0
C      1  0.4495230000000  0.4635250000000  0.5429050000000 1.0
C      1  0.4334150000000  0.5660410000000  0.5128540000000 1.0
C      1  0.4765410000000  0.5523070000000  0.4499880000000 1.0
C      1  0.4798330000000  0.4310320000000  0.4769510000000 1.0
C      1  0.4791780000000  0.5160810000000  0.5713710000000 1.0
C      1  0.5115280000000  0.5695050000000  0.4410950000000 1.0
C      1  0.5176540000000  0.4104350000000  0.4571930000000 1.0
C      1  0.5125260000000  0.5199950000000  0.5945890000000 1.0
C      1  0.5259260000000  0.5517430000000  0.4739000000000 1.0
C      1  0.5337100000000  0.4474930000000  0.4633820000000 1.0
C      1  0.5290310000000  0.4968590000000  0.5585200000000 1.0
C      1  0.5175100000000  0.5218560000000  0.4486860000000 1.0
C      1  0.5207830000000  0.4459320000000  0.5044830000000 1.0
C      1  0.5069010000000  0.5305070000000  0.5464710000000 1.0
C      1  0.4650860000000  0.4016310000000  0.4751510000000 1.0
C      1  0.4655090000000  0.5383600000000  0.5889920000000 1.0
C      1  0.4644730000000  0.5606500000000  0.4226020000000 1.0
C      1  0.4476430000000  0.5251020000000  0.4273310000000 1.0
C      1  0.4670730000000  0.4164710000000  0.5119200000000 1.0
C      1  0.4479220000000  0.5568280000000  0.5585710000000 1.0
C      1  0.5163680000000  0.4009440000000  0.4847740000000 1.0
C      1  0.5034420000000  0.5454480000000  0.5832760000000 1.0
C      1  0.5051030000000  0.5489790000000  0.4222670000000 1.0
C      1  0.4187670000000  0.5057180000000  0.4776320000000 1.0
C      1  0.4224990000000  0.4816160000000  0.5088330000000 1.0
C      1  0.4067790000000  0.5252400000000  0.5102410000000 1.0
C      1  0.4502520000000  0.5849690000000  0.5003040000000 1.0
C      1  0.4489750000000  0.4638850000000  0.4338440000000 1.0
C      1  0.4479690000000  0.4660700000000  0.5714780000000 1.0
C      1  0.5526840000000  0.5308340000000  0.5329140000000 1.0
C      1  0.5544080000000  0.5116360000000  0.4602010000000 1.0
C      1  0.5530550000000  0.4500980000000  0.5096170000000 1.0
C      1  0.4160410000000  0.5332730000000  0.4325650000000 1.0
C      1  0.4353100000000  0.4252690000000  0.5055920000000 1.0
C      1  0.4154440000000  0.5532230000000  0.5628410000000 1.0
C      1  0.4782060000000  0.5632550000000  0.5687330000000 1.0
C      1  0.4781300000000  0.5294110000000  0.4172480000000 1.0
C      1  0.4874120000000  0.3953370000000  0.4978870000000 1.0
C      1  0.4040150000000  0.5325960000000  0.4775460000000 1.0
C      1  0.4134340000000  0.4637920000000  0.4899330000000 1.0
C      1  0.4004690000000  0.5170420000000  0.5364900000000 1.0
C      1  0.4415230000000  0.5887760000000  0.4734260000000 1.0
C      1  0.4349700000000  0.4394490000000  0.4358450000000 1.0
C      1  0.4301800000000  0.4852820000000  0.5818250000000 1.0
C      1  0.5049740000000  0.3949800000000  0.5256300000000 1.0
C      1  0.4885010000000  0.5805230000000  0.5411760000000 1.0
C      1  0.4892560000000  0.4973390000000  0.4148550000000 1.0
C      1  0.5909390000000  0.5344530000000  0.5154340000000 1.0
C      1  0.5980170000000  0.4954790000000  0.4573470000000 1.0
C      1  0.5900700000000  0.4592710000000  0.5214850000000 1.0
C      1  0.4966240000000  0.5838000000000  0.4903000000000 1.0
C      1  0.4949640000000  0.4500510000000  0.4327440000000 1.0
C      1  0.4956930000000  0.4688990000000  0.5821000000000 1.0
C      1  0.5329900000000  0.4156970000000  0.5060170000000 1.0
C      1  0.5256190000000  0.5540770000000  0.5623590000000 1.0
C      1  0.5295370000000  0.5287680000000  0.4183610000000 1.0
C      1  0.5649570000000  0.4970120000000  0.4962350000000 1.0
END
