TITL C-2782230-7391-171 0.000423968298471281 125000 -313.063560111989 0 0 57 (C1) n - 1
REM
REM in /home/nfs/bkarasulu/CARBON/AIRSS/Generating-Clusters/REBO/Higher-Symm/SD-CG/HFTN-CG
REM
REM
REM
REM
REM
REM ./C.cell (12c818d87b63d06a65506943cc24bca4)
REM
REM compiler GCC version 9.2.1 20190827 (Red Hat 9.2.1-1)
REM options -cpp -mtune=generic -march=x86-64 -g -O0 -fpre-include=/usr/include/finclude/math-vector-fortran.h
REM seed 562220993 -1903928271 2058022358 -319154257 415773222 -164948598 -1765690130 299126151 1303920446 -504106604 -2040027282 -1002411976 -1514420843 344549149 -388051220 -616756376 -1319411685 -1659577914 371022178 -2137205358 1508879779 -187125417 -349717942 1534873945 -1426670356 172996884 242558944 573038624 -1376684955 1012581120 956428309 -1666745148 -1144987304
REM
CELL 1.54180   50.00000   50.00000   50.00000   90.00000   90.00000   90.00000
LATT -1
SFAC C  
C      1  0.4897470000000  0.5395320000000  0.5122420000000 1.0
C      1  0.5154210000000  0.5180830000000  0.5341070000000 1.0
C      1  0.4883670000000  0.4768620000000  0.5384690000000 1.0
C      1  0.5117970000000  0.4581940000000  0.5216370000000 1.0
C      1  0.4859800000000  0.4610830000000  0.4777090000000 1.0
C      1  0.5093560000000  0.4757280000000  0.4572770000000 1.0
C      1  0.4860230000000  0.5210280000000  0.4603240000000 1.0
C      1  0.5096130000000  0.5393930000000  0.4775980000000 1.0
C      1  0.4804230000000  0.5520760000000  0.4847980000000 1.0
C      1  0.5161770000000  0.5511760000000  0.5284550000000 1.0
C      1  0.4872230000000  0.5077360000000  0.5464010000000 1.0
C      1  0.5201190000000  0.4727200000000  0.5498040000000 1.0
C      1  0.4837130000000  0.4513750000000  0.5080770000000 1.0
C      1  0.5177920000000  0.4498350000000  0.4753140000000 1.0
C      1  0.4815980000000  0.4906850000000  0.4512620000000 1.0
C      1  0.5185350000000  0.5238820000000  0.4507890000000 1.0
C      1  0.5457610000000  0.5185880000000  0.4795540000000 1.0
C      1  0.4436430000000  0.5277830000000  0.5037460000000 1.0
C      1  0.5488380000000  0.5132810000000  0.5126810000000 1.0
C      1  0.4447580000000  0.4984290000000  0.5198200000000 1.0
C      1  0.5554830000000  0.4803610000000  0.5164770000000 1.0
C      1  0.4401310000000  0.4743270000000  0.4970860000000 1.0
C      1  0.5499360000000  0.4854510000000  0.4840680000000 1.0
C      1  0.4411210000000  0.5035990000000  0.4803470000000 1.0
C      1  0.5270850000000  0.5966640000000  0.5588270000000 1.0
C      1  0.4806550000000  0.5172560000000  0.6020090000000 1.0
C      1  0.5315070000000  0.4479150000000  0.5990600000000 1.0
C      1  0.4711250000000  0.3958790000000  0.5117880000000 1.0
C      1  0.5310340000000  0.3994690000000  0.4537590000000 1.0
C      1  0.4669270000000  0.4869420000000  0.3962750000000 1.0
C      1  0.5369330000000  0.5500240000000  0.4044100000000 1.0
C      1  0.4705870000000  0.6072710000000  0.4783500000000 1.0
C      1  0.4737160000000  0.4886740000000  0.4217190000000 1.0
C      1  0.5283140000000  0.5377760000000  0.4261400000000 1.0
C      1  0.4751870000000  0.5814600000000  0.4813660000000 1.0
C      1  0.5219230000000  0.5751400000000  0.5444550000000 1.0
C      1  0.4837070000000  0.5128330000000  0.5761710000000 1.0
C      1  0.5261700000000  0.4595400000000  0.5759760000000 1.0
C      1  0.4769510000000  0.4215610000000  0.5100710000000 1.0
C      1  0.5248340000000  0.4230520000000  0.4638520000000 1.0
C      1  0.5371900000000  0.3760500000000  0.4437360000000 1.0
C      1  0.4601860000000  0.4852220000000  0.3710080000000 1.0
C      1  0.5454930000000  0.5621870000000  0.3828320000000 1.0
C      1  0.4660190000000  0.6329030000000  0.4753560000000 1.0
C      1  0.5322100000000  0.6180390000000  0.5730980000000 1.0
C      1  0.4776240000000  0.5216480000000  0.6276670000000 1.0
C      1  0.5368070000000  0.4363710000000  0.6219830000000 1.0
C      1  0.4653400000000  0.3703750000000  0.5134930000000 1.0
C      1  0.5288570000000  0.5376410000000  0.5019320000000 1.0
C      1  0.4664240000000  0.5224010000000  0.5281770000000 1.0
C      1  0.5381360000000  0.4965000000000  0.5403190000000 1.0
C      1  0.4613720000000  0.4696030000000  0.5226340000000 1.0
C      1  0.5338580000000  0.4600770000000  0.5001610000000 1.0
C      1  0.4594650000000  0.4773930000000  0.4703110000000 1.0
C      1  0.5313950000000  0.4960190000000  0.4584980000000 1.0
C      1  0.4582960000000  0.5315410000000  0.4736390000000 1.0
C      1  0.4979440000000  0.5083680000000  0.5079740000000 1.0
END
