TITL C-2782234-8014-1478 -0.00598821589281946 125000 -943.967319812293 0 0 161 (C1) n - 1
REM
REM in /home/nfs/bkarasulu/CARBON/AIRSS/Generating-Clusters/REBO/Higher-Symm/SD-CG/HFTN-CG
REM
REM
REM
REM
REM
REM ./C.cell (12c818d87b63d06a65506943cc24bca4)
REM
REM compiler GCC version 9.2.1 20190827 (Red Hat 9.2.1-1)
REM options -cpp -mtune=generic -march=x86-64 -g -O0 -fpre-include=/usr/include/finclude/math-vector-fortran.h
REM seed 419898669 -724136785 -1004404445 -310973070 -692766651 618268416 -519225480 642824368 1690075579 -1498281775 -2100439153 -456136188 1812579992 799752095 1392707967 -1142409192 487546442 1366232775 1052340235 -1974029852 535458825 -1001431306 931209647 -2079058264 193458520 -169743787 -542136027 156571795 207269805 915049135 -1134618364 372387946 -1930914860
REM
CELL 1.54180   50.00000   50.00000   50.00000   90.00000   90.00000   90.00000
LATT -1
SFAC C  
C      1  0.5083970000000  0.5920560000000  0.4763720000000 1.0
C      1  0.4955890000000  0.5814220000000  0.5284790000000 1.0
C      1  0.4496910000000  0.5721840000000  0.5502780000000 1.0
C      1  0.5527970000000  0.5764690000000  0.4493280000000 1.0
C      1  0.5498260000000  0.5244240000000  0.4786410000000 1.0
C      1  0.4407750000000  0.5056490000000  0.4991480000000 1.0
C      1  0.5861040000000  0.5549980000000  0.4791950000000 1.0
C      1  0.4200800000000  0.5486100000000  0.5183900000000 1.0
C      1  0.5572000000000  0.4353550000000  0.4659640000000 1.0
C      1  0.4422520000000  0.4315320000000  0.5461200000000 1.0
C      1  0.5024160000000  0.4752410000000  0.3840640000000 1.0
C      1  0.4972350000000  0.4736440000000  0.6148060000000 1.0
C      1  0.5252760000000  0.4699360000000  0.4263830000000 1.0
C      1  0.4757200000000  0.4811460000000  0.5725250000000 1.0
C      1  0.6131740000000  0.4894030000000  0.5067010000000 1.0
C      1  0.3856220000000  0.4816530000000  0.4897170000000 1.0
C      1  0.4733130000000  0.4656870000000  0.6010280000000 1.0
C      1  0.5319790000000  0.4649170000000  0.3934100000000 1.0
C      1  0.4347500000000  0.4568710000000  0.5761420000000 1.0
C      1  0.5611770000000  0.4542100000000  0.4184810000000 1.0
C      1  0.5213810000000  0.5739800000000  0.4506020000000 1.0
C      1  0.4805600000000  0.5664970000000  0.5502650000000 1.0
C      1  0.3859000000000  0.5050480000000  0.4739610000000 1.0
C      1  0.6164610000000  0.5091140000000  0.5266560000000 1.0
C      1  0.5661510000000  0.4824990000000  0.4107870000000 1.0
C      1  0.4288390000000  0.4838130000000  0.5863290000000 1.0
C      1  0.5726180000000  0.5279730000000  0.4389930000000 1.0
C      1  0.4203050000000  0.5308160000000  0.5633960000000 1.0
C      1  0.4200990000000  0.5343540000000  0.4515770000000 1.0
C      1  0.5855320000000  0.5379820000000  0.5532930000000 1.0
C      1  0.4921140000000  0.4315280000000  0.5162370000000 1.0
C      1  0.5059360000000  0.4286440000000  0.4898090000000 1.0
C      1  0.4227280000000  0.5689370000000  0.4924830000000 1.0
C      1  0.5808120000000  0.5698770000000  0.5074420000000 1.0
C      1  0.5307050000000  0.5576400000000  0.5290560000000 1.0
C      1  0.4688660000000  0.5631200000000  0.4551080000000 1.0
C      1  0.4804890000000  0.5607470000000  0.4169940000000 1.0
C      1  0.5254150000000  0.5534250000000  0.5836790000000 1.0
C      1  0.4814480000000  0.5972890000000  0.5059500000000 1.0
C      1  0.5195790000000  0.6084310000000  0.5018300000000 1.0
C      1  0.5269440000000  0.4494100000000  0.5446450000000 1.0
C      1  0.4703280000000  0.4455330000000  0.4512300000000 1.0
C      1  0.4223490000000  0.4544300000000  0.4742970000000 1.0
C      1  0.5831050000000  0.4567770000000  0.5243960000000 1.0
C      1  0.4803470000000  0.5111690000000  0.4985320000000 1.0
C      1  0.5150080000000  0.5249030000000  0.5126600000000 1.0
C      1  0.4264120000000  0.4778790000000  0.4547920000000 1.0
C      1  0.5827760000000  0.4750630000000  0.5479450000000 1.0
C      1  0.4239170000000  0.4717890000000  0.4154260000000 1.0
C      1  0.5668180000000  0.4801460000000  0.5841550000000 1.0
C      1  0.4366340000000  0.5620000000000  0.4445290000000 1.0
C      1  0.5741010000000  0.5684040000000  0.5547990000000 1.0
C      1  0.5482510000000  0.4314560000000  0.5752240000000 1.0
C      1  0.4470030000000  0.4237080000000  0.4271990000000 1.0
C      1  0.4808040000000  0.4604290000000  0.3990930000000 1.0
C      1  0.5190840000000  0.4535130000000  0.6059680000000 1.0
C      1  0.4064840000000  0.4637940000000  0.4959020000000 1.0
C      1  0.5911080000000  0.4725950000000  0.5021120000000 1.0
C      1  0.5335560000000  0.4467730000000  0.4851620000000 1.0
C      1  0.4643120000000  0.4426450000000  0.5325490000000 1.0
C      1  0.5273480000000  0.4777960000000  0.5888490000000 1.0
C      1  0.4698640000000  0.4884350000000  0.4088110000000 1.0
C      1  0.5598130000000  0.4958770000000  0.5463610000000 1.0
C      1  0.4419430000000  0.5022060000000  0.4680470000000 1.0
C      1  0.4664330000000  0.5554190000000  0.5859400000000 1.0
C      1  0.5306940000000  0.5496700000000  0.4087680000000 1.0
C      1  0.6191590000000  0.5364080000000  0.5187820000000 1.0
C      1  0.3847580000000  0.5314960000000  0.4848220000000 1.0
C      1  0.5279640000000  0.5915550000000  0.5263600000000 1.0
C      1  0.4767770000000  0.5873330000000  0.4776680000000 1.0
C      1  0.4850990000000  0.4100120000000  0.5419140000000 1.0
C      1  0.5133650000000  0.4128910000000  0.4598900000000 1.0
C      1  0.4961470000000  0.5227180000000  0.4778260000000 1.0
C      1  0.5015760000000  0.5144250000000  0.5322730000000 1.0
C      1  0.5349610000000  0.5052660000000  0.5975970000000 1.0
C      1  0.4689730000000  0.5160480000000  0.3984140000000 1.0
C      1  0.4084220000000  0.4906050000000  0.4214870000000 1.0
C      1  0.5863710000000  0.4958720000000  0.5817790000000 1.0
C      1  0.5039010000000  0.4768870000000  0.4802240000000 1.0
C      1  0.4846060000000  0.4805750000000  0.5044820000000 1.0
C      1  0.4994720000000  0.4603100000000  0.5276500000000 1.0
C      1  0.4983740000000  0.4492910000000  0.4666260000000 1.0
C      1  0.4651470000000  0.4181220000000  0.4720710000000 1.0
C      1  0.5363590000000  0.4196600000000  0.5298320000000 1.0
C      1  0.5456390000000  0.5266790000000  0.5834590000000 1.0
C      1  0.4610130000000  0.5364870000000  0.4158140000000 1.0
C      1  0.4480230000000  0.5761090000000  0.5105940000000 1.0
C      1  0.5575780000000  0.5872780000000  0.4933070000000 1.0
C      1  0.5710130000000  0.5538640000000  0.4513220000000 1.0
C      1  0.4292810000000  0.5515620000000  0.5456840000000 1.0
C      1  0.4054030000000  0.5477890000000  0.4766520000000 1.0
C      1  0.5986090000000  0.5527350000000  0.5274480000000 1.0
C      1  0.5616470000000  0.5197900000000  0.5614080000000 1.0
C      1  0.4499750000000  0.5247520000000  0.4420650000000 1.0
C      1  0.4551990000000  0.5205150000000  0.5470480000000 1.0
C      1  0.5349850000000  0.5117680000000  0.4536200000000 1.0
C      1  0.5719470000000  0.4803150000000  0.4561420000000 1.0
C      1  0.4142580000000  0.4866570000000  0.5432820000000 1.0
C      1  0.4061690000000  0.5050090000000  0.4504870000000 1.0
C      1  0.5979770000000  0.5059630000000  0.5522610000000 1.0
C      1  0.4831440000000  0.5346160000000  0.5461430000000 1.0
C      1  0.5041650000000  0.5525370000000  0.4706380000000 1.0
C      1  0.4579460000000  0.5296270000000  0.5766710000000 1.0
C      1  0.5361270000000  0.5202600000000  0.4248460000000 1.0
C      1  0.5102740000000  0.5683790000000  0.4221530000000 1.0
C      1  0.4938180000000  0.5656170000000  0.5803510000000 1.0
C      1  0.4641630000000  0.4074840000000  0.4416210000000 1.0
C      1  0.5334890000000  0.4134970000000  0.5607430000000 1.0
C      1  0.4920890000000  0.4042410000000  0.4351010000000 1.0
C      1  0.5067300000000  0.4057930000000  0.5668060000000 1.0
C      1  0.5362110000000  0.4854080000000  0.4732440000000 1.0
C      1  0.4544060000000  0.4972020000000  0.5292170000000 1.0
C      1  0.5355870000000  0.5413850000000  0.4988490000000 1.0
C      1  0.4615240000000  0.5306390000000  0.5089210000000 1.0
C      1  0.4440920000000  0.5803770000000  0.4712190000000 1.0
C      1  0.5580810000000  0.5764640000000  0.5316710000000 1.0
C      1  0.4690000000000  0.5571640000000  0.5097930000000 1.0
C      1  0.5315620000000  0.5719560000000  0.4918250000000 1.0
C      1  0.5128950000000  0.3904010000000  0.4832320000000 1.0
C      1  0.4933240000000  0.3918960000000  0.5173460000000 1.0
C      1  0.4567530000000  0.4614580000000  0.5073600000000 1.0
C      1  0.5444370000000  0.4675660000000  0.5079570000000 1.0
C      1  0.5105470000000  0.4447580000000  0.5741290000000 1.0
C      1  0.4917440000000  0.4482260000000  0.4272960000000 1.0
C      1  0.4475050000000  0.4430440000000  0.4834810000000 1.0
C      1  0.5580310000000  0.4407960000000  0.5207020000000 1.0
C      1  0.4194250000000  0.5025330000000  0.5662520000000 1.0
C      1  0.5715580000000  0.4998200000000  0.4344990000000 1.0
C      1  0.4446000000000  0.5963080000000  0.5326900000000 1.0
C      1  0.5620590000000  0.5967580000000  0.4676300000000 1.0
C      1  0.4785860000000  0.5093710000000  0.5848940000000 1.0
C      1  0.5278310000000  0.4966770000000  0.4057680000000 1.0
C      1  0.4957350000000  0.4822900000000  0.4287170000000 1.0
C      1  0.5062740000000  0.4768630000000  0.5650810000000 1.0
C      1  0.4257240000000  0.4679780000000  0.5186920000000 1.0
C      1  0.5662740000000  0.4816450000000  0.4866130000000 1.0
C      1  0.4804620000000  0.3978650000000  0.4893700000000 1.0
C      1  0.5239360000000  0.3979640000000  0.5122900000000 1.0
C      1  0.5047040000000  0.5289290000000  0.4160590000000 1.0
C      1  0.5059950000000  0.5258750000000  0.5794070000000 1.0
C      1  0.5531540000000  0.4605440000000  0.5637990000000 1.0
C      1  0.4424720000000  0.4550320000000  0.4362020000000 1.0
C      1  0.5380710000000  0.4360430000000  0.4101820000000 1.0
C      1  0.4598170000000  0.4460200000000  0.5830200000000 1.0
C      1  0.5383700000000  0.4867360000000  0.5311990000000 1.0
C      1  0.4706770000000  0.5034900000000  0.4539260000000 1.0
C      1  0.5770010000000  0.5265040000000  0.4797840000000 1.0
C      1  0.4156830000000  0.5226250000000  0.5098220000000 1.0
C      1  0.5676710000000  0.4533900000000  0.4466740000000 1.0
C      1  0.4187280000000  0.4532200000000  0.5483870000000 1.0
C      1  0.4816390000000  0.4285720000000  0.5703490000000 1.0
C      1  0.5156160000000  0.4278410000000  0.4292290000000 1.0
C      1  0.5033850000000  0.5043530000000  0.6065000000000 1.0
C      1  0.4996640000000  0.5073890000000  0.3902190000000 1.0
C      1  0.5142430000000  0.4936290000000  0.5431640000000 1.0
C      1  0.5030960000000  0.5001080000000  0.4564020000000 1.0
C      1  0.5281360000000  0.4598100000000  0.4537570000000 1.0
C      1  0.4718050000000  0.4745390000000  0.5418680000000 1.0
C      1  0.5147920000000  0.5459910000000  0.5526420000000 1.0
C      1  0.4897080000000  0.5412440000000  0.4430600000000 1.0
C      1  0.4999720000000  0.5622720000000  0.5013440000000 1.0
END
