TITL C-2782225-7408-589 -2.16134356633867e-07 125000 -32.4959482122806 0 0 8 (D3) n - 1
REM
REM in /home/nfs/bkarasulu/CARBON/AIRSS/Generating-Clusters/REBO/Higher-Symm/SD-CG/HFTN-CG
REM
REM
REM
REM
REM
REM ./C.cell (12c818d87b63d06a65506943cc24bca4)
REM
REM compiler GCC version 9.2.1 20190827 (Red Hat 9.2.1-1)
REM options -cpp -mtune=generic -march=x86-64 -g -O0 -fpre-include=/usr/include/finclude/math-vector-fortran.h
REM seed 870049601 -192064421 -376528620 421804719 1880443222 -314954887 -1091636830 494793605 -860800137 -576591064 -41096090 -409052833 474279857 1274285448 -120622819 -1571806338 -1462756974 191990109 37074057 402520787 296108886 -1192382413 190408267 -1524807488 660145925 -880283167 352813012 -2119861095 664622409 50252012 599338696 -1465556023 -759904150
REM
CELL 1.54180   50.00000   50.00000   50.00000   90.00000   90.00000   90.00000
LATT -1
SFAC C  
C      1  0.4727310000000  0.4972840000000  0.5271470000000 1.0
C      1  0.5109240000000  0.5246650000000  0.5271470000000 1.0
C      1  0.5155400000000  0.4778990000000  0.5271470000000 1.0
C      1  0.4727310000000  0.5026150000000  0.4779400000000 1.0
C      1  0.5109240000000  0.4752340000000  0.4779400000000 1.0
C      1  0.5155400000000  0.5220000000000  0.4779400000000 1.0
C      1  0.4997320000000  0.4999500000000  0.5180980000000 1.0
C      1  0.4997320000000  0.4999500000000  0.4869890000000 1.0
END
