TITL C-2782227-3064-635 0.0012566535250064 125000 -835.003605111115 0 0 143 (C1) n - 1
REM
REM in /home/nfs/bkarasulu/CARBON/AIRSS/Generating-Clusters/REBO/Higher-Symm/SD-CG/HFTN-CG
REM
REM
REM
REM
REM
REM ./C.cell (12c818d87b63d06a65506943cc24bca4)
REM
REM compiler GCC version 9.2.1 20190827 (Red Hat 9.2.1-1)
REM options -cpp -mtune=generic -march=x86-64 -g -O0 -fpre-include=/usr/include/finclude/math-vector-fortran.h
REM seed 1822450099 1690828054 -231212659 -211411814 -851561239 -1137162731 -347544060 -285190679 -302685756 624073065 1613412243 650973956 -436560801 1471160723 1385900403 942508124 -809424535 145251733 -1775292799 1263457746 652992523 -860444283 1428935686 -1388217321 692826384 696596 366481679 -1003962348 1360743853 565310852 -1395188482 1755567153 -1163834519
REM
CELL 1.54180   50.00000   50.00000   50.00000   90.00000   90.00000   90.00000
LATT -1
SFAC C  
C      1  0.5470010000000  0.4757790000000  0.5811430000000 1.0
C      1  0.5425990000000  0.5233650000000  0.5805570000000 1.0
C      1  0.4530310000000  0.5661150000000  0.4628290000000 1.0
C      1  0.4532740000000  0.4345590000000  0.4645480000000 1.0
C      1  0.5418430000000  0.4633450000000  0.4462610000000 1.0
C      1  0.5460510000000  0.5391010000000  0.4520770000000 1.0
C      1  0.4431760000000  0.4496370000000  0.5642460000000 1.0
C      1  0.4435170000000  0.5490740000000  0.5673880000000 1.0
C      1  0.4777940000000  0.5869570000000  0.4647600000000 1.0
C      1  0.4778420000000  0.4110980000000  0.4620850000000 1.0
C      1  0.4775660000000  0.4726680000000  0.5295200000000 1.0
C      1  0.4792750000000  0.5314140000000  0.5279770000000 1.0
C      1  0.5097500000000  0.5441220000000  0.5196170000000 1.0
C      1  0.5090380000000  0.4668070000000  0.5211280000000 1.0
C      1  0.3981970000000  0.4742790000000  0.4642020000000 1.0
C      1  0.4007550000000  0.5279150000000  0.4654400000000 1.0
C      1  0.5946020000000  0.4529080000000  0.4869310000000 1.0
C      1  0.5936910000000  0.5541450000000  0.4892240000000 1.0
C      1  0.4780390000000  0.5351060000000  0.4196330000000 1.0
C      1  0.4816720000000  0.4687260000000  0.4331550000000 1.0
C      1  0.5418340000000  0.4163630000000  0.5050040000000 1.0
C      1  0.5426330000000  0.5919870000000  0.5051790000000 1.0
C      1  0.5822710000000  0.4326180000000  0.4722500000000 1.0
C      1  0.5844560000000  0.5762010000000  0.4750970000000 1.0
C      1  0.4990120000000  0.5257180000000  0.5843950000000 1.0
C      1  0.4895090000000  0.4675090000000  0.5829350000000 1.0
C      1  0.5031260000000  0.4496480000000  0.4435820000000 1.0
C      1  0.5030710000000  0.5448780000000  0.4405310000000 1.0
C      1  0.4798490000000  0.5346200000000  0.5599440000000 1.0
C      1  0.4689910000000  0.4676740000000  0.5598560000000 1.0
C      1  0.4558020000000  0.4277610000000  0.5204120000000 1.0
C      1  0.4578780000000  0.5712880000000  0.5243520000000 1.0
C      1  0.4974060000000  0.4234670000000  0.4876680000000 1.0
C      1  0.4987340000000  0.5771940000000  0.4903110000000 1.0
C      1  0.5174360000000  0.5284440000000  0.5478400000000 1.0
C      1  0.5217060000000  0.4772320000000  0.5502740000000 1.0
C      1  0.6082430000000  0.4765830000000  0.4790960000000 1.0
C      1  0.6080570000000  0.5311320000000  0.4836800000000 1.0
C      1  0.4379400000000  0.4500690000000  0.4883340000000 1.0
C      1  0.4353330000000  0.5576590000000  0.4837870000000 1.0
C      1  0.5296040000000  0.4107830000000  0.4558490000000 1.0
C      1  0.5295560000000  0.5936550000000  0.4533600000000 1.0
C      1  0.5068000000000  0.5760870000000  0.4514600000000 1.0
C      1  0.5049140000000  0.4199150000000  0.4479310000000 1.0
C      1  0.3964840000000  0.4781020000000  0.4974250000000 1.0
C      1  0.3995430000000  0.5257810000000  0.4993660000000 1.0
C      1  0.5296410000000  0.4424150000000  0.5327530000000 1.0
C      1  0.5326300000000  0.5634110000000  0.5358180000000 1.0
C      1  0.4715390000000  0.5493110000000  0.5020570000000 1.0
C      1  0.4632270000000  0.4572490000000  0.5062490000000 1.0
C      1  0.4195500000000  0.4363600000000  0.5064650000000 1.0
C      1  0.4228000000000  0.5681260000000  0.5061620000000 1.0
C      1  0.5604700000000  0.5770690000000  0.5249620000000 1.0
C      1  0.5600710000000  0.4306180000000  0.5256940000000 1.0
C      1  0.4126460000000  0.4743880000000  0.4343760000000 1.0
C      1  0.4113610000000  0.5285300000000  0.4340520000000 1.0
C      1  0.4298450000000  0.4445900000000  0.5352420000000 1.0
C      1  0.4314570000000  0.5550290000000  0.5364730000000 1.0
C      1  0.5105470000000  0.5498700000000  0.4735820000000 1.0
C      1  0.5077080000000  0.4499420000000  0.4740780000000 1.0
C      1  0.5503500000000  0.5606350000000  0.4616400000000 1.0
C      1  0.5493530000000  0.4551930000000  0.4717420000000 1.0
C      1  0.4719600000000  0.4835390000000  0.4872310000000 1.0
C      1  0.4729170000000  0.5348630000000  0.4777830000000 1.0
C      1  0.4147670000000  0.4722770000000  0.5233050000000 1.0
C      1  0.4158580000000  0.5290680000000  0.5264920000000 1.0
C      1  0.5458940000000  0.5330930000000  0.5324620000000 1.0
C      1  0.5508480000000  0.4664140000000  0.5404530000000 1.0
C      1  0.5789320000000  0.4559210000000  0.5141630000000 1.0
C      1  0.5764090000000  0.5499820000000  0.5134230000000 1.0
C      1  0.4647810000000  0.4198110000000  0.4924250000000 1.0
C      1  0.4667100000000  0.5824500000000  0.4962390000000 1.0
C      1  0.4259260000000  0.4762900000000  0.4813340000000 1.0
C      1  0.4289750000000  0.5271630000000  0.4822810000000 1.0
C      1  0.5009640000000  0.4149400000000  0.5371350000000 1.0
C      1  0.5023560000000  0.5891290000000  0.5392770000000 1.0
C      1  0.4616770000000  0.4232260000000  0.5667120000000 1.0
C      1  0.4700910000000  0.5643420000000  0.5670380000000 1.0
C      1  0.4615460000000  0.4655630000000  0.4600470000000 1.0
C      1  0.4633990000000  0.5413300000000  0.4479670000000 1.0
C      1  0.4607680000000  0.4715550000000  0.4072540000000 1.0
C      1  0.4556440000000  0.5244040000000  0.4010070000000 1.0
C      1  0.5532360000000  0.5896580000000  0.4764770000000 1.0
C      1  0.5497550000000  0.4234320000000  0.4761680000000 1.0
C      1  0.5136720000000  0.4134890000000  0.5105890000000 1.0
C      1  0.5146990000000  0.5900690000000  0.5121060000000 1.0
C      1  0.5174620000000  0.4731240000000  0.4904620000000 1.0
C      1  0.5233800000000  0.5312800000000  0.4951620000000 1.0
C      1  0.4729310000000  0.4162520000000  0.5422440000000 1.0
C      1  0.4752840000000  0.5821700000000  0.5456620000000 1.0
C      1  0.5781220000000  0.4494040000000  0.5476790000000 1.0
C      1  0.5694790000000  0.5528420000000  0.5470070000000 1.0
C      1  0.4406890000000  0.5262420000000  0.4297610000000 1.0
C      1  0.4424810000000  0.4755110000000  0.4335560000000 1.0
C      1  0.5165430000000  0.4298360000000  0.5588190000000 1.0
C      1  0.5201870000000  0.5770790000000  0.5613470000000 1.0
C      1  0.4001320000000  0.4837260000000  0.5485730000000 1.0
C      1  0.4030250000000  0.5152250000000  0.5516510000000 1.0
C      1  0.5542670000000  0.5471750000000  0.5746900000000 1.0
C      1  0.5630760000000  0.4544160000000  0.5765110000000 1.0
C      1  0.5144920000000  0.5501870000000  0.5719270000000 1.0
C      1  0.5132930000000  0.4564450000000  0.5717530000000 1.0
C      1  0.4394820000000  0.4761270000000  0.5852440000000 1.0
C      1  0.4469620000000  0.5265890000000  0.5855220000000 1.0
C      1  0.5563940000000  0.5264480000000  0.5019680000000 1.0
C      1  0.5599170000000  0.4717730000000  0.4924500000000 1.0
C      1  0.4426470000000  0.4974920000000  0.5584920000000 1.0
C      1  0.5255600000000  0.4977610000000  0.5902130000000 1.0
C      1  0.4544250000000  0.5024460000000  0.4466030000000 1.0
C      1  0.4768930000000  0.4800390000000  0.3793150000000 1.0
C      1  0.5522990000000  0.5005890000000  0.5608600000000 1.0
C      1  0.4448760000000  0.5013110000000  0.4764910000000 1.0
C      1  0.5848420000000  0.5051410000000  0.4641060000000 1.0
C      1  0.5815080000000  0.5039990000000  0.5521850000000 1.0
C      1  0.5844080000000  0.5007700000000  0.5194710000000 1.0
C      1  0.4629850000000  0.5023710000000  0.5210580000000 1.0
C      1  0.4752600000000  0.5012570000000  0.5587140000000 1.0
C      1  0.5630240000000  0.5024260000000  0.4847100000000 1.0
C      1  0.4857660000000  0.4989260000000  0.4428150000000 1.0
C      1  0.5373650000000  0.5112080000000  0.4431280000000 1.0
C      1  0.5461330000000  0.4995040000000  0.3976520000000 1.0
C      1  0.5027450000000  0.5016650000000  0.5404250000000 1.0
C      1  0.5100230000000  0.5142550000000  0.4275570000000 1.0
C      1  0.4918190000000  0.4965720000000  0.5952930000000 1.0
C      1  0.4583330000000  0.5026070000000  0.5947700000000 1.0
C      1  0.4136910000000  0.4951410000000  0.5770620000000 1.0
C      1  0.3824060000000  0.5025670000000  0.5026990000000 1.0
C      1  0.5523700000000  0.4945370000000  0.5267540000000 1.0
C      1  0.4545130000000  0.4995560000000  0.3888210000000 1.0
C      1  0.5180200000000  0.5039690000000  0.3985830000000 1.0
C      1  0.5274580000000  0.5001390000000  0.5090410000000 1.0
C      1  0.4939110000000  0.5008240000000  0.5069750000000 1.0
C      1  0.4326880000000  0.5006110000000  0.5292190000000 1.0
C      1  0.5813460000000  0.4934110000000  0.4347180000000 1.0
C      1  0.6083970000000  0.4852670000000  0.4498860000000 1.0
C      1  0.6098550000000  0.5028730000000  0.5524300000000 1.0
C      1  0.6076350000000  0.5018530000000  0.4966040000000 1.0
C      1  0.5054120000000  0.5015520000000  0.4651600000000 1.0
C      1  0.5352010000000  0.4943050000000  0.4705180000000 1.0
C      1  0.5025150000000  0.4905210000000  0.3798160000000 1.0
C      1  0.6203180000000  0.4996940000000  0.5263900000000 1.0
C      1  0.5579000000000  0.5001680000000  0.4230570000000 1.0
C      1  0.3955010000000  0.5014520000000  0.4453650000000 1.0
END
