TITL C-2782225-7408-854 -0.00020415254584065 125000 -879.033593662432 0 0 149 (C1) n - 1
REM
REM in /home/nfs/bkarasulu/CARBON/AIRSS/Generating-Clusters/REBO/Higher-Symm/SD-CG/HFTN-CG
REM
REM
REM
REM
REM
REM ./C.cell (12c818d87b63d06a65506943cc24bca4)
REM
REM compiler GCC version 9.2.1 20190827 (Red Hat 9.2.1-1)
REM options -cpp -mtune=generic -march=x86-64 -g -O0 -fpre-include=/usr/include/finclude/math-vector-fortran.h
REM seed 753241384 -395432448 -370237249 -1454161303 -502123508 -1245672680 -70243595 -531335118 -1674952860 1552391731 1253784927 -2064221962 1558257799 1801260602 1698845564 1824156806 -1484483288 -1601869984 -1763361638 150600759 -231824773 -2000376927 315445410 -106264709 1626851661 -1778543192 1168955638 -1237077772 -992537527 2094604948 -771730789 981261056 -1921459647
REM
CELL 1.54180   50.00000   50.00000   50.00000   90.00000   90.00000   90.00000
LATT -1
SFAC C  
C      1  0.4738910000000  0.5616850000000  0.5553430000000 1.0
C      1  0.5317550000000  0.5670100000000  0.4420730000000 1.0
C      1  0.4474690000000  0.5263480000000  0.4152580000000 1.0
C      1  0.5608730000000  0.5273290000000  0.5840560000000 1.0
C      1  0.4884880000000  0.5602700000000  0.5263750000000 1.0
C      1  0.5142180000000  0.5574410000000  0.4675350000000 1.0
C      1  0.4117020000000  0.5239800000000  0.5584120000000 1.0
C      1  0.5917850000000  0.5192700000000  0.4549370000000 1.0
C      1  0.4418800000000  0.5022780000000  0.6237010000000 1.0
C      1  0.5456970000000  0.5115880000000  0.3762370000000 1.0
C      1  0.5063720000000  0.6011230000000  0.4883210000000 1.0
C      1  0.4939590000000  0.6002460000000  0.5146320000000 1.0
C      1  0.4204500000000  0.4666190000000  0.5292590000000 1.0
C      1  0.5778600000000  0.4607290000000  0.4623090000000 1.0
C      1  0.5914600000000  0.4835500000000  0.4421890000000 1.0
C      1  0.4020290000000  0.4884460000000  0.5466090000000 1.0
C      1  0.4930780000000  0.5479190000000  0.4069010000000 1.0
C      1  0.5149470000000  0.5364340000000  0.5811050000000 1.0
C      1  0.5455950000000  0.5699670000000  0.5693720000000 1.0
C      1  0.4583290000000  0.5696450000000  0.4337710000000 1.0
C      1  0.5107580000000  0.5051940000000  0.5750530000000 1.0
C      1  0.4865700000000  0.5183620000000  0.4176880000000 1.0
C      1  0.4183730000000  0.4694270000000  0.4370050000000 1.0
C      1  0.5827380000000  0.4741020000000  0.5549390000000 1.0
C      1  0.5311560000000  0.5008480000000  0.4043560000000 1.0
C      1  0.4619580000000  0.4917810000000  0.5991670000000 1.0
C      1  0.4398630000000  0.5130930000000  0.6482150000000 1.0
C      1  0.5435600000000  0.5246410000000  0.3528760000000 1.0
C      1  0.4954230000000  0.5769300000000  0.5748900000000 1.0
C      1  0.5069340000000  0.5830540000000  0.4265190000000 1.0
C      1  0.4531980000000  0.5203600000000  0.4776960000000 1.0
C      1  0.5502650000000  0.5256050000000  0.5280230000000 1.0
C      1  0.4860520000000  0.5383400000000  0.4450100000000 1.0
C      1  0.5096920000000  0.5347500000000  0.5481680000000 1.0
C      1  0.4696120000000  0.5068080000000  0.5740350000000 1.0
C      1  0.5292970000000  0.5141540000000  0.4310640000000 1.0
C      1  0.4769430000000  0.5444410000000  0.4741330000000 1.0
C      1  0.5256430000000  0.5467620000000  0.5206280000000 1.0
C      1  0.3934790000000  0.4924290000000  0.5155140000000 1.0
C      1  0.5989290000000  0.4922550000000  0.4744470000000 1.0
C      1  0.4866250000000  0.4610400000000  0.5181590000000 1.0
C      1  0.5061280000000  0.4550490000000  0.4928160000000 1.0
C      1  0.4307080000000  0.4432200000000  0.4490670000000 1.0
C      1  0.5697570000000  0.4465180000000  0.5467610000000 1.0
C      1  0.4957500000000  0.4637890000000  0.4313820000000 1.0
C      1  0.5073690000000  0.4500710000000  0.5908840000000 1.0
C      1  0.5377760000000  0.4168440000000  0.4264920000000 1.0
C      1  0.4692990000000  0.4189500000000  0.5691310000000 1.0
C      1  0.5588070000000  0.4996050000000  0.5105960000000 1.0
C      1  0.4339000000000  0.4951920000000  0.4843360000000 1.0
C      1  0.5668150000000  0.4111510000000  0.4745810000000 1.0
C      1  0.4278500000000  0.4175850000000  0.5252150000000 1.0
C      1  0.5078960000000  0.3933180000000  0.5480510000000 1.0
C      1  0.5178910000000  0.3712360000000  0.5380860000000 1.0
C      1  0.5116290000000  0.4882350000000  0.5992900000000 1.0
C      1  0.4845300000000  0.4928990000000  0.4069170000000 1.0
C      1  0.5280200000000  0.4323030000000  0.5250930000000 1.0
C      1  0.4645210000000  0.4119160000000  0.4653500000000 1.0
C      1  0.4317110000000  0.5346130000000  0.5422540000000 1.0
C      1  0.5720880000000  0.5365420000000  0.4399460000000 1.0
C      1  0.5380720000000  0.4739280000000  0.5330770000000 1.0
C      1  0.4663570000000  0.4756870000000  0.4706730000000 1.0
C      1  0.4550880000000  0.4298490000000  0.4442370000000 1.0
C      1  0.5433110000000  0.4383300000000  0.5503610000000 1.0
C      1  0.5881960000000  0.5369990000000  0.5134550000000 1.0
C      1  0.4084100000000  0.5360580000000  0.4852410000000 1.0
C      1  0.5305560000000  0.4519530000000  0.3953010000000 1.0
C      1  0.4752680000000  0.4418580000000  0.5936500000000 1.0
C      1  0.5588390000000  0.5100230000000  0.5572010000000 1.0
C      1  0.4401040000000  0.5125460000000  0.4394000000000 1.0
C      1  0.4185080000000  0.5609310000000  0.4967360000000 1.0
C      1  0.5813930000000  0.5639770000000  0.5043030000000 1.0
C      1  0.5821200000000  0.4459640000000  0.5150320000000 1.0
C      1  0.4177170000000  0.4460820000000  0.4804600000000 1.0
C      1  0.5317750000000  0.4716920000000  0.5806150000000 1.0
C      1  0.4657690000000  0.4762000000000  0.4227470000000 1.0
C      1  0.4940000000000  0.4861350000000  0.4558350000000 1.0
C      1  0.5061110000000  0.4933190000000  0.5503290000000 1.0
C      1  0.5579320000000  0.5316950000000  0.4718170000000 1.0
C      1  0.4539290000000  0.5163630000000  0.5326780000000 1.0
C      1  0.4244630000000  0.4590780000000  0.5604330000000 1.0
C      1  0.5617800000000  0.4588020000000  0.4323500000000 1.0
C      1  0.4841980000000  0.4719000000000  0.6047400000000 1.0
C      1  0.5127170000000  0.4758170000000  0.4043160000000 1.0
C      1  0.4515500000000  0.4472230000000  0.5719420000000 1.0
C      1  0.5471480000000  0.4397680000000  0.4135990000000 1.0
C      1  0.4790940000000  0.5282520000000  0.5199630000000 1.0
C      1  0.5270690000000  0.5272880000000  0.4767450000000 1.0
C      1  0.5767880000000  0.5364880000000  0.5447690000000 1.0
C      1  0.4279670000000  0.5327580000000  0.4601490000000 1.0
C      1  0.4806140000000  0.4471040000000  0.4751400000000 1.0
C      1  0.5006040000000  0.4661870000000  0.5442990000000 1.0
C      1  0.3955310000000  0.5162900000000  0.5002820000000 1.0
C      1  0.5850710000000  0.5196740000000  0.4886490000000 1.0
C      1  0.5130730000000  0.4425780000000  0.5606000000000 1.0
C      1  0.4884840000000  0.4368030000000  0.4452360000000 1.0
C      1  0.5606320000000  0.5635460000000  0.4482250000000 1.0
C      1  0.4445840000000  0.5639560000000  0.5499900000000 1.0
C      1  0.4827890000000  0.5837020000000  0.4407650000000 1.0
C      1  0.5199680000000  0.5819430000000  0.5623170000000 1.0
C      1  0.5342430000000  0.4962230000000  0.4511270000000 1.0
C      1  0.4606200000000  0.4949240000000  0.5498970000000 1.0
C      1  0.4629770000000  0.4401880000000  0.5226270000000 1.0
C      1  0.5297790000000  0.4465380000000  0.4711540000000 1.0
C      1  0.4254460000000  0.5609890000000  0.5236700000000 1.0
C      1  0.5710360000000  0.5634090000000  0.4775200000000 1.0
C      1  0.4833120000000  0.5337430000000  0.5699420000000 1.0
C      1  0.5161440000000  0.5413860000000  0.4310450000000 1.0
C      1  0.5776260000000  0.4818460000000  0.4152450000000 1.0
C      1  0.4117700000000  0.4833330000000  0.5768330000000 1.0
C      1  0.4977580000000  0.4157150000000  0.5581590000000 1.0
C      1  0.5102760000000  0.4167030000000  0.4434500000000 1.0
C      1  0.5678990000000  0.5664450000000  0.5509950000000 1.0
C      1  0.4362850000000  0.5628490000000  0.4513380000000 1.0
C      1  0.4802480000000  0.5101060000000  0.4938070000000 1.0
C      1  0.5261330000000  0.5059160000000  0.5032220000000 1.0
C      1  0.5132040000000  0.5826400000000  0.5331040000000 1.0
C      1  0.4904770000000  0.5816830000000  0.4701210000000 1.0
C      1  0.5783540000000  0.4784810000000  0.5250340000000 1.0
C      1  0.4213630000000  0.4772970000000  0.4672190000000 1.0
C      1  0.4679600000000  0.5914800000000  0.5124220000000 1.0
C      1  0.5332150000000  0.5950330000000  0.4902810000000 1.0
C      1  0.5017520000000  0.5067130000000  0.4717970000000 1.0
C      1  0.5068930000000  0.5117740000000  0.5249320000000 1.0
C      1  0.5405110000000  0.4170890000000  0.4591670000000 1.0
C      1  0.4498060000000  0.4192140000000  0.5438290000000 1.0
C      1  0.4394590000000  0.4833240000000  0.5115650000000 1.0
C      1  0.5616000000000  0.4731450000000  0.4891930000000 1.0
C      1  0.4631280000000  0.5503680000000  0.4130740000000 1.0
C      1  0.5418090000000  0.5470350000000  0.5861470000000 1.0
C      1  0.5666440000000  0.4256680000000  0.4984270000000 1.0
C      1  0.4322430000000  0.4273800000000  0.4999420000000 1.0
C      1  0.4526950000000  0.4881530000000  0.4448640000000 1.0
C      1  0.5440370000000  0.4832560000000  0.5580550000000 1.0
C      1  0.4277720000000  0.4913550000000  0.5978060000000 1.0
C      1  0.5629800000000  0.4954860000000  0.3970470000000 1.0
C      1  0.4688610000000  0.4817460000000  0.5024740000000 1.0
C      1  0.5312670000000  0.4727290000000  0.5011970000000 1.0
C      1  0.5663550000000  0.5777910000000  0.5245290000000 1.0
C      1  0.4363110000000  0.5736900000000  0.4782110000000 1.0
C      1  0.4032740000000  0.4660740000000  0.5009420000000 1.0
C      1  0.5946950000000  0.4648560000000  0.4915830000000 1.0
C      1  0.4646950000000  0.5735710000000  0.4872420000000 1.0
C      1  0.5384110000000  0.5778580000000  0.5153970000000 1.0
C      1  0.5401060000000  0.4697580000000  0.4539470000000 1.0
C      1  0.4571960000000  0.4654930000000  0.5448770000000 1.0
C      1  0.4627980000000  0.4273640000000  0.4931470000000 1.0
C      1  0.5390270000000  0.4335330000000  0.4997610000000 1.0
C      1  0.5017520000000  0.5509220000000  0.4967010000000 1.0
END
