TITL C-2782239-8622-87 0.200003051432531 125000 -692.0421366492 0 0 121 (C1) n - 1
REM
REM in /home/nfs/bkarasulu/CARBON/AIRSS/Generating-Clusters/REBO/Higher-Symm/SD-CG/HFTN-CG
REM
REM
REM
REM
REM
REM ./C.cell (12c818d87b63d06a65506943cc24bca4)
REM
REM compiler GCC version 9.2.1 20190827 (Red Hat 9.2.1-1)
REM options -cpp -mtune=generic -march=x86-64 -g -O0 -fpre-include=/usr/include/finclude/math-vector-fortran.h
REM seed 74421554 1757628748 1951820781 -2077030001 1204970502 -255971511 1316298066 -1888976513 1238725609 -1299995363 1058984758 1018023658 -2028179315 921043103 -1146698282 -443223530 -91187077 -516984076 -1871775664 -1947666542 -1872103098 1115744296 1840093614 1414762394 -1960186101 -593233298 -1818136667 768568001 1732958619 -1188444824 -199636603 -2084275330 -1753490523
REM
CELL 1.54180   50.00000   50.00000   50.00000   90.00000   90.00000   90.00000
LATT -1
SFAC C  
C      1  0.4533210000000  0.4518370000000  0.5377450000000 1.0
C      1  0.4608190000000  0.5210930000000  0.5165790000000 1.0
C      1  0.5324510000000  0.5640420000000  0.5323030000000 1.0
C      1  0.5599110000000  0.4366070000000  0.5450170000000 1.0
C      1  0.5799250000000  0.4601070000000  0.5298210000000 1.0
C      1  0.5646260000000  0.5547950000000  0.5340250000000 1.0
C      1  0.4449320000000  0.5229560000000  0.5594810000000 1.0
C      1  0.4343880000000  0.4909420000000  0.5641160000000 1.0
C      1  0.5521120000000  0.5153980000000  0.5675620000000 1.0
C      1  0.5640610000000  0.4820630000000  0.5676520000000 1.0
C      1  0.5865170000000  0.5406720000000  0.4657830000000 1.0
C      1  0.5709100000000  0.4638940000000  0.4663580000000 1.0
C      1  0.4653330000000  0.4641100000000  0.4105360000000 1.0
C      1  0.4675150000000  0.5440010000000  0.4130790000000 1.0
C      1  0.4775340000000  0.5655790000000  0.5720860000000 1.0
C      1  0.4489280000000  0.4602440000000  0.6019160000000 1.0
C      1  0.5506890000000  0.5485510000000  0.5755390000000 1.0
C      1  0.5724610000000  0.4543640000000  0.5685590000000 1.0
C      1  0.4524630000000  0.4437410000000  0.4504200000000 1.0
C      1  0.4582610000000  0.5580790000000  0.4493100000000 1.0
C      1  0.5736670000000  0.4915870000000  0.5067710000000 1.0
C      1  0.5733960000000  0.5222260000000  0.5126260000000 1.0
C      1  0.5458640000000  0.5670980000000  0.5011890000000 1.0
C      1  0.5443660000000  0.4235860000000  0.5175390000000 1.0
C      1  0.5656930000000  0.4867300000000  0.4515040000000 1.0
C      1  0.5633790000000  0.5194090000000  0.4579700000000 1.0
C      1  0.4498190000000  0.4835520000000  0.4794650000000 1.0
C      1  0.4489820000000  0.5155260000000  0.4788510000000 1.0
C      1  0.4116330000000  0.5118060000000  0.5138880000000 1.0
C      1  0.4074310000000  0.4815310000000  0.5116740000000 1.0
C      1  0.4677450000000  0.4244900000000  0.4997180000000 1.0
C      1  0.4633160000000  0.5690930000000  0.5079800000000 1.0
C      1  0.4589910000000  0.4906270000000  0.4084780000000 1.0
C      1  0.4595840000000  0.5180880000000  0.4093390000000 1.0
C      1  0.5360400000000  0.4816150000000  0.5813490000000 1.0
C      1  0.5378830000000  0.5091720000000  0.5982450000000 1.0
C      1  0.5418190000000  0.5143490000000  0.4358570000000 1.0
C      1  0.5455190000000  0.4825470000000  0.4282560000000 1.0
C      1  0.4994890000000  0.5175850000000  0.4081410000000 1.0
C      1  0.4987720000000  0.4873850000000  0.4097150000000 1.0
C      1  0.5059920000000  0.4387780000000  0.5293060000000 1.0
C      1  0.5065440000000  0.5479410000000  0.5304090000000 1.0
C      1  0.4947300000000  0.4426280000000  0.4765150000000 1.0
C      1  0.4962610000000  0.5485360000000  0.4823950000000 1.0
C      1  0.4800850000000  0.4515700000000  0.5381510000000 1.0
C      1  0.4730900000000  0.5475090000000  0.5274950000000 1.0
C      1  0.4640980000000  0.5457600000000  0.4830700000000 1.0
C      1  0.4653200000000  0.4530980000000  0.4808630000000 1.0
C      1  0.5001570000000  0.5321990000000  0.5592220000000 1.0
C      1  0.5112310000000  0.4764590000000  0.5586780000000 1.0
C      1  0.5062910000000  0.4800640000000  0.4838040000000 1.0
C      1  0.5003840000000  0.5037060000000  0.4824990000000 1.0
C      1  0.4112950000000  0.5270740000000  0.4618280000000 1.0
C      1  0.4109170000000  0.4748610000000  0.4570540000000 1.0
C      1  0.5103480000000  0.5179690000000  0.6061160000000 1.0
C      1  0.5055210000000  0.4859330000000  0.5967200000000 1.0
C      1  0.4764390000000  0.4370300000000  0.4269340000000 1.0
C      1  0.4827240000000  0.5685140000000  0.4309590000000 1.0
C      1  0.4896000000000  0.5900860000000  0.4545910000000 1.0
C      1  0.4749240000000  0.4108860000000  0.4477570000000 1.0
C      1  0.5783100000000  0.5629880000000  0.5083770000000 1.0
C      1  0.5747850000000  0.4345230000000  0.5082770000000 1.0
C      1  0.5326270000000  0.5661580000000  0.5641920000000 1.0
C      1  0.5317290000000  0.4214470000000  0.5549570000000 1.0
C      1  0.5196560000000  0.4042100000000  0.4630780000000 1.0
C      1  0.5306030000000  0.5837620000000  0.4805570000000 1.0
C      1  0.5769620000000  0.4925920000000  0.5401100000000 1.0
C      1  0.5741440000000  0.5261980000000  0.5445250000000 1.0
C      1  0.4584290000000  0.5272730000000  0.4482480000000 1.0
C      1  0.4587390000000  0.4752990000000  0.4482920000000 1.0
C      1  0.5615800000000  0.5592900000000  0.4585580000000 1.0
C      1  0.5507030000000  0.4413660000000  0.4617550000000 1.0
C      1  0.5010440000000  0.5390930000000  0.5906510000000 1.0
C      1  0.5076960000000  0.4542220000000  0.5835520000000 1.0
C      1  0.5397450000000  0.5769020000000  0.4533030000000 1.0
C      1  0.5330410000000  0.4246100000000  0.4478050000000 1.0
C      1  0.5178960000000  0.4301430000000  0.5768530000000 1.0
C      1  0.5072270000000  0.5670400000000  0.5773820000000 1.0
C      1  0.5204390000000  0.4679580000000  0.4232590000000 1.0
C      1  0.5203540000000  0.5347000000000  0.4252520000000 1.0
C      1  0.5411780000000  0.5143930000000  0.5032190000000 1.0
C      1  0.5434850000000  0.4800910000000  0.5038460000000 1.0
C      1  0.4201510000000  0.4687320000000  0.4877270000000 1.0
C      1  0.4196290000000  0.5244070000000  0.4901250000000 1.0
C      1  0.5831850000000  0.4638830000000  0.4949510000000 1.0
C      1  0.5914870000000  0.5411470000000  0.4937280000000 1.0
C      1  0.4398000000000  0.4778180000000  0.5347750000000 1.0
C      1  0.4514180000000  0.4984330000000  0.5168400000000 1.0
C      1  0.4300700000000  0.5156330000000  0.4436170000000 1.0
C      1  0.4303740000000  0.4878700000000  0.4425200000000 1.0
C      1  0.4876640000000  0.4094150000000  0.5097970000000 1.0
C      1  0.4839740000000  0.5912080000000  0.5052400000000 1.0
C      1  0.5168240000000  0.4085220000000  0.5272470000000 1.0
C      1  0.4865280000000  0.6134100000000  0.5187720000000 1.0
C      1  0.4949000000000  0.4761350000000  0.5221900000000 1.0
C      1  0.4956220000000  0.5064880000000  0.5294230000000 1.0
C      1  0.5269730000000  0.4824630000000  0.5301270000000 1.0
C      1  0.5250060000000  0.5120280000000  0.5473000000000 1.0
C      1  0.4059760000000  0.4876740000000  0.5451160000000 1.0
C      1  0.4176010000000  0.5196960000000  0.5426320000000 1.0
C      1  0.5164480000000  0.5661810000000  0.4357960000000 1.0
C      1  0.5106380000000  0.4362910000000  0.4258640000000 1.0
C      1  0.4930640000000  0.4128490000000  0.4689780000000 1.0
C      1  0.5007640000000  0.5803390000000  0.4824610000000 1.0
C      1  0.5511520000000  0.5381660000000  0.4837860000000 1.0
C      1  0.5467140000000  0.4478390000000  0.4936970000000 1.0
C      1  0.4816650000000  0.4860030000000  0.5728790000000 1.0
C      1  0.4758290000000  0.5117550000000  0.5554690000000 1.0
C      1  0.4625970000000  0.5494760000000  0.5561210000000 1.0
C      1  0.4542930000000  0.4767980000000  0.5823200000000 1.0
C      1  0.5047960000000  0.5414580000000  0.4547970000000 1.0
C      1  0.5050160000000  0.4561110000000  0.4518410000000 1.0
C      1  0.4287270000000  0.4392200000000  0.4743430000000 1.0
C      1  0.4367750000000  0.5717420000000  0.4659840000000 1.0
C      1  0.4858640000000  0.5204560000000  0.4395820000000 1.0
C      1  0.4865350000000  0.4797470000000  0.4406160000000 1.0
C      1  0.4387890000000  0.4212660000000  0.4930730000000 1.0
C      1  0.4370830000000  0.5742950000000  0.4909070000000 1.0
C      1  0.5097080000000  0.4532550000000  0.5014890000000 1.0
C      1  0.5091070000000  0.5262390000000  0.5048140000000 1.0
C      1  0.5126410000000  0.5008700000000  0.4445410000000 1.0
END
