TITL C-2782233-7966-757 -0.000426752185482949 125000 -1155.04386456645 0 0 198 (C1) n - 1
REM
REM in /home/nfs/bkarasulu/CARBON/AIRSS/Generating-Clusters/REBO/Higher-Symm/SD-CG/HFTN-CG
REM
REM
REM
REM
REM
REM ./C.cell (12c818d87b63d06a65506943cc24bca4)
REM
REM compiler GCC version 9.2.1 20190827 (Red Hat 9.2.1-1)
REM options -cpp -mtune=generic -march=x86-64 -g -O0 -fpre-include=/usr/include/finclude/math-vector-fortran.h
REM seed 511913029 1817986052 -1115836665 290363719 334630888 -122296907 -601436038 246913103 1681352781 -892055147 -1878509792 184761880 1077008438 -1861010588 -1471937789 -1667238865 -1243921134 -778305090 1168355891 -1815935754 427659690 -1670207324 138618191 498631061 246707095 2022631692 991427993 -2026404893 -1988359055 -309774815 2026919115 1284113443 -68359014
REM
CELL 1.54180   50.00000   50.00000   50.00000   90.00000   90.00000   90.00000
LATT -1
SFAC C  
C      1  0.4892290000000  0.5334100000000  0.5966150000000 1.0
C      1  0.5947490000000  0.5393050000000  0.5484810000000 1.0
C      1  0.5760550000000  0.5330320000000  0.4502080000000 1.0
C      1  0.4628860000000  0.5307280000000  0.4161470000000 1.0
C      1  0.4056220000000  0.5258100000000  0.5124190000000 1.0
C      1  0.4678380000000  0.4675210000000  0.4044850000000 1.0
C      1  0.5760930000000  0.4687390000000  0.4497660000000 1.0
C      1  0.5714010000000  0.4725510000000  0.5695240000000 1.0
C      1  0.4524230000000  0.4690150000000  0.5836120000000 1.0
C      1  0.3932750000000  0.4646680000000  0.4836170000000 1.0
C      1  0.5504480000000  0.6132550000000  0.4675410000000 1.0
C      1  0.4905230000000  0.5978890000000  0.4448620000000 1.0
C      1  0.4444470000000  0.5962060000000  0.4862260000000 1.0
C      1  0.4779820000000  0.6026100000000  0.5509100000000 1.0
C      1  0.5445910000000  0.6025820000000  0.5405570000000 1.0
C      1  0.5582930000000  0.4008260000000  0.5281060000000 1.0
C      1  0.4889950000000  0.3994370000000  0.5549400000000 1.0
C      1  0.4415140000000  0.4015090000000  0.5024380000000 1.0
C      1  0.4735640000000  0.4054720000000  0.4457720000000 1.0
C      1  0.5419570000000  0.4041450000000  0.4587530000000 1.0
C      1  0.4900230000000  0.4767390000000  0.4694570000000 1.0
C      1  0.4649630000000  0.4752870000000  0.4923820000000 1.0
C      1  0.4838240000000  0.4787570000000  0.5274060000000 1.0
C      1  0.5292100000000  0.4730430000000  0.5346490000000 1.0
C      1  0.5327160000000  0.4759690000000  0.4937560000000 1.0
C      1  0.5052230000000  0.5283110000000  0.5536560000000 1.0
C      1  0.4524630000000  0.5299460000000  0.5215410000000 1.0
C      1  0.4756640000000  0.5240830000000  0.4695220000000 1.0
C      1  0.5052650000000  0.5280150000000  0.4810210000000 1.0
C      1  0.5292330000000  0.5219100000000  0.5209950000000 1.0
C      1  0.5721080000000  0.5022450000000  0.5725370000000 1.0
C      1  0.5827700000000  0.4950970000000  0.4647060000000 1.0
C      1  0.4832010000000  0.4959650000000  0.4046560000000 1.0
C      1  0.4005640000000  0.4945330000000  0.4849160000000 1.0
C      1  0.4557280000000  0.4983290000000  0.5841090000000 1.0
C      1  0.5634020000000  0.5052490000000  0.4406220000000 1.0
C      1  0.5908850000000  0.5094850000000  0.5465820000000 1.0
C      1  0.4866740000000  0.5040130000000  0.5949530000000 1.0
C      1  0.4047500000000  0.4954630000000  0.5180820000000 1.0
C      1  0.4531410000000  0.5021710000000  0.4172460000000 1.0
C      1  0.5811450000000  0.4579810000000  0.4792430000000 1.0
C      1  0.4944810000000  0.4585670000000  0.3964630000000 1.0
C      1  0.3972290000000  0.4527080000000  0.4593740000000 1.0
C      1  0.4307420000000  0.4583950000000  0.5701500000000 1.0
C      1  0.5494810000000  0.4606060000000  0.5820310000000 1.0
C      1  0.6028870000000  0.5519180000000  0.5251720000000 1.0
C      1  0.5146350000000  0.5439460000000  0.5979160000000 1.0
C      1  0.4247420000000  0.5384500000000  0.5341360000000 1.0
C      1  0.4471230000000  0.5479430000000  0.4375860000000 1.0
C      1  0.5456710000000  0.5400080000000  0.4364160000000 1.0
C      1  0.4554780000000  0.3960690000000  0.5523740000000 1.0
C      1  0.5377090000000  0.3962570000000  0.5553400000000 1.0
C      1  0.5706620000000  0.4003830000000  0.4764070000000 1.0
C      1  0.4985940000000  0.4019010000000  0.4268390000000 1.0
C      1  0.4318670000000  0.3987140000000  0.4725810000000 1.0
C      1  0.4636530000000  0.5921380000000  0.4386900000000 1.0
C      1  0.5427740000000  0.5989120000000  0.4446270000000 1.0
C      1  0.5681150000000  0.6067600000000  0.5193740000000 1.0
C      1  0.5052630000000  0.6062420000000  0.5703580000000 1.0
C      1  0.4385580000000  0.6013950000000  0.5194700000000 1.0
C      1  0.5156750000000  0.5867290000000  0.4278760000000 1.0
C      1  0.4375180000000  0.5834450000000  0.4588200000000 1.0
C      1  0.4488390000000  0.5885290000000  0.5493230000000 1.0
C      1  0.5352350000000  0.5915780000000  0.5685340000000 1.0
C      1  0.5690650000000  0.5970770000000  0.4887300000000 1.0
C      1  0.5129310000000  0.4133710000000  0.5712480000000 1.0
C      1  0.4332810000000  0.4111450000000  0.5317390000000 1.0
C      1  0.4428170000000  0.4127530000000  0.4452870000000 1.0
C      1  0.5284830000000  0.4166040000000  0.4320290000000 1.0
C      1  0.5785970000000  0.4138410000000  0.5067220000000 1.0
C      1  0.5134350000000  0.4311210000000  0.4051990000000 1.0
C      1  0.4113600000000  0.4233060000000  0.4497450000000 1.0
C      1  0.4313150000000  0.4256880000000  0.5620960000000 1.0
C      1  0.5427800000000  0.4286420000000  0.5774340000000 1.0
C      1  0.5963660000000  0.4282050000000  0.4815350000000 1.0
C      1  0.5182710000000  0.5767910000000  0.5933400000000 1.0
C      1  0.4214510000000  0.5715010000000  0.5387970000000 1.0
C      1  0.4302490000000  0.5747760000000  0.4266340000000 1.0
C      1  0.5429530000000  0.5690250000000  0.4186380000000 1.0
C      1  0.5896200000000  0.5765280000000  0.5056830000000 1.0
C      1  0.4782250000000  0.4172150000000  0.5277030000000 1.0
C      1  0.5220360000000  0.4234350000000  0.5309940000000 1.0
C      1  0.5427460000000  0.4270480000000  0.4842650000000 1.0
C      1  0.4959850000000  0.4252390000000  0.4582300000000 1.0
C      1  0.4662420000000  0.4156370000000  0.4837050000000 1.0
C      1  0.4745500000000  0.5738460000000  0.4723870000000 1.0
C      1  0.5292170000000  0.5695930000000  0.4681120000000 1.0
C      1  0.5380320000000  0.5810020000000  0.5149500000000 1.0
C      1  0.5038320000000  0.5859680000000  0.5361920000000 1.0
C      1  0.4618890000000  0.5780310000000  0.5100290000000 1.0
C      1  0.4870350000000  0.4334350000000  0.5754860000000 1.0
C      1  0.5754690000000  0.4366450000000  0.5319770000000 1.0
C      1  0.5495880000000  0.4398620000000  0.4429380000000 1.0
C      1  0.4573300000000  0.4379070000000  0.4291350000000 1.0
C      1  0.4209390000000  0.4344570000000  0.5110230000000 1.0
C      1  0.4912820000000  0.5639090000000  0.4214430000000 1.0
C      1  0.5690020000000  0.5680470000000  0.4713920000000 1.0
C      1  0.5569350000000  0.5685120000000  0.5567800000000 1.0
C      1  0.4660820000000  0.5695660000000  0.5697660000000 1.0
C      1  0.4235960000000  0.5624600000000  0.4818510000000 1.0
C      1  0.5104180000000  0.4490390000000  0.5295420000000 1.0
C      1  0.5552290000000  0.4517310000000  0.4943540000000 1.0
C      1  0.5075250000000  0.4500730000000  0.4698460000000 1.0
C      1  0.4697460000000  0.4443820000000  0.4813110000000 1.0
C      1  0.4716130000000  0.4470650000000  0.5211110000000 1.0
C      1  0.5237390000000  0.5437880000000  0.4573580000000 1.0
C      1  0.5358890000000  0.5514190000000  0.5054010000000 1.0
C      1  0.5103450000000  0.5568120000000  0.5355360000000 1.0
C      1  0.4740460000000  0.5534090000000  0.5192820000000 1.0
C      1  0.4598350000000  0.5509040000000  0.4651150000000 1.0
C      1  0.3930700000000  0.4708370000000  0.5316720000000 1.0
C      1  0.4974520000000  0.4753510000000  0.6014020000000 1.0
C      1  0.5997460000000  0.4876520000000  0.5240160000000 1.0
C      1  0.5366060000000  0.4865660000000  0.4090960000000 1.0
C      1  0.4206080000000  0.4910620000000  0.4337930000000 1.0
C      1  0.4086250000000  0.5116980000000  0.4587350000000 1.0
C      1  0.5116180000000  0.5098460000000  0.4035360000000 1.0
C      1  0.6023590000000  0.5078450000000  0.4958600000000 1.0
C      1  0.5674960000000  0.5300620000000  0.5871380000000 1.0
C      1  0.4429800000000  0.5267740000000  0.5841310000000 1.0
C      1  0.4874450000000  0.5849050000000  0.5854710000000 1.0
C      1  0.5776410000000  0.5811900000000  0.5369040000000 1.0
C      1  0.5624240000000  0.5752060000000  0.4446330000000 1.0
C      1  0.4613770000000  0.5758430000000  0.4127840000000 1.0
C      1  0.4155610000000  0.5793620000000  0.5073410000000 1.0
C      1  0.4804720000000  0.4256320000000  0.4123030000000 1.0
C      1  0.5745280000000  0.4267580000000  0.4553590000000 1.0
C      1  0.5637020000000  0.4182420000000  0.5563240000000 1.0
C      1  0.4602310000000  0.4181550000000  0.5751320000000 1.0
C      1  0.4121510000000  0.4211420000000  0.4837780000000 1.0
C      1  0.5622190000000  0.4955760000000  0.5344450000000 1.0
C      1  0.5374670000000  0.4947820000000  0.4584820000000 1.0
C      1  0.4607020000000  0.4892430000000  0.4456990000000 1.0
C      1  0.4360520000000  0.4868180000000  0.5172030000000 1.0
C      1  0.4922070000000  0.4902940000000  0.5647350000000 1.0
C      1  0.5578830000000  0.5129510000000  0.4793660000000 1.0
C      1  0.5462940000000  0.5159330000000  0.5563800000000 1.0
C      1  0.4684990000000  0.5132820000000  0.5565300000000 1.0
C      1  0.4319110000000  0.5052060000000  0.4904910000000 1.0
C      1  0.4881830000000  0.5068050000000  0.4357990000000 1.0
C      1  0.4008850000000  0.4635510000000  0.5578310000000 1.0
C      1  0.5244590000000  0.4671170000000  0.6026100000000 1.0
C      1  0.6041950000000  0.4757620000000  0.4941770000000 1.0
C      1  0.5226560000000  0.4666030000000  0.3897180000000 1.0
C      1  0.4008200000000  0.4672740000000  0.4321970000000 1.0
C      1  0.4229140000000  0.5244010000000  0.4326630000000 1.0
C      1  0.5416310000000  0.5193170000000  0.4100400000000 1.0
C      1  0.6173440000000  0.5345530000000  0.5046390000000 1.0
C      1  0.5458630000000  0.5372600000000  0.6038580000000 1.0
C      1  0.4213970000000  0.5321900000000  0.5675300000000 1.0
C      1  0.5178590000000  0.6078800000000  0.5138020000000 1.0
C      1  0.5230520000000  0.5906670000000  0.4858420000000 1.0
C      1  0.4958460000000  0.5996240000000  0.4751520000000 1.0
C      1  0.4741580000000  0.6063260000000  0.4957390000000 1.0
C      1  0.4875410000000  0.6134950000000  0.5219410000000 1.0
C      1  0.5248470000000  0.3985330000000  0.4861400000000 1.0
C      1  0.5283650000000  0.3967510000000  0.5165410000000 1.0
C      1  0.5005050000000  0.3899820000000  0.5272010000000 1.0
C      1  0.4784450000000  0.3919950000000  0.5044350000000 1.0
C      1  0.4957850000000  0.3991370000000  0.4781900000000 1.0
C      1  0.6186510000000  0.4497570000000  0.4898390000000 1.0
C      1  0.5374160000000  0.4415820000000  0.3833110000000 1.0
C      1  0.4028000000000  0.4394200000000  0.4223510000000 1.0
C      1  0.3997790000000  0.4338760000000  0.5671400000000 1.0
C      1  0.5305370000000  0.4369500000000  0.6074800000000 1.0
C      1  0.6053630000000  0.5574270000000  0.4858840000000 1.0
C      1  0.5424560000000  0.5667970000000  0.6141880000000 1.0
C      1  0.4068990000000  0.5577190000000  0.5640290000000 1.0
C      1  0.4113970000000  0.5494090000000  0.4200450000000 1.0
C      1  0.5483820000000  0.5458560000000  0.3971490000000 1.0
C      1  0.4429600000000  0.4562160000000  0.5104580000000 1.0
C      1  0.4901770000000  0.4586130000000  0.5544580000000 1.0
C      1  0.5563870000000  0.4637360000000  0.5239080000000 1.0
C      1  0.5350560000000  0.4625020000000  0.4618910000000 1.0
C      1  0.4669590000000  0.4586020000000  0.4508990000000 1.0
C      1  0.4441770000000  0.5365320000000  0.4904780000000 1.0
C      1  0.4939710000000  0.5391600000000  0.4446080000000 1.0
C      1  0.5564640000000  0.5444700000000  0.4831220000000 1.0
C      1  0.5401140000000  0.5448630000000  0.5445200000000 1.0
C      1  0.4755950000000  0.5443720000000  0.5507910000000 1.0
C      1  0.4772520000000  0.4575360000000  0.5922460000000 1.0
C      1  0.5887370000000  0.4643320000000  0.5463280000000 1.0
C      1  0.5543610000000  0.4694860000000  0.4277150000000 1.0
C      1  0.4404140000000  0.4664590000000  0.4202530000000 1.0
C      1  0.3952150000000  0.4522780000000  0.5094250000000 1.0
C      1  0.4905050000000  0.5350850000000  0.4053280000000 1.0
C      1  0.5932170000000  0.5322300000000  0.4732800000000 1.0
C      1  0.5780070000000  0.5496530000000  0.5690810000000 1.0
C      1  0.4641140000000  0.5450080000000  0.5890400000000 1.0
C      1  0.4051990000000  0.5342250000000  0.4840490000000 1.0
C      1  0.4582330000000  0.5006520000000  0.4736030000000 1.0
C      1  0.4608790000000  0.4995540000000  0.5294350000000 1.0
C      1  0.5494990000000  0.5008450000000  0.5057160000000 1.0
C      1  0.5078450000000  0.5018260000000  0.4616840000000 1.0
C      1  0.5202550000000  0.4982260000000  0.5533700000000 1.0
C      1  0.5021610000000  0.5460960000000  0.5051980000000 1.0
C      1  0.4971210000000  0.4528060000000  0.5004270000000 1.0
C      1  0.5116640000000  0.4931900000000  0.5147300000000 1.0
END
