TITL C-2782226-7400-972 -8.18617884109988 125000 -357.467630485097 0 0 60 (C1) n - 1
REM
REM in /home/nfs/bkarasulu/CARBON/AIRSS/Generating-Clusters/REBO/Higher-Symm/SD-CG/HFTN-CG
REM
REM
REM
REM
REM
REM ./C.cell (12c818d87b63d06a65506943cc24bca4)
REM
REM compiler GCC version 9.2.1 20190827 (Red Hat 9.2.1-1)
REM options -cpp -mtune=generic -march=x86-64 -g -O0 -fpre-include=/usr/include/finclude/math-vector-fortran.h
REM seed -542282562 -948633092 -323279743 -335697014 908988233 -1407800309 1430718626 -951030530 -711428526 -1728691532 1521175192 1427102900 120065790 -2133665899 -1401617030 746639125 1273066097 -1777034333 1062159497 60113336 1969840518 1342558860 593612048 1050882298 -1071491644 -902789116 1140551873 735884646 -1484648270 1745958637 345949999 1349103335 -648021491
REM
CELL 1.54180   50.00000   50.00000   50.00000   90.00000   90.00000   90.00000
LATT -1
SFAC C  
C      1  0.5741640000000  0.5156530000000  0.5129690000000 1.0
C      1  0.5729100000000  0.4846740000000  0.4879290000000 1.0
C      1  0.5735830000000  0.5182230000000  0.4812470000000 1.0
C      1  0.5744780000000  0.4820860000000  0.5196640000000 1.0
C      1  0.4702530000000  0.4853290000000  0.5115490000000 1.0
C      1  0.4621330000000  0.5131190000000  0.4842380000000 1.0
C      1  0.4614660000000  0.4837520000000  0.4805870000000 1.0
C      1  0.4726570000000  0.5160980000000  0.5137760000000 1.0
C      1  0.5750160000000  0.4825090000000  0.5544150000000 1.0
C      1  0.5722700000000  0.5178800000000  0.4466330000000 1.0
C      1  0.5714690000000  0.4891710000000  0.4539890000000 1.0
C      1  0.5744920000000  0.5111710000000  0.5469390000000 1.0
C      1  0.5267840000000  0.4549130000000  0.4892350000000 1.0
C      1  0.5290190000000  0.5472730000000  0.5145070000000 1.0
C      1  0.5282760000000  0.4529440000000  0.5174410000000 1.0
C      1  0.5272760000000  0.5474250000000  0.4861500000000 1.0
C      1  0.4319980000000  0.4670210000000  0.4784490000000 1.0
C      1  0.4417200000000  0.5313040000000  0.5130420000000 1.0
C      1  0.4413380000000  0.4668850000000  0.5103160000000 1.0
C      1  0.4324550000000  0.5280300000000  0.4804770000000 1.0
C      1  0.4604470000000  0.4563700000000  0.4526040000000 1.0
C      1  0.4662060000000  0.5421110000000  0.5424290000000 1.0
C      1  0.4652360000000  0.4583490000000  0.5409350000000 1.0
C      1  0.4604990000000  0.5405710000000  0.4553820000000 1.0
C      1  0.5499650000000  0.4638020000000  0.5305590000000 1.0
C      1  0.5483800000000  0.5366760000000  0.4717180000000 1.0
C      1  0.5479250000000  0.4668790000000  0.4763760000000 1.0
C      1  0.5506030000000  0.5344560000000  0.5259120000000 1.0
C      1  0.5021340000000  0.5510980000000  0.4737610000000 1.0
C      1  0.5046850000000  0.4476160000000  0.5320660000000 1.0
C      1  0.5062200000000  0.5528010000000  0.5304130000000 1.0
C      1  0.5023390000000  0.4510270000000  0.4756540000000 1.0
C      1  0.4668900000000  0.4864200000000  0.4376350000000 1.0
C      1  0.4703640000000  0.5173280000000  0.5648030000000 1.0
C      1  0.4677290000000  0.4869550000000  0.5595270000000 1.0
C      1  0.4692930000000  0.5168140000000  0.4333650000000 1.0
C      1  0.4449090000000  0.5147400000000  0.5421680000000 1.0
C      1  0.4361800000000  0.4808870000000  0.4498020000000 1.0
C      1  0.4402090000000  0.5130490000000  0.4509150000000 1.0
C      1  0.4412980000000  0.4830900000000  0.5388720000000 1.0
C      1  0.4954060000000  0.4696060000000  0.5532780000000 1.0
C      1  0.4934250000000  0.5331720000000  0.4492760000000 1.0
C      1  0.4925800000000  0.4689660000000  0.4509660000000 1.0
C      1  0.4975900000000  0.5321330000000  0.5531560000000 1.0
C      1  0.4864620000000  0.5674230000000  0.5180460000000 1.0
C      1  0.4833260000000  0.4363340000000  0.4894090000000 1.0
C      1  0.4823740000000  0.5633010000000  0.4888590000000 1.0
C      1  0.4861130000000  0.4323790000000  0.5188190000000 1.0
C      1  0.4540670000000  0.4374380000000  0.5163810000000 1.0
C      1  0.4518030000000  0.5559320000000  0.4833070000000 1.0
C      1  0.4529780000000  0.4410590000000  0.4821070000000 1.0
C      1  0.4543350000000  0.5614900000000  0.5170930000000 1.0
C      1  0.5471270000000  0.5247910000000  0.5545180000000 1.0
C      1  0.5432550000000  0.4760110000000  0.4478380000000 1.0
C      1  0.5427650000000  0.5286650000000  0.4426620000000 1.0
C      1  0.5452320000000  0.4721180000000  0.5596970000000 1.0
C      1  0.5173740000000  0.4871410000000  0.4422900000000 1.0
C      1  0.5213160000000  0.5141930000000  0.5609320000000 1.0
C      1  0.5199190000000  0.4857300000000  0.5628190000000 1.0
C      1  0.5172870000000  0.5156200000000  0.4401010000000 1.0
END
