TITL C-2782239-8622-508 -0.00181128424334087 125000 -311.232141836975 0 0 56 (C1) n - 1
REM
REM in /home/nfs/bkarasulu/CARBON/AIRSS/Generating-Clusters/REBO/Higher-Symm/SD-CG/HFTN-CG
REM
REM
REM
REM
REM
REM ./C.cell (12c818d87b63d06a65506943cc24bca4)
REM
REM compiler GCC version 9.2.1 20190827 (Red Hat 9.2.1-1)
REM options -cpp -mtune=generic -march=x86-64 -g -O0 -fpre-include=/usr/include/finclude/math-vector-fortran.h
REM seed -903580629 -968003080 476436464 248583229 925626987 -117325900 -1484981776 -1012867990 -1447044109 -1178513135 -1432234058 -2021137655 2073179118 258233371 674192454 -1546587378 1488291115 983608775 -2068136947 -1067876924 -827398452 906584090 452660036 -689692212 1880068694 1380516666 -130841987 -1337160373 -1288714902 -1178752040 1278519019 -1409298685 723894584
REM
CELL 1.54180   50.00000   50.00000   50.00000   90.00000   90.00000   90.00000
LATT -1
SFAC C  
C      1  0.4498460000000  0.4487030000000  0.4736690000000 1.0
C      1  0.4390610000000  0.5464620000000  0.4766340000000 1.0
C      1  0.4208710000000  0.5105830000000  0.5507230000000 1.0
C      1  0.5256940000000  0.4458060000000  0.5121950000000 1.0
C      1  0.5126400000000  0.5092840000000  0.4538310000000 1.0
C      1  0.5200080000000  0.5372000000000  0.5338840000000 1.0
C      1  0.5001300000000  0.5344360000000  0.4558890000000 1.0
C      1  0.5034980000000  0.5216880000000  0.5494070000000 1.0
C      1  0.5092980000000  0.4384810000000  0.4908760000000 1.0
C      1  0.4514290000000  0.4750100000000  0.5307270000000 1.0
C      1  0.4608240000000  0.4972310000000  0.4588310000000 1.0
C      1  0.4532330000000  0.5367830000000  0.5229320000000 1.0
C      1  0.4247020000000  0.4788130000000  0.5015070000000 1.0
C      1  0.4234760000000  0.4952300000000  0.4714520000000 1.0
C      1  0.4179300000000  0.5121940000000  0.5002400000000 1.0
C      1  0.5401380000000  0.5573090000000  0.5155240000000 1.0
C      1  0.5390790000000  0.4521030000000  0.5423700000000 1.0
C      1  0.5330220000000  0.4864790000000  0.4389460000000 1.0
C      1  0.5480960000000  0.4332290000000  0.5595110000000 1.0
C      1  0.5388660000000  0.4861670000000  0.4125280000000 1.0
C      1  0.5512210000000  0.5804000000000  0.5241910000000 1.0
C      1  0.5006750000000  0.4883390000000  0.5851800000000 1.0
C      1  0.5025770000000  0.4376990000000  0.4426490000000 1.0
C      1  0.5040940000000  0.5801670000000  0.4732460000000 1.0
C      1  0.5371680000000  0.5243970000000  0.5073810000000 1.0
C      1  0.5382480000000  0.4766670000000  0.5184460000000 1.0
C      1  0.5347710000000  0.4915200000000  0.4726270000000 1.0
C      1  0.5214620000000  0.4390540000000  0.4643850000000 1.0
C      1  0.5172900000000  0.5558820000000  0.4653850000000 1.0
C      1  0.5160920000000  0.5003370000000  0.5643420000000 1.0
C      1  0.4748930000000  0.4808570000000  0.5787760000000 1.0
C      1  0.4849710000000  0.4590040000000  0.4456840000000 1.0
C      1  0.4841160000000  0.5756120000000  0.4918980000000 1.0
C      1  0.4757670000000  0.4913910000000  0.5177640000000 1.0
C      1  0.4800620000000  0.4970040000000  0.4850400000000 1.0
C      1  0.4779940000000  0.5224140000000  0.5077470000000 1.0
C      1  0.4419820000000  0.5285350000000  0.5515230000000 1.0
C      1  0.4481520000000  0.4545410000000  0.5063570000000 1.0
C      1  0.4399980000000  0.5211380000000  0.4562480000000 1.0
C      1  0.4313370000000  0.5371100000000  0.5025170000000 1.0
C      1  0.4221220000000  0.4896640000000  0.5336140000000 1.0
C      1  0.4435000000000  0.4712400000000  0.4578620000000 1.0
C      1  0.4844730000000  0.4684070000000  0.4716210000000 1.0
C      1  0.4750870000000  0.5499270000000  0.4922130000000 1.0
C      1  0.4645580000000  0.4902860000000  0.5553940000000 1.0
C      1  0.6042890000000  0.5156160000000  0.5034900000000 1.0
C      1  0.6046630000000  0.4816560000000  0.5063100000000 1.0
C      1  0.6024310000000  0.4961770000000  0.4755610000000 1.0
C      1  0.4778850000000  0.4448020000000  0.4928120000000 1.0
C      1  0.4691080000000  0.5382410000000  0.4621020000000 1.0
C      1  0.4738400000000  0.5194420000000  0.5476640000000 1.0
C      1  0.5392490000000  0.4608370000000  0.4603970000000 1.0
C      1  0.5372430000000  0.5478950000000  0.4834490000000 1.0
C      1  0.5330590000000  0.4839780000000  0.5502730000000 1.0
C      1  0.5754950000000  0.4976700000000  0.4971060000000 1.0
C      1  0.5464750000000  0.4975190000000  0.4991410000000 1.0
END
