TITL C-2158984-8299-563 -0.00299728550479776 3375 -394.361904351978 0 0 60 (C1) n - 1
REM
REM in /scratch/bkarasulu/869
REM
REM
REM
REM
REM
REM ./C.cell (a2850807a9bf4ad07a5b6933b78d9264)
REM AIRSS Version 0.9.1 bugfix July 2018 build 013d7b7c2542+ Fri, 06 Jul 2018 19:26:36 +0100
REM compiler GCC version 9.2.1 20190827 (Red Hat 9.2.1-1)
REM options -cpp -mtune=generic -march=x86-64 -g -O0 -fpre-include=/usr/include/finclude/math-vector-fortran.h
REM seed 95651947 1202421548 -84532098 -750411409 13128064 753622915 -1246133509 -613200371 -876312988 -261370783 1302663348 670733216 1727701536 1376400301 773061832 1266839624 1426052575 1023829846 -1334495716 878073860 -641339004 1664328650 -2032208186 -907084479 2045242254 2013269358 -2059797544 1127489934 -974806816 620349354 1174429761 -999779572 1450410290
REM
CELL 1.54180   15.00000   15.00000   15.00000   90.00000   90.00000   90.00000
LATT -1
SFAC C  
C      1  0.5282020000000  0.2294520000000  0.4771500000000 1.0
C      1  0.3064870000000  0.3091420000000  0.4767100000000 1.0
C      1  0.2308190000000  0.5323370000000  0.4766900000000 1.0
C      1  0.3581760000000  0.7304610000000  0.4769370000000 1.0
C      1  0.5922890000000  0.7544030000000  0.4770400000000 1.0
C      1  0.7570390000000  0.5864960000000  0.4771020000000 1.0
C      1  0.7285660000000  0.3529820000000  0.4772950000000 1.0
C      1  0.6553660000000  0.7008340000000  0.5090990000000 1.0
C      1  0.7546510000000  0.5037530000000  0.5090790000000 1.0
C      1  0.6621670000000  0.3034850000000  0.5092350000000 1.0
C      1  0.4481950000000  0.2509560000000  0.5091450000000 1.0
C      1  0.2736420000000  0.3851490000000  0.5089190000000 1.0
C      1  0.2697860000000  0.6052720000000  0.5090840000000 1.0
C      1  0.4394340000000  0.7458030000000  0.5092070000000 1.0
C      1  0.3833770000000  0.3567590000000  0.6219240000000 1.0
C      1  0.3161810000000  0.5020430000000  0.6218730000000 1.0
C      1  0.3878690000000  0.6460090000000  0.6215000000000 1.0
C      1  0.5459670000000  0.6808720000000  0.6207270000000 1.0
C      1  0.6719210000000  0.5780600000000  0.6205130000000 1.0
C      1  0.6685400000000  0.4155050000000  0.6209900000000 1.0
C      1  0.5393520000000  0.3180340000000  0.6216200000000 1.0
C      1  0.6801720000000  0.5395000000000  0.3348800000000 1.0
C      1  0.6441100000000  0.3835340000000  0.3344580000000 1.0
C      1  0.4995420000000  0.3145260000000  0.3337830000000 1.0
C      1  0.3553590000000  0.3847080000000  0.3332720000000 1.0
C      1  0.3204370000000  0.5412180000000  0.3333660000000 1.0
C      1  0.4209490000000  0.6658960000000  0.3339900000000 1.0
C      1  0.5809460000000  0.6650360000000  0.3346900000000 1.0
C      1  0.5081740000000  0.3994670000000  0.4735560000000 1.0
C      1  0.4270330000000  0.4309790000000  0.4729510000000 1.0
C      1  0.4011810000000  0.5140710000000  0.4728470000000 1.0
C      1  0.4500590000000  0.5860370000000  0.4735190000000 1.0
C      1  0.5367450000000  0.5927870000000  0.4746840000000 1.0
C      1  0.5961000000000  0.5292470000000  0.4751910000000 1.0
C      1  0.5833880000000  0.4432150000000  0.4745820000000 1.0
C      1  0.6027010000000  0.2655600000000  0.4456280000000 1.0
C      1  0.3814390000000  0.2737220000000  0.4454930000000 1.0
C      1  0.2498630000000  0.4516770000000  0.4453270000000 1.0
C      1  0.3068760000000  0.6654040000000  0.4454530000000 1.0
C      1  0.5094750000000  0.7542640000000  0.4454710000000 1.0
C      1  0.7054720000000  0.6512220000000  0.4454030000000 1.0
C      1  0.7470460000000  0.4335960000000  0.4454980000000 1.0
C      1  0.4999740000000  0.7016870000000  0.3553280000000 1.0
C      1  0.6582740000000  0.6256180000000  0.3555250000000 1.0
C      1  0.6976600000000  0.4544250000000  0.3554250000000 1.0
C      1  0.5883590000000  0.3168950000000  0.3550840000000 1.0
C      1  0.4126660000000  0.3167670000000  0.3546440000000 1.0
C      1  0.3029900000000  0.4540200000000  0.3544980000000 1.0
C      1  0.3418360000000  0.6253240000000  0.3548690000000 1.0
C      1  0.7037440000000  0.4949600000000  0.6007070000000 1.0
C      1  0.6233960000000  0.3390330000000  0.6000900000000 1.0
C      1  0.4520180000000  0.3042090000000  0.5991460000000 1.0
C      1  0.3176750000000  0.4155850000000  0.5986110000000 1.0
C      1  0.3215130000000  0.5901290000000  0.5990520000000 1.0
C      1  0.4603420000000  0.6967850000000  0.5999420000000 1.0
C      1  0.6309420000000  0.6549430000000  0.6006410000000 1.0
C      1  0.4897030000000  0.4942700000000  0.7275110000000 1.0
C      1  0.5008380000000  0.4993980000000  0.3204240000000 1.0
C      1  0.4976480000000  0.4980090000000  0.6348860000000 1.0
C      1  0.5084500000000  0.5027980000000  0.8104370000000 1.0
END
