TITL C-2159252-5904-170 -0.00240062148184386 3375 -356.823517446945 0 0 60 (Td) n - 1
REM
REM in /scratch/bkarasulu/870
REM
REM
REM
REM
REM
REM ./C.cell (a2850807a9bf4ad07a5b6933b78d9264)
REM AIRSS Version 0.9.1 bugfix July 2018 build 013d7b7c2542+ Fri, 06 Jul 2018 19:26:36 +0100
REM compiler GCC version 9.2.1 20190827 (Red Hat 9.2.1-1)
REM options -cpp -mtune=generic -march=x86-64 -g -O0 -fpre-include=/usr/include/finclude/math-vector-fortran.h
REM seed 1316471127 1295903134 627400552 -2045786370 4619796 498156151 -387398349 2095388106 -568319044 -1718272458 412465531 921674894 481743679 1806948205 -1146067581 1929272405 -654494791 -837885228 1798375949 1402543239 741934252 1684511240 -1810741499 704235218 -206869087 -2052808863 -1723177171 1594680841 -1717435953 -589166401 1458458967 1376796257 -2124408921
REM
CELL 1.54180   15.00000   15.00000   15.00000   90.00000   90.00000   90.00000
LATT -1
SFAC C  
C      1  0.4588020000000  0.3983550000000  0.7407470000000 1.0
C      1  0.3983550000000  0.7407470000000  0.4588020000000 1.0
C      1  0.7407470000000  0.4588020000000  0.3983550000000 1.0
C      1  0.5411980000000  0.6016450000000  0.7407470000000 1.0
C      1  0.4588020000000  0.6016450000000  0.2592530000000 1.0
C      1  0.5411980000000  0.3983550000000  0.2592530000000 1.0
C      1  0.6016450000000  0.2592530000000  0.4588020000000 1.0
C      1  0.3983550000000  0.2592530000000  0.5411980000000 1.0
C      1  0.6016450000000  0.7407470000000  0.5411980000000 1.0
C      1  0.2592530000000  0.5411980000000  0.3983550000000 1.0
C      1  0.7407470000000  0.5411980000000  0.6016450000000 1.0
C      1  0.2592530000000  0.4588020000000  0.6016450000000 1.0
C      1  0.3983550000000  0.4588020000000  0.7407470000000 1.0
C      1  0.7407470000000  0.3983550000000  0.4588020000000 1.0
C      1  0.4588020000000  0.7407470000000  0.3983550000000 1.0
C      1  0.6016450000000  0.5411980000000  0.7407470000000 1.0
C      1  0.6016450000000  0.4588020000000  0.2592530000000 1.0
C      1  0.3983550000000  0.5411980000000  0.2592530000000 1.0
C      1  0.2592530000000  0.6016450000000  0.4588020000000 1.0
C      1  0.2592530000000  0.3983550000000  0.5411980000000 1.0
C      1  0.7407470000000  0.6016450000000  0.5411980000000 1.0
C      1  0.5411980000000  0.2592530000000  0.3983550000000 1.0
C      1  0.5411980000000  0.7407470000000  0.6016450000000 1.0
C      1  0.4588020000000  0.2592530000000  0.6016450000000 1.0
C      1  0.4240660000000  0.4986570000000  0.3518410000000 1.0
C      1  0.4986570000000  0.3518410000000  0.4240660000000 1.0
C      1  0.3518410000000  0.4240660000000  0.4986570000000 1.0
C      1  0.5759340000000  0.5013430000000  0.3518410000000 1.0
C      1  0.4240660000000  0.5013430000000  0.6481590000000 1.0
C      1  0.5759340000000  0.4986570000000  0.6481590000000 1.0
C      1  0.5013430000000  0.6481590000000  0.4240660000000 1.0
C      1  0.4986570000000  0.6481590000000  0.5759340000000 1.0
C      1  0.5013430000000  0.3518410000000  0.5759340000000 1.0
C      1  0.6481590000000  0.5759340000000  0.4986570000000 1.0
C      1  0.3518410000000  0.5759340000000  0.5013430000000 1.0
C      1  0.6481590000000  0.4240660000000  0.5013430000000 1.0
C      1  0.4986570000000  0.4240660000000  0.3518410000000 1.0
C      1  0.3518410000000  0.4986570000000  0.4240660000000 1.0
C      1  0.4240660000000  0.3518410000000  0.4986570000000 1.0
C      1  0.5013430000000  0.5759340000000  0.3518410000000 1.0
C      1  0.5013430000000  0.4240660000000  0.6481590000000 1.0
C      1  0.4986570000000  0.5759340000000  0.6481590000000 1.0
C      1  0.6481590000000  0.5013430000000  0.4240660000000 1.0
C      1  0.6481590000000  0.4986570000000  0.5759340000000 1.0
C      1  0.3518410000000  0.5013430000000  0.5759340000000 1.0
C      1  0.5759340000000  0.6481590000000  0.4986570000000 1.0
C      1  0.5759340000000  0.3518410000000  0.5013430000000 1.0
C      1  0.4240660000000  0.6481590000000  0.5013430000000 1.0
C      1  0.3098260000000  0.6901740000000  0.6247250000000 1.0
C      1  0.6247250000000  0.3098260000000  0.6901740000000 1.0
C      1  0.6247250000000  0.6901740000000  0.3098260000000 1.0
C      1  0.3098260000000  0.6247250000000  0.6901740000000 1.0
C      1  0.6901740000000  0.6247250000000  0.3098260000000 1.0
C      1  0.3752750000000  0.6901740000000  0.6901740000000 1.0
C      1  0.6901740000000  0.3098260000000  0.6247250000000 1.0
C      1  0.3098260000000  0.3098260000000  0.3752750000000 1.0
C      1  0.6901740000000  0.6901740000000  0.3752750000000 1.0
C      1  0.6901740000000  0.3752750000000  0.6901740000000 1.0
C      1  0.3752750000000  0.3098260000000  0.3098260000000 1.0
C      1  0.3098260000000  0.3752750000000  0.3098260000000 1.0
END
