TITL C-2158984-8299-649 -0.00237883573558096 3375 -395.799898028413 0 0 60 (Cs) n - 1
REM
REM in /scratch/bkarasulu/869
REM
REM
REM
REM
REM
REM ./C.cell (a2850807a9bf4ad07a5b6933b78d9264)
REM AIRSS Version 0.9.1 bugfix July 2018 build 013d7b7c2542+ Fri, 06 Jul 2018 19:26:36 +0100
REM compiler GCC version 9.2.1 20190827 (Red Hat 9.2.1-1)
REM options -cpp -mtune=generic -march=x86-64 -g -O0 -fpre-include=/usr/include/finclude/math-vector-fortran.h
REM seed 290925307 -1536598133 -1300723439 -701790659 854192036 1307007072 -2035939373 -2079649910 164675323 -407791499 -478537856 -1389410913 -2118639512 -1752280882 251693241 379813371 -911179856 -974507061 1671834506 -1423325484 -210405920 -818544656 2011509139 -1666441552 -1641114882 -2019652140 -1084495554 625591126 642095000 634305099 1215396290 1081735895 -81026692
REM
CELL 1.54180   15.00000   15.00000   15.00000   90.00000   90.00000   90.00000
LATT -1
SFAC C  
C      1  0.3272030000000  0.3847110000000  0.4847220000000 1.0
C      1  0.3282190000000  0.4211150000000  0.5754450000000 1.0
C      1  0.3390600000000  0.5123140000000  0.6056060000000 1.0
C      1  0.3390710000000  0.5943380000000  0.5501880000000 1.0
C      1  0.3282450000000  0.6003920000000  0.4543200000000 1.0
C      1  0.3272230000000  0.5298080000000  0.3866910000000 1.0
C      1  0.3301430000000  0.4347460000000  0.4023850000000 1.0
C      1  0.4032800000000  0.3114750000000  0.6948990000000 1.0
C      1  0.4275920000000  0.5402250000000  0.7613880000000 1.0
C      1  0.4276120000000  0.7284440000000  0.6342160000000 1.0
C      1  0.4033420000000  0.7521210000000  0.3971910000000 1.0
C      1  0.4211210000000  0.5792970000000  0.2399450000000 1.0
C      1  0.4276940000000  0.3503330000000  0.2774610000000 1.0
C      1  0.4210740000000  0.2300790000000  0.4758900000000 1.0
C      1  0.6841910000000  0.6361380000000  0.3804930000000 1.0
C      1  0.6932220000000  0.4845800000000  0.3354450000000 1.0
C      1  0.6932030000000  0.3539820000000  0.4236870000000 1.0
C      1  0.6841510000000  0.3392160000000  0.5811050000000 1.0
C      1  0.6505840000000  0.4610460000000  0.6869850000000 1.0
C      1  0.7398990000000  0.5873500000000  0.6283320000000 1.0
C      1  0.6506140000000  0.6889170000000  0.5330280000000 1.0
C      1  0.5644110000000  0.3922890000000  0.3395900000000 1.0
C      1  0.5590200000000  0.2972590000000  0.4888760000000 1.0
C      1  0.5469070000000  0.3415930000000  0.6570730000000 1.0
C      1  0.5662480000000  0.5037630000000  0.7023770000000 1.0
C      1  0.5662710000000  0.6872740000000  0.5783920000000 1.0
C      1  0.5469560000000  0.7057610000000  0.4110310000000 1.0
C      1  0.5590570000000  0.5662520000000  0.3071350000000 1.0
C      1  0.4899960000000  0.3718120000000  0.4934560000000 1.0
C      1  0.4845730000000  0.3939680000000  0.5969520000000 1.0
C      1  0.4940960000000  0.4900120000000  0.6344990000000 1.0
C      1  0.4941160000000  0.6294370000000  0.5403020000000 1.0
C      1  0.4846050000000  0.6304480000000  0.4371800000000 1.0
C      1  0.4900190000000  0.5426950000000  0.3780030000000 1.0
C      1  0.4964120000000  0.4346680000000  0.4023030000000 1.0
C      1  0.7247570000000  0.5108900000000  0.6651750000000 1.0
C      1  0.7247740000000  0.6500690000000  0.5711440000000 1.0
C      1  0.6385150000000  0.6911850000000  0.4359700000000 1.0
C      1  0.6548850000000  0.5674050000000  0.3274140000000 1.0
C      1  0.6609890000000  0.4001940000000  0.3513110000000 1.0
C      1  0.6548510000000  0.3156260000000  0.4975250000000 1.0
C      1  0.6384710000000  0.3701530000000  0.6528700000000 1.0
C      1  0.4059930000000  0.5173590000000  0.6753780000000 1.0
C      1  0.4060120000000  0.6571720000000  0.5809160000000 1.0
C      1  0.3885060000000  0.6670260000000  0.4228390000000 1.0
C      1  0.3976070000000  0.5512650000000  0.3240400000000 1.0
C      1  0.4023090000000  0.3995990000000  0.3503780000000 1.0
C      1  0.3975750000000  0.3185660000000  0.4812600000000 1.0
C      1  0.3884640000000  0.3670280000000  0.6255210000000 1.0
C      1  0.5148830000000  0.5378020000000  0.7694010000000 1.0
C      1  0.5149020000000  0.7367780000000  0.6349600000000 1.0
C      1  0.4880660000000  0.7713560000000  0.3892190000000 1.0
C      1  0.5079300000000  0.5869950000000  0.2325020000000 1.0
C      1  0.5150700000000  0.3481040000000  0.2741790000000 1.0
C      1  0.5078800000000  0.2202860000000  0.4802660000000 1.0
C      1  0.4880000000000  0.2968890000000  0.7097800000000 1.0
C      1  0.5758190000000  0.5025900000000  0.5028530000000 1.0
C      1  0.5000770000000  0.5356110000000  0.5517100000000 1.0
C      1  0.4043290000000  0.5178700000000  0.5254330000000 1.0
C      1  0.6547150000000  0.4977330000000  0.4956670000000 1.0
END
