TITL C-2158988-7926-684 -0.00337110476618924 3375 -410.941888906675 0 0 60 (C1) n - 1
REM
REM in /scratch/bkarasulu/868
REM
REM
REM
REM
REM
REM ./C.cell (a2850807a9bf4ad07a5b6933b78d9264)
REM AIRSS Version 0.9.1 bugfix July 2018 build 013d7b7c2542+ Fri, 06 Jul 2018 19:26:36 +0100
REM compiler GCC version 9.2.1 20190827 (Red Hat 9.2.1-1)
REM options -cpp -mtune=generic -march=x86-64 -g -O0 -fpre-include=/usr/include/finclude/math-vector-fortran.h
REM seed -1930042008 1510125517 1396181575 999774998 -1235096305 -1478508222 -1395910786 -542261285 1022009139 -1572879361 1100802572 -1398849783 1651554076 -1398583476 -1736622898 1766119079 -1492419086 1568569123 -915013080 1647298650 752331597 1658051148 -878916041 -1876090254 -1670739062 -1346555939 1332244249 -1907209613 938909419 -1118772307 2098357910 1268766736 -812681490
REM
CELL 1.54180   15.00000   15.00000   15.00000   90.00000   90.00000   90.00000
LATT -1
SFAC C  
C      1  0.3237530000000  0.3606740000000  0.6025360000000 1.0
C      1  0.3232500000000  0.3331060000000  0.4528200000000 1.0
C      1  0.3252610000000  0.4341530000000  0.3405700000000 1.0
C      1  0.3261220000000  0.5836080000000  0.3496550000000 1.0
C      1  0.3276730000000  0.6701660000000  0.4714420000000 1.0
C      1  0.3244010000000  0.6338240000000  0.6185540000000 1.0
C      1  0.3243240000000  0.4950350000000  0.6761110000000 1.0
C      1  0.3731310000000  0.6563010000000  0.3891650000000 1.0
C      1  0.3729450000000  0.6848920000000  0.5535980000000 1.0
C      1  0.3663490000000  0.5832240000000  0.6897060000000 1.0
C      1  0.3733700000000  0.4143560000000  0.6631830000000 1.0
C      1  0.3696540000000  0.3069220000000  0.5346220000000 1.0
C      1  0.3728480000000  0.3604200000000  0.3762210000000 1.0
C      1  0.3713380000000  0.5112680000000  0.3083690000000 1.0
C      1  0.5313920000000  0.5479690000000  0.6019590000000 1.0
C      1  0.5271340000000  0.4545180000000  0.5990880000000 1.0
C      1  0.5645200000000  0.4067490000000  0.5163070000000 1.0
C      1  0.5225440000000  0.4227930000000  0.4257090000000 1.0
C      1  0.5154260000000  0.5078550000000  0.3903190000000 1.0
C      1  0.5135070000000  0.5902420000000  0.4379960000000 1.0
C      1  0.5156560000000  0.6074180000000  0.5302770000000 1.0
C      1  0.4678340000000  0.6961650000000  0.5563560000000 1.0
C      1  0.4485360000000  0.6004010000000  0.7237280000000 1.0
C      1  0.4700360000000  0.4089440000000  0.6678270000000 1.0
C      1  0.4555540000000  0.2857540000000  0.5367800000000 1.0
C      1  0.4700180000000  0.3541650000000  0.3750010000000 1.0
C      1  0.4662270000000  0.5112630000000  0.2994740000000 1.0
C      1  0.4676870000000  0.6659090000000  0.3826270000000 1.0
C      1  0.5211290000000  0.3749910000000  0.7340820000000 1.0
C      1  0.5437770000000  0.2963270000000  0.5403930000000 1.0
C      1  0.5245420000000  0.2924520000000  0.3373490000000 1.0
C      1  0.5176800000000  0.5179850000000  0.2264960000000 1.0
C      1  0.5219220000000  0.7184430000000  0.3338790000000 1.0
C      1  0.5231870000000  0.7627350000000  0.5787110000000 1.0
C      1  0.5340220000000  0.5897460000000  0.6966120000000 1.0
C      1  0.2525940000000  0.5833390000000  0.5748040000000 1.0
C      1  0.2511400000000  0.4968830000000  0.6107820000000 1.0
C      1  0.2504350000000  0.4129320000000  0.5647120000000 1.0
C      1  0.2502280000000  0.3953560000000  0.4716180000000 1.0
C      1  0.2501030000000  0.4581610000000  0.4004550000000 1.0
C      1  0.2525430000000  0.5519480000000  0.4071260000000 1.0
C      1  0.2535210000000  0.6067820000000  0.4833760000000 1.0
C      1  0.6567730000000  0.4480210000000  0.7691680000000 1.0
C      1  0.6666210000000  0.1842790000000  0.5968100000000 1.0
C      1  0.6522410000000  0.3574550000000  0.2768190000000 1.0
C      1  0.6483790000000  0.4374820000000  0.2468460000000 1.0
C      1  0.6609070000000  0.7387120000000  0.4092960000000 1.0
C      1  0.6547140000000  0.7572290000000  0.4936680000000 1.0
C      1  0.6723290000000  0.5331850000000  0.7597650000000 1.0
C      1  0.5997640000000  0.3829650000000  0.7677240000000 1.0
C      1  0.6052220000000  0.2343390000000  0.5659730000000 1.0
C      1  0.6047810000000  0.2898340000000  0.3073030000000 1.0
C      1  0.6025530000000  0.5049380000000  0.2138360000000 1.0
C      1  0.6076040000000  0.7315120000000  0.3392590000000 1.0
C      1  0.6066540000000  0.7806100000000  0.5630170000000 1.0
C      1  0.6168230000000  0.5941760000000  0.7352870000000 1.0
C      1  0.7869360000000  0.5454420000000  0.5197520000000 1.0
C      1  0.6548600000000  0.4385030000000  0.5130020000000 1.0
C      1  0.7187950000000  0.4930920000000  0.5088350000000 1.0
C      1  0.3854400000000  0.4934410000000  0.5000870000000 1.0
END
