TITL C-2158984-8299-265 -0.00202759970418528 3375 -405.724922592881 0 0 60 (C2) n - 1
REM
REM in /scratch/bkarasulu/869
REM
REM
REM
REM
REM
REM ./C.cell (a2850807a9bf4ad07a5b6933b78d9264)
REM AIRSS Version 0.9.1 bugfix July 2018 build 013d7b7c2542+ Fri, 06 Jul 2018 19:26:36 +0100
REM compiler GCC version 9.2.1 20190827 (Red Hat 9.2.1-1)
REM options -cpp -mtune=generic -march=x86-64 -g -O0 -fpre-include=/usr/include/finclude/math-vector-fortran.h
REM seed -1232798188 1988196286 -261090425 1028828442 -1881866984 548129966 -188374400 75652600 -767902751 1185916829 1377675374 -1289439748 -229286602 -1872474388 997051104 248077976 -476868438 -2043903378 1172627192 2053401498 1809651364 1786038737 251866312 3418043 -698314232 -1040562251 1126400701 1035895070 1643529618 1463171354 1235582753 1738159329 2027758108
REM
CELL 1.54180   15.00000   15.00000   15.00000   90.00000   90.00000   90.00000
LATT -1
SFAC C  
C      1  0.3265630000000  0.3257130000000  0.5073960000000 1.0
C      1  0.3265630000000  0.6742870000000  0.4926040000000 1.0
C      1  0.7557430000000  0.5494500000000  0.4963910000000 1.0
C      1  0.7557430000000  0.4505500000000  0.5036090000000 1.0
C      1  0.5442940000000  0.6821180000000  0.3667320000000 1.0
C      1  0.5442940000000  0.3178820000000  0.6332680000000 1.0
C      1  0.3486910000000  0.3536220000000  0.4197590000000 1.0
C      1  0.3486910000000  0.6463780000000  0.5802410000000 1.0
C      1  0.4368870000000  0.4665720000000  0.4651430000000 1.0
C      1  0.4368870000000  0.5334280000000  0.5348570000000 1.0
C      1  0.4609430000000  0.6416730000000  0.3337760000000 1.0
C      1  0.4609430000000  0.3583270000000  0.6662240000000 1.0
C      1  0.3098310000000  0.4664060000000  0.6200470000000 1.0
C      1  0.3098310000000  0.5335940000000  0.3799530000000 1.0
C      1  0.4569890000000  0.2318930000000  0.5198170000000 1.0
C      1  0.4569890000000  0.7681070000000  0.4801830000000 1.0
C      1  0.4723630000000  0.4546520000000  0.6703910000000 1.0
C      1  0.4723630000000  0.5453480000000  0.3296090000000 1.0
C      1  0.5685550000000  0.4261150000000  0.3788150000000 1.0
C      1  0.5685550000000  0.5738850000000  0.6211850000000 1.0
C      1  0.6039970000000  0.6246210000000  0.5387350000000 1.0
C      1  0.6039970000000  0.3753790000000  0.4612650000000 1.0
C      1  0.4377250000000  0.3234800000000  0.3784920000000 1.0
C      1  0.4377250000000  0.6765200000000  0.6215080000000 1.0
C      1  0.5734790000000  0.2815530000000  0.4700980000000 1.0
C      1  0.5734790000000  0.7184470000000  0.5299020000000 1.0
C      1  0.3491930000000  0.4492590000000  0.4150340000000 1.0
C      1  0.3491930000000  0.5507410000000  0.5849660000000 1.0
C      1  0.3169330000000  0.3809000000000  0.5897030000000 1.0
C      1  0.3169330000000  0.6191000000000  0.4102970000000 1.0
C      1  0.3804710000000  0.3204820000000  0.6343270000000 1.0
C      1  0.3804710000000  0.6795180000000  0.3656730000000 1.0
C      1  0.7597250000000  0.5767350000000  0.4100420000000 1.0
C      1  0.7597250000000  0.4232650000000  0.5899580000000 1.0
C      1  0.4453990000000  0.5361060000000  0.7147770000000 1.0
C      1  0.4453990000000  0.4638940000000  0.2852230000000 1.0
C      1  0.5137570000000  0.5036920000000  0.4094880000000 1.0
C      1  0.5137570000000  0.4963080000000  0.5905120000000 1.0
C      1  0.6817200000000  0.4388910000000  0.6369530000000 1.0
C      1  0.6817200000000  0.5611090000000  0.3630470000000 1.0
C      1  0.3660140000000  0.5101820000000  0.6786650000000 1.0
C      1  0.3660140000000  0.4898180000000  0.3213350000000 1.0
C      1  0.3801810000000  0.2623750000000  0.5554200000000 1.0
C      1  0.3801810000000  0.7376250000000  0.4445800000000 1.0
C      1  0.4673550000000  0.6098560000000  0.4828290000000 1.0
C      1  0.4673550000000  0.3901440000000  0.5171710000000 1.0
C      1  0.5386010000000  0.7429890000000  0.4403670000000 1.0
C      1  0.5386010000000  0.2570110000000  0.5596330000000 1.0
C      1  0.5610980000000  0.5835740000000  0.4551090000000 1.0
C      1  0.5610980000000  0.4164260000000  0.5448910000000 1.0
C      1  0.4894240000000  0.6099400000000  0.6716600000000 1.0
C      1  0.4894240000000  0.3900600000000  0.3283400000000 1.0
C      1  0.6113380000000  0.3800680000000  0.6204220000000 1.0
C      1  0.6113380000000  0.6199320000000  0.3795780000000 1.0
C      1  0.6952340000000  0.5862120000000  0.5603180000000 1.0
C      1  0.6952340000000  0.4137880000000  0.4396820000000 1.0
C      1  0.6599500000000  0.5355720000000  0.6310860000000 1.0
C      1  0.6599500000000  0.4644280000000  0.3689140000000 1.0
C      1  0.4875470000000  0.2617040000000  0.4293760000000 1.0
C      1  0.4875470000000  0.7382960000000  0.5706240000000 1.0
END
