TITL C-2159255-4746-919 -0.0018895383010584 3375 -414.959723336874 0 0 60 (Ci) n - 1
REM
REM in /scratch/bkarasulu/871
REM
REM
REM
REM
REM
REM ./C.cell (a2850807a9bf4ad07a5b6933b78d9264)
REM AIRSS Version 0.9.1 bugfix July 2018 build 013d7b7c2542+ Fri, 06 Jul 2018 19:26:36 +0100
REM compiler GCC version 9.2.1 20190827 (Red Hat 9.2.1-1)
REM options -cpp -mtune=generic -march=x86-64 -g -O0 -fpre-include=/usr/include/finclude/math-vector-fortran.h
REM seed -129926774 181777489 1589973375 1662102534 -339666463 619375752 1044063874 179902765 607301205 -565791128 2048771109 -412977288 811833347 -1407017428 -1813206725 -1218845675 -1805266372 227343770 850274389 776027396 1352074416 -511786553 755030921 -1936173574 -433377614 840438654 -124197974 1464976236 484436398 1579460615 1812704422 -1151495573 806465649
REM
CELL 1.54180   15.00000   15.00000   15.00000   90.00000   90.00000   90.00000
LATT -1
SFAC C  
C      1  0.5326360000000  0.5097890000000  0.2871540000000 1.0
C      1  0.7032750000000  0.4896610000000  0.4206070000000 1.0
C      1  0.6630620000000  0.5151630000000  0.6344230000000 1.0
C      1  0.4673640000000  0.4902110000000  0.7128460000000 1.0
C      1  0.2967250000000  0.5103390000000  0.5793930000000 1.0
C      1  0.3369380000000  0.4848370000000  0.3655770000000 1.0
C      1  0.5822830000000  0.2825450000000  0.4508630000000 1.0
C      1  0.5836260000000  0.7202100000000  0.5491230000000 1.0
C      1  0.4969780000000  0.2863450000000  0.5923910000000 1.0
C      1  0.4177170000000  0.7174550000000  0.5491370000000 1.0
C      1  0.4163740000000  0.2797900000000  0.4508770000000 1.0
C      1  0.5030220000000  0.7136550000000  0.4076090000000 1.0
C      1  0.4455170000000  0.5815720000000  0.6864800000000 1.0
C      1  0.3297290000000  0.4253120000000  0.5385820000000 1.0
C      1  0.3774390000000  0.5739510000000  0.3615330000000 1.0
C      1  0.5544830000000  0.4184280000000  0.3135200000000 1.0
C      1  0.6702710000000  0.5746880000000  0.4614180000000 1.0
C      1  0.6225610000000  0.4260490000000  0.6384670000000 1.0
C      1  0.4216340000000  0.7079350000000  0.4530080000000 1.0
C      1  0.5023050000000  0.2849930000000  0.4026640000000 1.0
C      1  0.5863590000000  0.7146590000000  0.4557100000000 1.0
C      1  0.5783660000000  0.2920650000000  0.5469920000000 1.0
C      1  0.4976950000000  0.7150070000000  0.5973360000000 1.0
C      1  0.4136410000000  0.2853410000000  0.5442900000000 1.0
C      1  0.6446660000000  0.6653790000000  0.5968580000000 1.0
C      1  0.4855680000000  0.3413320000000  0.6686730000000 1.0
C      1  0.3444910000000  0.6641560000000  0.5786940000000 1.0
C      1  0.3553340000000  0.3346210000000  0.4031420000000 1.0
C      1  0.5144320000000  0.6586680000000  0.3313270000000 1.0
C      1  0.6555090000000  0.3358440000000  0.4213060000000 1.0
C      1  0.5706140000000  0.5461500000000  0.4634870000000 1.0
C      1  0.5606240000000  0.4556870000000  0.4523170000000 1.0
C      1  0.5189830000000  0.5822050000000  0.5285910000000 1.0
C      1  0.4293860000000  0.4538500000000  0.5365130000000 1.0
C      1  0.4393760000000  0.5443130000000  0.5476830000000 1.0
C      1  0.4810170000000  0.4177950000000  0.4714090000000 1.0
C      1  0.3991140000000  0.3594910000000  0.3199250000000 1.0
C      1  0.6081020000000  0.6362260000000  0.3252310000000 1.0
C      1  0.7031970000000  0.3670750000000  0.5008110000000 1.0
C      1  0.6008860000000  0.6405090000000  0.6800750000000 1.0
C      1  0.3918980000000  0.3637740000000  0.6747690000000 1.0
C      1  0.2968030000000  0.6329250000000  0.4991890000000 1.0
C      1  0.3512440000000  0.3436050000000  0.5896970000000 1.0
C      1  0.3558200000000  0.6438510000000  0.4249250000000 1.0
C      1  0.4932670000000  0.3456710000000  0.3269220000000 1.0
C      1  0.6487560000000  0.6563950000000  0.4103030000000 1.0
C      1  0.6441800000000  0.3561490000000  0.5750750000000 1.0
C      1  0.5067330000000  0.6543290000000  0.6730780000000 1.0
C      1  0.6120130000000  0.5604370000000  0.2757920000000 1.0
C      1  0.7538730000000  0.4400390000000  0.4772010000000 1.0
C      1  0.6427320000000  0.5651130000000  0.7106150000000 1.0
C      1  0.3879870000000  0.4395630000000  0.7242080000000 1.0
C      1  0.2461270000000  0.5599610000000  0.5227990000000 1.0
C      1  0.3572680000000  0.4348870000000  0.2893850000000 1.0
C      1  0.3704820000000  0.5806000000000  0.6189890000000 1.0
C      1  0.3167120000000  0.4123900000000  0.4389450000000 1.0
C      1  0.4633510000000  0.5808860000000  0.3161450000000 1.0
C      1  0.6295180000000  0.4194000000000  0.3810110000000 1.0
C      1  0.6832880000000  0.5876100000000  0.5610550000000 1.0
C      1  0.5366490000000  0.4191140000000  0.6838550000000 1.0
END
