TITL C-2158988-7926-663 -0.0017273646220886 3375 -388.17526255789 0 0 60 (S4) n - 1
REM
REM in /scratch/bkarasulu/868
REM
REM
REM
REM
REM
REM ./C.cell (a2850807a9bf4ad07a5b6933b78d9264)
REM AIRSS Version 0.9.1 bugfix July 2018 build 013d7b7c2542+ Fri, 06 Jul 2018 19:26:36 +0100
REM compiler GCC version 9.2.1 20190827 (Red Hat 9.2.1-1)
REM options -cpp -mtune=generic -march=x86-64 -g -O0 -fpre-include=/usr/include/finclude/math-vector-fortran.h
REM seed 54445619 381721609 1191991672 1219024628 -1456010183 746278301 -1480381006 1652525390 -265782940 1335101766 -1564664065 1795294219 -1932199482 -1790840688 887318603 -2037312217 -1962465892 164914700 -985760617 -2019322654 -934708523 -720342136 -1935224035 168069920 1160670742 -884685084 491012343 339763912 -1305918363 -578112803 -1122312529 1322475633 -298293448
REM
CELL 1.54180   15.00000   15.00000   15.00000   90.00000   90.00000   90.00000
LATT -1
SFAC C  
C      1  0.3417600000000  0.5086280000000  0.4280960000000 1.0
C      1  0.4280960000000  0.4913720000000  0.6582400000000 1.0
C      1  0.6582400000000  0.5086280000000  0.5719040000000 1.0
C      1  0.5719040000000  0.4913720000000  0.3417600000000 1.0
C      1  0.4422330000000  0.4399170000000  0.2708410000000 1.0
C      1  0.2708410000000  0.5600830000000  0.5577670000000 1.0
C      1  0.5577670000000  0.4399170000000  0.7291590000000 1.0
C      1  0.7291590000000  0.5600830000000  0.4422330000000 1.0
C      1  0.5011120000000  0.5669510000000  0.4541130000000 1.0
C      1  0.4541130000000  0.4330490000000  0.4988880000000 1.0
C      1  0.4988880000000  0.5669510000000  0.5458870000000 1.0
C      1  0.5458870000000  0.4330490000000  0.5011120000000 1.0
C      1  0.7295890000000  0.5156920000000  0.3648660000000 1.0
C      1  0.3648660000000  0.4843080000000  0.2704110000000 1.0
C      1  0.2704110000000  0.5156920000000  0.6351340000000 1.0
C      1  0.6351340000000  0.4843080000000  0.7295890000000 1.0
C      1  0.6492900000000  0.5795660000000  0.6876430000000 1.0
C      1  0.6876430000000  0.4204340000000  0.3507100000000 1.0
C      1  0.3507100000000  0.5795660000000  0.3123570000000 1.0
C      1  0.3123570000000  0.4204340000000  0.6492900000000 1.0
C      1  0.5808280000000  0.5036030000000  0.4365460000000 1.0
C      1  0.4365460000000  0.4963970000000  0.4191720000000 1.0
C      1  0.4191720000000  0.5036030000000  0.5634540000000 1.0
C      1  0.5634540000000  0.4963970000000  0.5808280000000 1.0
C      1  0.4421470000000  0.7130610000000  0.6642300000000 1.0
C      1  0.6642300000000  0.2869390000000  0.5578530000000 1.0
C      1  0.5578530000000  0.7130610000000  0.3357700000000 1.0
C      1  0.3357700000000  0.2869390000000  0.4421470000000 1.0
C      1  0.4850220000000  0.3714150000000  0.6887430000000 1.0
C      1  0.6887430000000  0.6285850000000  0.5149780000000 1.0
C      1  0.5149780000000  0.3714150000000  0.3112570000000 1.0
C      1  0.3112570000000  0.6285850000000  0.4850220000000 1.0
C      1  0.6048220000000  0.4134130000000  0.3031780000000 1.0
C      1  0.3031780000000  0.5865870000000  0.3951780000000 1.0
C      1  0.3951780000000  0.4134130000000  0.6968220000000 1.0
C      1  0.6968220000000  0.5865870000000  0.6048220000000 1.0
C      1  0.5203920000000  0.5129160000000  0.6725600000000 1.0
C      1  0.6725600000000  0.4870840000000  0.4796080000000 1.0
C      1  0.4796080000000  0.5129160000000  0.3274400000000 1.0
C      1  0.3274400000000  0.4870840000000  0.5203920000000 1.0
C      1  0.6058440000000  0.6739750000000  0.5039230000000 1.0
C      1  0.5039230000000  0.3260250000000  0.3941560000000 1.0
C      1  0.3941560000000  0.6739750000000  0.4960770000000 1.0
C      1  0.4960770000000  0.3260250000000  0.6058440000000 1.0
C      1  0.5579520000000  0.6115680000000  0.6733030000000 1.0
C      1  0.6733030000000  0.3884320000000  0.4420480000000 1.0
C      1  0.4420480000000  0.6115680000000  0.3266970000000 1.0
C      1  0.3266970000000  0.3884320000000  0.5579520000000 1.0
C      1  0.4270400000000  0.3037000000000  0.4473380000000 1.0
C      1  0.4473380000000  0.6963000000000  0.5729600000000 1.0
C      1  0.5729600000000  0.3037000000000  0.5526620000000 1.0
C      1  0.5526620000000  0.6963000000000  0.4270400000000 1.0
C      1  0.5747770000000  0.3490070000000  0.4619390000000 1.0
C      1  0.4619390000000  0.6509930000000  0.4252230000000 1.0
C      1  0.4252230000000  0.3490070000000  0.5380610000000 1.0
C      1  0.5380610000000  0.6509930000000  0.5747770000000 1.0
C      1  0.7202920000000  0.3242570000000  0.5026040000000 1.0
C      1  0.5026040000000  0.6757430000000  0.2797080000000 1.0
C      1  0.2797080000000  0.3242570000000  0.4973960000000 1.0
C      1  0.4973960000000  0.6757430000000  0.7202920000000 1.0
END
