TITL C-2158988-7926-702 -0.00150439740982636 3375 -399.263158034641 0 0 60 (C3) n - 1
REM
REM in /scratch/bkarasulu/868
REM
REM
REM
REM
REM
REM ./C.cell (a2850807a9bf4ad07a5b6933b78d9264)
REM AIRSS Version 0.9.1 bugfix July 2018 build 013d7b7c2542+ Fri, 06 Jul 2018 19:26:36 +0100
REM compiler GCC version 9.2.1 20190827 (Red Hat 9.2.1-1)
REM options -cpp -mtune=generic -march=x86-64 -g -O0 -fpre-include=/usr/include/finclude/math-vector-fortran.h
REM seed 1583779105 1125247854 -1857214026 -209943605 1613388324 -1548662018 -2109516791 -2023153278 557982514 -1754543354 2045424044 828418376 506616493 1048574371 -1588835946 -1943644584 -1625962802 150674435 2102318941 2040185809 -1222578128 1528810037 759018538 -1520238315 -1944725369 163245980 1214588208 401682767 617508091 -1554208081 -610181127 -1614253693 -513386202
REM
CELL 1.54180   15.00000   15.00000   15.00000   90.00000   90.00000   90.00000
LATT -1
SFAC C  
C      1  0.4683680000000  0.3878350000000  0.4730560000000 1.0
C      1  0.4186770000000  0.5834780000000  0.4730600000000 1.0
C      1  0.6129570000000  0.5286930000000  0.4730610000000 1.0
C      1  0.4578930000000  0.6614510000000  0.3262800000000 1.0
C      1  0.6608730000000  0.4557480000000  0.3262770000000 1.0
C      1  0.3812400000000  0.3828150000000  0.3262730000000 1.0
C      1  0.5533550000000  0.5196520000000  0.3987070000000 1.0
C      1  0.4903430000000  0.4439730000000  0.3987050000000 1.0
C      1  0.4563080000000  0.5363830000000  0.3987060000000 1.0
C      1  0.5976850000000  0.3038020000000  0.6188680000000 1.0
C      1  0.2812450000000  0.5134950000000  0.6188700000000 1.0
C      1  0.6210650000000  0.6826950000000  0.6188770000000 1.0
C      1  0.6511210000000  0.3629830000000  0.4664050000000 1.0
C      1  0.3057780000000  0.4376340000000  0.4664030000000 1.0
C      1  0.5431000000000  0.6993870000000  0.4664120000000 1.0
C      1  0.4048210000000  0.4374990000000  0.6940890000000 1.0
C      1  0.4934630000000  0.6136690000000  0.6940940000000 1.0
C      1  0.6017090000000  0.4488180000000  0.6940910000000 1.0
C      1  0.3519390000000  0.5116060000000  0.7067310000000 1.0
C      1  0.5840830000000  0.6224130000000  0.7067360000000 1.0
C      1  0.5639720000000  0.3659670000000  0.7067300000000 1.0
C      1  0.6874150000000  0.6361980000000  0.5714960000000 1.0
C      1  0.5242440000000  0.2695900000000  0.5714860000000 1.0
C      1  0.2883390000000  0.5942050000000  0.5714910000000 1.0
C      1  0.5912100000000  0.5272100000000  0.5660640000000 1.0
C      1  0.4779600000000  0.4074020000000  0.5660600000000 1.0
C      1  0.4308290000000  0.5653830000000  0.5660630000000 1.0
C      1  0.5164560000000  0.5933110000000  0.5941800000000 1.0
C      1  0.5725810000000  0.4390900000000  0.5941770000000 1.0
C      1  0.4109600000000  0.4675930000000  0.5941760000000 1.0
C      1  0.6746760000000  0.5537480000000  0.6168920000000 1.0
C      1  0.4592110000000  0.3218470000000  0.6168850000000 1.0
C      1  0.3661110000000  0.6243960000000  0.6168910000000 1.0
C      1  0.4773660000000  0.3891240000000  0.3200190000000 1.0
C      1  0.4152940000000  0.5750490000000  0.3200230000000 1.0
C      1  0.6073460000000  0.5358410000000  0.3200230000000 1.0
C      1  0.7083750000000  0.5241850000000  0.4535520000000 1.0
C      1  0.4167610000000  0.3074520000000  0.4535440000000 1.0
C      1  0.3748700000000  0.6683640000000  0.4535530000000 1.0
C      1  0.6365870000000  0.5381200000000  0.7045220000000 1.0
C      1  0.4647210000000  0.3626430000000  0.7045160000000 1.0
C      1  0.3986860000000  0.5992220000000  0.7045210000000 1.0
C      1  0.3188960000000  0.4483900000000  0.5605310000000 1.0
C      1  0.5458550000000  0.6826440000000  0.5605390000000 1.0
C      1  0.6352450000000  0.3689630000000  0.5605330000000 1.0
C      1  0.5845060000000  0.3109280000000  0.4200210000000 1.0
C      1  0.2940050000000  0.5213540000000  0.4200220000000 1.0
C      1  0.6214890000000  0.6677220000000  0.4200290000000 1.0
C      1  0.6898560000000  0.4398930000000  0.4197500000000 1.0
C      1  0.3530200000000  0.3656380000000  0.4197450000000 1.0
C      1  0.4571280000000  0.6944760000000  0.4197530000000 1.0
C      1  0.5369970000000  0.6709440000000  0.2870070000000 1.0
C      1  0.6295410000000  0.3824960000000  0.2870010000000 1.0
C      1  0.3334670000000  0.4465750000000  0.2869990000000 1.0
C      1  0.3314810000000  0.5286590000000  0.3268330000000 1.0
C      1  0.6090770000000  0.6316190000000  0.3268380000000 1.0
C      1  0.5594450000000  0.3397330000000  0.3268310000000 1.0
C      1  0.6838660000000  0.6170570000000  0.4750060000000 1.0
C      1  0.5094410000000  0.2822350000000  0.4749960000000 1.0
C      1  0.3066910000000  0.6007060000000  0.4750020000000 1.0
END
