TITL C-2158988-7926-516 -0.00275298492372683 3375 -404.848662540315 0 0 60 (C2v) n - 1
REM
REM in /scratch/bkarasulu/868
REM
REM
REM
REM
REM
REM ./C.cell (a2850807a9bf4ad07a5b6933b78d9264)
REM AIRSS Version 0.9.1 bugfix July 2018 build 013d7b7c2542+ Fri, 06 Jul 2018 19:26:36 +0100
REM compiler GCC version 9.2.1 20190827 (Red Hat 9.2.1-1)
REM options -cpp -mtune=generic -march=x86-64 -g -O0 -fpre-include=/usr/include/finclude/math-vector-fortran.h
REM seed -1732179983 477816104 -1842950375 -213916273 -634613972 1562516721 -921086122 -888882086 -919845798 1922670922 -1886205349 -456211725 -1353519608 1891086789 1426947731 -405173284 678738442 207457496 509516412 -51848155 805558330 280752192 -1673370724 571766890 502095025 -1902177648 1955949612 -1834451852 918850545 855688214 -1709890468 -890237606 -307172107
REM
CELL 1.54180   15.00000   15.00000   15.00000   90.00000   90.00000   90.00000
LATT -1
SFAC C  
C      1  0.6225420000000  0.6970560000000  0.4283950000000 1.0
C      1  0.6370900000000  0.6679840000000  0.5102690000000 1.0
C      1  0.5989680000000  0.6679840000000  0.5954160000000 1.0
C      1  0.5282090000000  0.6970570000000  0.6390980000000 1.0
C      1  0.4469520000000  0.6650560000000  0.6184880000000 1.0
C      1  0.3774580000000  0.6970560000000  0.5716050000000 1.0
C      1  0.3629100000000  0.6679840000000  0.4897310000000 1.0
C      1  0.4010320000000  0.6679840000000  0.4045840000000 1.0
C      1  0.4717910000000  0.6970570000000  0.3609020000000 1.0
C      1  0.5530480000000  0.6650560000000  0.3815120000000 1.0
C      1  0.6118590000000  0.5667230000000  0.6041620000000 1.0
C      1  0.5315200000000  0.5215700000000  0.6395420000000 1.0
C      1  0.4417320000000  0.5633820000000  0.6301470000000 1.0
C      1  0.3749210000000  0.5215700000000  0.5694310000000 1.0
C      1  0.3478020000000  0.5667220000000  0.4859400000000 1.0
C      1  0.3881410000000  0.5667230000000  0.3958380000000 1.0
C      1  0.4684800000000  0.5215700000000  0.3604580000000 1.0
C      1  0.5582680000000  0.5633820000000  0.3698530000000 1.0
C      1  0.6250790000000  0.5215700000000  0.4305690000000 1.0
C      1  0.6521980000000  0.5667220000000  0.5140600000000 1.0
C      1  0.3543580000000  0.2801830000000  0.4886600000000 1.0
C      1  0.3945340000000  0.2801830000000  0.3989220000000 1.0
C      1  0.4675300000000  0.2400430000000  0.3673420000000 1.0
C      1  0.5491820000000  0.2817650000000  0.3901430000000 1.0
C      1  0.6205750000000  0.2400420000000  0.4358590000000 1.0
C      1  0.6456420000000  0.2801830000000  0.5113400000000 1.0
C      1  0.6054660000000  0.2801830000000  0.6010780000000 1.0
C      1  0.5324700000000  0.2400430000000  0.6326580000000 1.0
C      1  0.4508180000000  0.2817650000000  0.6098570000000 1.0
C      1  0.3794250000000  0.2400430000000  0.5641410000000 1.0
C      1  0.4705780000000  0.5614130000000  0.7828920000000 1.0
C      1  0.3085880000000  0.5614120000000  0.7103630000000 1.0
C      1  0.2188550000000  0.5592990000000  0.5598210000000 1.0
C      1  0.2379210000000  0.5469320000000  0.3826640000000 1.0
C      1  0.3573670000000  0.5593010000000  0.2504480000000 1.0
C      1  0.5294220000000  0.5614130000000  0.2171080000000 1.0
C      1  0.6914120000000  0.5614110000000  0.2896370000000 1.0
C      1  0.7811450000000  0.5592990000000  0.4401790000000 1.0
C      1  0.7620790000000  0.5469320000000  0.6173360000000 1.0
C      1  0.6426330000000  0.5593010000000  0.7495520000000 1.0
C      1  0.3882060000000  0.3791700000000  0.3966120000000 1.0
C      1  0.4678410000000  0.4252130000000  0.3730090000000 1.0
C      1  0.5482150000000  0.3788190000000  0.3923050000000 1.0
C      1  0.6161420000000  0.4252120000000  0.4394020000000 1.0
C      1  0.6515790000000  0.3791700000000  0.5145220000000 1.0
C      1  0.6117940000000  0.3791700000000  0.6033880000000 1.0
C      1  0.5321590000000  0.4252130000000  0.6269910000000 1.0
C      1  0.4517850000000  0.3788190000000  0.6076950000000 1.0
C      1  0.3838580000000  0.4252120000000  0.5605980000000 1.0
C      1  0.3484210000000  0.3791700000000  0.4854780000000 1.0
C      1  0.4479340000000  0.5521240000000  0.2560920000000 1.0
C      1  0.6007500000000  0.5584220000000  0.2749630000000 1.0
C      1  0.7166100000000  0.5521230000000  0.3763840000000 1.0
C      1  0.7498650000000  0.5520350000000  0.5268200000000 1.0
C      1  0.6864260000000  0.5520360000000  0.6685130000000 1.0
C      1  0.5520660000000  0.5521240000000  0.7439080000000 1.0
C      1  0.3992500000000  0.5584230000000  0.7250370000000 1.0
C      1  0.2833900000000  0.5521230000000  0.6236160000000 1.0
C      1  0.2501350000000  0.5520350000000  0.4731800000000 1.0
C      1  0.3135740000000  0.5520360000000  0.3314870000000 1.0
END
