TITL C-2158984-8299-444 -0.00321501025005758 3375 -419.592557127793 0 0 60 (C1) n - 1
REM
REM in /scratch/bkarasulu/869
REM
REM
REM
REM
REM
REM ./C.cell (a2850807a9bf4ad07a5b6933b78d9264)
REM AIRSS Version 0.9.1 bugfix July 2018 build 013d7b7c2542+ Fri, 06 Jul 2018 19:26:36 +0100
REM compiler GCC version 9.2.1 20190827 (Red Hat 9.2.1-1)
REM options -cpp -mtune=generic -march=x86-64 -g -O0 -fpre-include=/usr/include/finclude/math-vector-fortran.h
REM seed 1179466914 -788475368 1444962035 -851123436 1257070230 -1947487735 -669163482 -4678713 -1337196455 -944238558 -1490119779 901649264 -1565692811 309457018 556482198 -1356308696 -1467643304 87516201 1361015415 875356668 1605444898 -1769479582 -1679255780 -944108509 -1237880064 2114787193 -863093360 317474456 -54236395 -1262721451 -1651410126 849460398 -296706235
REM
CELL 1.54180   15.00000   15.00000   15.00000   90.00000   90.00000   90.00000
LATT -1
SFAC C  
C      1  0.5517740000000  0.3688440000000  0.3381770000000 1.0
C      1  0.4531790000000  0.3791470000000  0.6621030000000 1.0
C      1  0.4551350000000  0.3703140000000  0.3339000000000 1.0
C      1  0.5492390000000  0.3792780000000  0.6607980000000 1.0
C      1  0.6773410000000  0.4628800000000  0.6299430000000 1.0
C      1  0.3264340000000  0.4584110000000  0.3605370000000 1.0
C      1  0.3205090000000  0.4630800000000  0.6362020000000 1.0
C      1  0.6827200000000  0.4513990000000  0.3657180000000 1.0
C      1  0.5923740000000  0.4659900000000  0.6701740000000 1.0
C      1  0.4100890000000  0.4534290000000  0.3086580000000 1.0
C      1  0.4135910000000  0.4690660000000  0.6692060000000 1.0
C      1  0.5970400000000  0.4534080000000  0.3255710000000 1.0
C      1  0.5961440000000  0.6979240000000  0.6857860000000 1.0
C      1  0.4193650000000  0.6182010000000  0.3118730000000 1.0
C      1  0.4156060000000  0.6220180000000  0.7022150000000 1.0
C      1  0.5994840000000  0.6875310000000  0.3020460000000 1.0
C      1  0.3192390000000  0.3775380000000  0.4121820000000 1.0
C      1  0.6872070000000  0.3759210000000  0.5866260000000 1.0
C      1  0.6886960000000  0.3697000000000  0.4164910000000 1.0
C      1  0.3160490000000  0.3797090000000  0.5863930000000 1.0
C      1  0.5823620000000  0.6349040000000  0.6073070000000 1.0
C      1  0.4222520000000  0.6108350000000  0.4088510000000 1.0
C      1  0.4196550000000  0.6225040000000  0.6018890000000 1.0
C      1  0.6057730000000  0.6188610000000  0.3604560000000 1.0
C      1  0.4650240000000  0.5280790000000  0.5900970000000 1.0
C      1  0.5451820000000  0.5337350000000  0.3383840000000 1.0
C      1  0.5384480000000  0.5454730000000  0.6579030000000 1.0
C      1  0.4902380000000  0.5446030000000  0.4276780000000 1.0
C      1  0.5775370000000  0.2497980000000  0.5544110000000 1.0
C      1  0.4248160000000  0.2503840000000  0.4511250000000 1.0
C      1  0.4239120000000  0.2522170000000  0.5536120000000 1.0
C      1  0.5778510000000  0.2468250000000  0.4537810000000 1.0
C      1  0.6590940000000  0.6094830000000  0.5415420000000 1.0
C      1  0.3405660000000  0.6056260000000  0.4552620000000 1.0
C      1  0.3342660000000  0.6106460000000  0.5522420000000 1.0
C      1  0.6633390000000  0.6023870000000  0.4399760000000 1.0
C      1  0.6106190000000  0.3230580000000  0.6068400000000 1.0
C      1  0.3939780000000  0.3212090000000  0.3931690000000 1.0
C      1  0.3919300000000  0.3255660000000  0.6075650000000 1.0
C      1  0.6114140000000  0.3166080000000  0.3976900000000 1.0
C      1  0.2894220000000  0.5296950000000  0.4194970000000 1.0
C      1  0.7114810000000  0.5322030000000  0.5725710000000 1.0
C      1  0.7167820000000  0.5242340000000  0.4195150000000 1.0
C      1  0.2836000000000  0.5320930000000  0.5783930000000 1.0
C      1  0.4395790000000  0.6911630000000  0.7610220000000 1.0
C      1  0.5282660000000  0.7183070000000  0.2608670000000 1.0
C      1  0.5192180000000  0.7014380000000  0.7253340000000 1.0
C      1  0.4444300000000  0.6916330000000  0.2659660000000 1.0
C      1  0.5006200000000  0.2080070000000  0.4191200000000 1.0
C      1  0.4996940000000  0.2126690000000  0.5892900000000 1.0
C      1  0.2525370000000  0.4885150000000  0.4980510000000 1.0
C      1  0.7512260000000  0.4860940000000  0.4989780000000 1.0
C      1  0.4571770000000  0.5397740000000  0.7223320000000 1.0
C      1  0.4589200000000  0.5316170000000  0.2887620000000 1.0
C      1  0.7285500000000  0.3916950000000  0.5013600000000 1.0
C      1  0.2763270000000  0.3960520000000  0.4987240000000 1.0
C      1  0.4935200000000  0.4849250000000  0.5012520000000 1.0
C      1  0.4990690000000  0.7591860000000  0.5341590000000 1.0
C      1  0.4957120000000  0.6748340000000  0.5706600000000 1.0
C      1  0.5460940000000  0.8240260000000  0.5093560000000 1.0
END
