TITL C-2159255-4746-552 -0.00167321986066887 3375 -395.152366302704 0 0 60 (C2) n - 1
REM
REM in /scratch/bkarasulu/871
REM
REM
REM
REM
REM
REM ./C.cell (a2850807a9bf4ad07a5b6933b78d9264)
REM AIRSS Version 0.9.1 bugfix July 2018 build 013d7b7c2542+ Fri, 06 Jul 2018 19:26:36 +0100
REM compiler GCC version 9.2.1 20190827 (Red Hat 9.2.1-1)
REM options -cpp -mtune=generic -march=x86-64 -g -O0 -fpre-include=/usr/include/finclude/math-vector-fortran.h
REM seed 1599855121 -1205103222 241589987 -1379560282 85866275 -1682877494 -1136687547 1818262933 2014226812 1878277489 -341642507 140185382 -1904552479 105941555 -1713767389 1476244766 -1722534878 539670916 1930646392 857357224 1555825534 -1270978880 -1383643551 -2012965787 180052594 2041634076 1612260613 2127657468 -1990928871 -1726416180 -249479009 -1760066524 2012250374
REM
CELL 1.54180   15.00000   15.00000   15.00000   90.00000   90.00000   90.00000
LATT -1
SFAC C  
C      1  0.5036520000000  0.4794570000000  0.7231860000000 1.0
C      1  0.5106730000000  0.7108510000000  0.5965380000000 1.0
C      1  0.5089290000000  0.6531350000000  0.3322430000000 1.0
C      1  0.5068750000000  0.3897830000000  0.3015560000000 1.0
C      1  0.5105790000000  0.2811800000000  0.5451520000000 1.0
C      1  0.4963480000000  0.4794570000000  0.2768140000000 1.0
C      1  0.4893270000000  0.7108510000000  0.4034620000000 1.0
C      1  0.4910710000000  0.6531350000000  0.6677570000000 1.0
C      1  0.4931250000000  0.3897830000000  0.6984440000000 1.0
C      1  0.4894220000000  0.2811800000000  0.4548480000000 1.0
C      1  0.4513660000000  0.3812860000000  0.3830360000000 1.0
C      1  0.4559740000000  0.3554310000000  0.5800650000000 1.0
C      1  0.4298160000000  0.5238820000000  0.6765960000000 1.0
C      1  0.4532060000000  0.6776630000000  0.5230810000000 1.0
C      1  0.4386240000000  0.5868080000000  0.3416860000000 1.0
C      1  0.5486340000000  0.3812860000000  0.6169640000000 1.0
C      1  0.5440260000000  0.3554310000000  0.4199350000000 1.0
C      1  0.5701840000000  0.5238820000000  0.3234040000000 1.0
C      1  0.5467940000000  0.6776630000000  0.4769190000000 1.0
C      1  0.5613760000000  0.5868080000000  0.6583140000000 1.0
C      1  0.4160230000000  0.4562680000000  0.4366570000000 1.0
C      1  0.4153500000000  0.4361190000000  0.5354520000000 1.0
C      1  0.4483960000000  0.5175350000000  0.5780880000000 1.0
C      1  0.4227290000000  0.5836670000000  0.5108660000000 1.0
C      1  0.4603960000000  0.5421650000000  0.4283410000000 1.0
C      1  0.5839770000000  0.4562680000000  0.5633430000000 1.0
C      1  0.5846500000000  0.4361190000000  0.4645480000000 1.0
C      1  0.5516040000000  0.5175350000000  0.4219120000000 1.0
C      1  0.5772710000000  0.5836670000000  0.4891340000000 1.0
C      1  0.5396040000000  0.5421650000000  0.5716590000000 1.0
C      1  0.6768620000000  0.6680540000000  0.5526680000000 1.0
C      1  0.6755340000000  0.5971770000000  0.3563530000000 1.0
C      1  0.6754060000000  0.3850130000000  0.3513940000000 1.0
C      1  0.6796740000000  0.3265940000000  0.5548160000000 1.0
C      1  0.6657370000000  0.4892080000000  0.6742770000000 1.0
C      1  0.3231380000000  0.6680540000000  0.4473320000000 1.0
C      1  0.3244660000000  0.5971770000000  0.6436470000000 1.0
C      1  0.3245940000000  0.3850130000000  0.6486060000000 1.0
C      1  0.3203260000000  0.3265940000000  0.4451840000000 1.0
C      1  0.3342630000000  0.4892080000000  0.3257230000000 1.0
C      1  0.4038950000000  0.6167750000000  0.6861570000000 1.0
C      1  0.4004680000000  0.7167280000000  0.4453410000000 1.0
C      1  0.4101460000000  0.5174890000000  0.2827110000000 1.0
C      1  0.4009830000000  0.2997270000000  0.4180180000000 1.0
C      1  0.4070320000000  0.3565120000000  0.6695490000000 1.0
C      1  0.5961050000000  0.6167750000000  0.3138430000000 1.0
C      1  0.5995320000000  0.7167280000000  0.5546590000000 1.0
C      1  0.5898540000000  0.5174890000000  0.7172890000000 1.0
C      1  0.5990170000000  0.2997270000000  0.5819820000000 1.0
C      1  0.5929680000000  0.3565120000000  0.3304510000000 1.0
C      1  0.2855050000000  0.4082310000000  0.4733740000000 1.0
C      1  0.3133640000000  0.4398150000000  0.5668150000000 1.0
C      1  0.2941020000000  0.5420510000000  0.5734350000000 1.0
C      1  0.3232260000000  0.5745700000000  0.4840010000000 1.0
C      1  0.3208600000000  0.4868250000000  0.4201980000000 1.0
C      1  0.7144950000000  0.4082310000000  0.5266260000000 1.0
C      1  0.6866360000000  0.4398150000000  0.4331850000000 1.0
C      1  0.7058980000000  0.5420510000000  0.4265650000000 1.0
C      1  0.6767740000000  0.5745700000000  0.5159990000000 1.0
C      1  0.6791400000000  0.4868260000000  0.5798020000000 1.0
END
