TITL C-2158988-7926-717 -0.00228204013799829 3375 -421.694182434396 0 0 60 (Cs) n - 1
REM
REM in /scratch/bkarasulu/868
REM
REM
REM
REM
REM
REM ./C.cell (a2850807a9bf4ad07a5b6933b78d9264)
REM AIRSS Version 0.9.1 bugfix July 2018 build 013d7b7c2542+ Fri, 06 Jul 2018 19:26:36 +0100
REM compiler GCC version 9.2.1 20190827 (Red Hat 9.2.1-1)
REM options -cpp -mtune=generic -march=x86-64 -g -O0 -fpre-include=/usr/include/finclude/math-vector-fortran.h
REM seed -180984627 575114445 467903129 -1935278669 -1505446759 195711692 1136128670 1842548480 -1867447075 -1065805603 1034291555 1197944459 1183003677 -1701513890 1706387283 2051698433 -525486086 -1853792751 1375384051 1886701592 860253030 -81063773 -1804021760 1833599000 1089470681 987991900 692947658 -2019103531 1967263381 2068741551 -1606432858 551601041 -1758999126
REM
CELL 1.54180   15.00000   15.00000   15.00000   90.00000   90.00000   90.00000
LATT -1
SFAC C  
C      1  0.5651280000000  0.5870030000000  0.5237430000000 1.0
C      1  0.4900220000000  0.4577910000000  0.5007860000000 1.0
C      1  0.6353630000000  0.4477200000000  0.5900000000000 1.0
C      1  0.5651280000000  0.4129970000000  0.5237430000000 1.0
C      1  0.4900220000000  0.5422090000000  0.5007860000000 1.0
C      1  0.6353630000000  0.5522800000000  0.5900000000000 1.0
C      1  0.3152530000000  0.5484920000000  0.6420750000000 1.0
C      1  0.5204650000000  0.3399460000000  0.6583090000000 1.0
C      1  0.5998450000000  0.5991860000000  0.6683940000000 1.0
C      1  0.3152530000000  0.4515080000000  0.6420750000000 1.0
C      1  0.5204650000000  0.6600540000000  0.6583090000000 1.0
C      1  0.5998450000000  0.4008140000000  0.6683940000000 1.0
C      1  0.5053420000000  0.2860890000000  0.5805250000000 1.0
C      1  0.7115700000000  0.5994840000000  0.5370280000000 1.0
C      1  0.2857590000000  0.6018350000000  0.5671380000000 1.0
C      1  0.5053420000000  0.7139110000000  0.5805250000000 1.0
C      1  0.7115700000000  0.4005160000000  0.5370280000000 1.0
C      1  0.2857590000000  0.3981650000000  0.5671380000000 1.0
C      1  0.2390180000000  0.5483560000000  0.5051960000000 1.0
C      1  0.5771720000000  0.3064320000000  0.5173210000000 1.0
C      1  0.6749100000000  0.6784010000000  0.4985940000000 1.0
C      1  0.2390180000000  0.4516440000000  0.5051960000000 1.0
C      1  0.5771720000000  0.6935680000000  0.5173210000000 1.0
C      1  0.6749100000000  0.3215990000000  0.4985940000000 1.0
C      1  0.4950500000000  0.6813260000000  0.3707250000000 1.0
C      1  0.3321510000000  0.4074910000000  0.3699910000000 1.0
C      1  0.6565920000000  0.4044610000000  0.3509600000000 1.0
C      1  0.4950500000000  0.3186740000000  0.3707250000000 1.0
C      1  0.3321510000000  0.5925090000000  0.3699910000000 1.0
C      1  0.6565920000000  0.5955390000000  0.3509600000000 1.0
C      1  0.4083070000000  0.5477030000000  0.3274190000000 1.0
C      1  0.4912700000000  0.4055340000000  0.3246270000000 1.0
C      1  0.5746690000000  0.5479570000000  0.3209830000000 1.0
C      1  0.4083070000000  0.4522970000000  0.3274190000000 1.0
C      1  0.4912700000000  0.5944660000000  0.3246270000000 1.0
C      1  0.5746690000000  0.4520430000000  0.3209830000000 1.0
C      1  0.2620590000000  0.5472710000000  0.4098190000000 1.0
C      1  0.5683450000000  0.2898840000000  0.4182550000000 1.0
C      1  0.6544790000000  0.6752940000000  0.4028260000000 1.0
C      1  0.2620590000000  0.4527290000000  0.4098190000000 1.0
C      1  0.5683450000000  0.7101160000000  0.4182550000000 1.0
C      1  0.6544790000000  0.3247060000000  0.4028260000000 1.0
C      1  0.3446740000000  0.3332680000000  0.4254210000000 1.0
C      1  0.7292700000000  0.4526800000000  0.3827810000000 1.0
C      1  0.4273820000000  0.7105060000000  0.4286080000000 1.0
C      1  0.3446740000000  0.6667320000000  0.4254210000000 1.0
C      1  0.7292700000000  0.5473200000000  0.3827810000000 1.0
C      1  0.4273820000000  0.2894940000000  0.4286080000000 1.0
C      1  0.5520670000000  0.4545840000000  0.7323890000000 1.0
C      1  0.4712980000000  0.5994610000000  0.7164000000000 1.0
C      1  0.3930950000000  0.4517030000000  0.7021860000000 1.0
C      1  0.5520670000000  0.5454160000000  0.7323890000000 1.0
C      1  0.4712980000000  0.4005390000000  0.7164000000000 1.0
C      1  0.3930950000000  0.5482970000000  0.7021860000000 1.0
C      1  0.3366680000000  0.6711030000000  0.5230190000000 1.0
C      1  0.4235530000000  0.2829210000000  0.5273920000000 1.0
C      1  0.7592240000000  0.5483160000000  0.4770930000000 1.0
C      1  0.3366680000000  0.3288970000000  0.5230190000000 1.0
C      1  0.4235530000000  0.7170790000000  0.5273920000000 1.0
C      1  0.7592240000000  0.4516840000000  0.4770930000000 1.0
END
