TITL C-2158984-8299-270 -0.00194946729595911 3375 -406.70942381162 0 0 60 (S4) n - 1
REM
REM in /scratch/bkarasulu/869
REM
REM
REM
REM
REM
REM ./C.cell (a2850807a9bf4ad07a5b6933b78d9264)
REM AIRSS Version 0.9.1 bugfix July 2018 build 013d7b7c2542+ Fri, 06 Jul 2018 19:26:36 +0100
REM compiler GCC version 9.2.1 20190827 (Red Hat 9.2.1-1)
REM options -cpp -mtune=generic -march=x86-64 -g -O0 -fpre-include=/usr/include/finclude/math-vector-fortran.h
REM seed 277905438 -64655183 -1227597011 2130953162 -50047078 -1801290577 405267772 -74494327 639318988 -1277433128 -1308812573 867016987 2118488768 -45776827 -763911477 -1578992446 5819644 -450829482 781539078 -509956510 -1048971908 112608098 918296947 1527121453 -393110264 1642567402 984178634 -1483862013 -1196632746 1878031515 -2008965856 2121329339 -2065347051
REM
CELL 1.54180   15.00000   15.00000   15.00000   90.00000   90.00000   90.00000
LATT -1
SFAC C  
C      1  0.5595500000000  0.3362540000000  0.5836930000000 1.0
C      1  0.4163070000000  0.6637460000000  0.5595500000000 1.0
C      1  0.4404500000000  0.3362540000000  0.4163070000000 1.0
C      1  0.5836930000000  0.6637460000000  0.4404500000000 1.0
C      1  0.6565840000000  0.6345640000000  0.6061810000000 1.0
C      1  0.3938190000000  0.3654360000000  0.6565840000000 1.0
C      1  0.3434160000000  0.6345640000000  0.3938190000000 1.0
C      1  0.6061810000000  0.3654360000000  0.3434160000000 1.0
C      1  0.4060000000000  0.3947250000000  0.3465100000000 1.0
C      1  0.6534900000000  0.6052750000000  0.4060000000000 1.0
C      1  0.5940000000000  0.3947250000000  0.6534900000000 1.0
C      1  0.3465100000000  0.6052750000000  0.5940000000000 1.0
C      1  0.3225880000000  0.4278030000000  0.3879880000000 1.0
C      1  0.6120120000000  0.5721970000000  0.3225880000000 1.0
C      1  0.6774120000000  0.4278030000000  0.6120120000000 1.0
C      1  0.3879880000000  0.5721970000000  0.6774120000000 1.0
C      1  0.2832320000000  0.4563540000000  0.5525190000000 1.0
C      1  0.4474810000000  0.5436460000000  0.2832320000000 1.0
C      1  0.7167680000000  0.4563540000000  0.4474810000000 1.0
C      1  0.5525190000000  0.5436460000000  0.7167680000000 1.0
C      1  0.6324470000000  0.4939250000000  0.2735240000000 1.0
C      1  0.7264760000000  0.5060750000000  0.6324470000000 1.0
C      1  0.3675530000000  0.4939250000000  0.7264760000000 1.0
C      1  0.2735240000000  0.5060750000000  0.3675530000000 1.0
C      1  0.4204660000000  0.6702630000000  0.4315520000000 1.0
C      1  0.5684480000000  0.3297370000000  0.4204660000000 1.0
C      1  0.5795340000000  0.6702630000000  0.5684480000000 1.0
C      1  0.4315520000000  0.3297370000000  0.5795340000000 1.0
C      1  0.7098700000000  0.5531540000000  0.4654810000000 1.0
C      1  0.5345190000000  0.4468460000000  0.7098700000000 1.0
C      1  0.2901300000000  0.5531540000000  0.5345190000000 1.0
C      1  0.4654810000000  0.4468460000000  0.2901300000000 1.0
C      1  0.3154850000000  0.4053890000000  0.4789580000000 1.0
C      1  0.5210420000000  0.5946110000000  0.3154850000000 1.0
C      1  0.6845150000000  0.4053890000000  0.5210420000000 1.0
C      1  0.4789580000000  0.5946110000000  0.6845150000000 1.0
C      1  0.7183940000000  0.5439250000000  0.7174900000000 1.0
C      1  0.2825100000000  0.4560750000000  0.7183940000000 1.0
C      1  0.2816060000000  0.5439250000000  0.2825100000000 1.0
C      1  0.7174900000000  0.4560750000000  0.2816060000000 1.0
C      1  0.2840170000000  0.5758220000000  0.4413380000000 1.0
C      1  0.5586620000000  0.4241780000000  0.2840170000000 1.0
C      1  0.7159830000000  0.5758220000000  0.5586620000000 1.0
C      1  0.4413380000000  0.4241780000000  0.7159830000000 1.0
C      1  0.4371220000000  0.4845470000000  0.4957140000000 1.0
C      1  0.5042860000000  0.5154530000000  0.4371220000000 1.0
C      1  0.5628780000000  0.4845470000000  0.5042860000000 1.0
C      1  0.4957140000000  0.5154530000000  0.5628780000000 1.0
C      1  0.6384690000000  0.5840230000000  0.6951890000000 1.0
C      1  0.3048110000000  0.4159770000000  0.6384690000000 1.0
C      1  0.3615310000000  0.5840230000000  0.3048110000000 1.0
C      1  0.6951890000000  0.4159770000000  0.3615310000000 1.0
C      1  0.4989720000000  0.2709850000000  0.5518650000000 1.0
C      1  0.4481350000000  0.7290150000000  0.4989720000000 1.0
C      1  0.5010280000000  0.2709850000000  0.4481350000000 1.0
C      1  0.5518650000000  0.7290150000000  0.5010280000000 1.0
C      1  0.5020540000000  0.6195720000000  0.4080460000000 1.0
C      1  0.5919540000000  0.3804280000000  0.5020540000000 1.0
C      1  0.4979460000000  0.6195720000000  0.5919540000000 1.0
C      1  0.4080460000000  0.3804280000000  0.4979460000000 1.0
END
