TITL C-2158984-8299-761 -0.00299527136779296 3375 -399.620330495331 0 0 60 (C2) n - 1
REM
REM in /scratch/bkarasulu/869
REM
REM
REM
REM
REM
REM ./C.cell (a2850807a9bf4ad07a5b6933b78d9264)
REM AIRSS Version 0.9.1 bugfix July 2018 build 013d7b7c2542+ Fri, 06 Jul 2018 19:26:36 +0100
REM compiler GCC version 9.2.1 20190827 (Red Hat 9.2.1-1)
REM options -cpp -mtune=generic -march=x86-64 -g -O0 -fpre-include=/usr/include/finclude/math-vector-fortran.h
REM seed 1956262003 -2040833277 -1222646364 2001710053 -250113099 1828837035 1669122322 -581726726 -186072013 -2016286344 2039282662 1441686605 -1408752369 -1793744632 2090196418 -1470485966 -1953628379 2129324967 -938174587 970140792 -1964276633 -1520890214 -173940004 -1438859539 981878023 -1733181907 851401110 1876799463 1638358690 723373743 1613347451 -2063115431 -1452871815
REM
CELL 1.54180   15.00000   15.00000   15.00000   90.00000   90.00000   90.00000
LATT -1
SFAC C  
C      1  0.4007010000000  0.5219050000000  0.3904310000000 1.0
C      1  0.3464940000000  0.5336370000000  0.4675400000000 1.0
C      1  0.3505740000000  0.5473330000000  0.5727440000000 1.0
C      1  0.4168900000000  0.5540380000000  0.6434980000000 1.0
C      1  0.5201110000000  0.5477320000000  0.6573910000000 1.0
C      1  0.5992990000000  0.5219050000000  0.6095690000000 1.0
C      1  0.6535060000000  0.5336370000000  0.5324600000000 1.0
C      1  0.6494260000000  0.5473330000000  0.4272560000000 1.0
C      1  0.5831100000000  0.5540380000000  0.3565020000000 1.0
C      1  0.4798890000000  0.5477320000000  0.3426090000000 1.0
C      1  0.2921880000000  0.4595550000000  0.5776350000000 1.0
C      1  0.4077220000000  0.4760200000000  0.7137490000000 1.0
C      1  0.5003210000000  0.4642570000000  0.7196580000000 1.0
C      1  0.6612450000000  0.4867610000000  0.6778740000000 1.0
C      1  0.6966440000000  0.4411130000000  0.5132250000000 1.0
C      1  0.7078120000000  0.4595550000000  0.4223650000000 1.0
C      1  0.5922780000000  0.4760200000000  0.2862510000000 1.0
C      1  0.4996790000000  0.4642570000000  0.2803420000000 1.0
C      1  0.3387550000000  0.4867610000000  0.3221260000000 1.0
C      1  0.3033560000000  0.4411130000000  0.4867750000000 1.0
C      1  0.3158090000000  0.4117220000000  0.2877500000000 1.0
C      1  0.3362580000000  0.3504960000000  0.4763170000000 1.0
C      1  0.3094660000000  0.3844020000000  0.6288240000000 1.0
C      1  0.3675590000000  0.3933170000000  0.7016240000000 1.0
C      1  0.5225730000000  0.3726420000000  0.7099990000000 1.0
C      1  0.6841910000000  0.4117220000000  0.7122500000000 1.0
C      1  0.6637420000000  0.3504960000000  0.5236830000000 1.0
C      1  0.6905340000000  0.3844020000000  0.3711760000000 1.0
C      1  0.6324410000000  0.3933170000000  0.2983760000000 1.0
C      1  0.4774270000000  0.3726420000000  0.2900010000000 1.0
C      1  0.2247960000000  0.6277320000000  0.5254970000000 1.0
C      1  0.3079300000000  0.6691180000000  0.6689840000000 1.0
C      1  0.4566780000000  0.6610190000000  0.7533560000000 1.0
C      1  0.6194530000000  0.6678740000000  0.7326420000000 1.0
C      1  0.7387020000000  0.6538650000000  0.6295940000000 1.0
C      1  0.7752040000000  0.6277320000000  0.4745030000000 1.0
C      1  0.6920700000000  0.6691180000000  0.3310160000000 1.0
C      1  0.5433220000000  0.6610190000000  0.2466440000000 1.0
C      1  0.3805470000000  0.6678740000000  0.2673580000000 1.0
C      1  0.2612980000000  0.6538650000000  0.3704060000000 1.0
C      1  0.5775990000000  0.2828020000000  0.3911790000000 1.0
C      1  0.5584340000000  0.3285370000000  0.3132270000000 1.0
C      1  0.3901560000000  0.3527500000000  0.3189440000000 1.0
C      1  0.3786180000000  0.3202730000000  0.4024820000000 1.0
C      1  0.3470100000000  0.3179490000000  0.5682560000000 1.0
C      1  0.4224010000000  0.2828020000000  0.6088210000000 1.0
C      1  0.4415660000000  0.3285370000000  0.6867730000000 1.0
C      1  0.6098440000000  0.3527500000000  0.6810560000000 1.0
C      1  0.6213820000000  0.3202730000000  0.5975180000000 1.0
C      1  0.6529900000000  0.3179490000000  0.4317440000000 1.0
C      1  0.3019220000000  0.6825890000000  0.2995550000000 1.0
C      1  0.2666660000000  0.6033300000000  0.4455690000000 1.0
C      1  0.2841000000000  0.6221630000000  0.5942890000000 1.0
C      1  0.3887390000000  0.6376050000000  0.6976410000000 1.0
C      1  0.5387990000000  0.6274670000000  0.7230410000000 1.0
C      1  0.6980780000000  0.6825890000000  0.7004450000000 1.0
C      1  0.7333340000000  0.6033300000000  0.5544310000000 1.0
C      1  0.7159000000000  0.6221630000000  0.4057110000000 1.0
C      1  0.6112610000000  0.6376050000000  0.3023590000000 1.0
C      1  0.4612010000000  0.6274670000000  0.2769590000000 1.0
END
