TITL C-2159255-4746-1376 -0.00120048152063946 3375 -388.906649738217 0 0 60 (C1) n - 1
REM
REM in /scratch/bkarasulu/871
REM
REM
REM
REM
REM
REM ./C.cell (a2850807a9bf4ad07a5b6933b78d9264)
REM AIRSS Version 0.9.1 bugfix July 2018 build 013d7b7c2542+ Fri, 06 Jul 2018 19:26:36 +0100
REM compiler GCC version 9.2.1 20190827 (Red Hat 9.2.1-1)
REM options -cpp -mtune=generic -march=x86-64 -g -O0 -fpre-include=/usr/include/finclude/math-vector-fortran.h
REM seed -1998956176 -956955028 -43924704 -996914923 797672898 2002903513 12794837 1681261533 1203894650 -879612643 595148110 -1878497724 1728011776 680888723 -499704323 1009364311 1979962174 1928073899 2122439490 -2121173715 -1376194548 -999732923 -188421608 -2115094458 -256529531 573765578 727610294 874606559 895228030 -1011660766 -1586581866 -209006169 -1193370150
REM
CELL 1.54180   15.00000   15.00000   15.00000   90.00000   90.00000   90.00000
LATT -1
SFAC C  
C      1  0.6210280000000  0.6101120000000  0.6924900000000 1.0
C      1  0.5842060000000  0.6532620000000  0.6125630000000 1.0
C      1  0.6780910000000  0.6220390000000  0.6238210000000 1.0
C      1  0.3794380000000  0.6099970000000  0.3124350000000 1.0
C      1  0.3867000000000  0.3807380000000  0.6789670000000 1.0
C      1  0.6154240000000  0.3851880000000  0.3211650000000 1.0
C      1  0.3828510000000  0.6848830000000  0.3731530000000 1.0
C      1  0.3804280000000  0.3220950000000  0.6025830000000 1.0
C      1  0.6162440000000  0.3180180000000  0.3860280000000 1.0
C      1  0.3138590000000  0.6203710000000  0.3798750000000 1.0
C      1  0.3130900000000  0.3875750000000  0.6174900000000 1.0
C      1  0.6756670000000  0.3933530000000  0.3953700000000 1.0
C      1  0.6160380000000  0.3670530000000  0.6932150000000 1.0
C      1  0.6174100000000  0.3168020000000  0.6144250000000 1.0
C      1  0.6830620000000  0.3854710000000  0.6299930000000 1.0
C      1  0.3784170000000  0.3828430000000  0.3116620000000 1.0
C      1  0.4109820000000  0.5887510000000  0.6438680000000 1.0
C      1  0.6247530000000  0.6146730000000  0.3202150000000 1.0
C      1  0.3766180000000  0.3129120000000  0.3744030000000 1.0
C      1  0.3889470000000  0.6767000000000  0.6040580000000 1.0
C      1  0.6256380000000  0.6887220000000  0.3785730000000 1.0
C      1  0.3129830000000  0.3813410000000  0.3790240000000 1.0
C      1  0.3197170000000  0.6147120000000  0.6156250000000 1.0
C      1  0.6948380000000  0.6220860000000  0.3866910000000 1.0
C      1  0.3054410000000  0.4460050000000  0.4546740000000 1.0
C      1  0.4577070000000  0.4433240000000  0.3179540000000 1.0
C      1  0.4547280000000  0.3105680000000  0.4368030000000 1.0
C      1  0.6803720000000  0.4660770000000  0.5717530000000 1.0
C      1  0.6844800000000  0.5634300000000  0.4684070000000 1.0
C      1  0.2799730000000  0.5502230000000  0.5525570000000 1.0
C      1  0.5548890000000  0.4275920000000  0.7298630000000 1.0
C      1  0.5620160000000  0.5408670000000  0.3122620000000 1.0
C      1  0.4656640000000  0.5339880000000  0.7086600000000 1.0
C      1  0.5450740000000  0.3226870000000  0.5454100000000 1.0
C      1  0.5635040000000  0.6938030000000  0.4531040000000 1.0
C      1  0.4505440000000  0.7091180000000  0.5357830000000 1.0
C      1  0.3079400000000  0.5551130000000  0.4562710000000 1.0
C      1  0.4507830000000  0.5447750000000  0.3175050000000 1.0
C      1  0.4613760000000  0.6810060000000  0.4358600000000 1.0
C      1  0.7157290000000  0.5594400000000  0.5633500000000 1.0
C      1  0.6617450000000  0.4592910000000  0.4662280000000 1.0
C      1  0.2778020000000  0.4531360000000  0.5533380000000 1.0
C      1  0.5670980000000  0.5231860000000  0.6971010000000 1.0
C      1  0.5539470000000  0.4457910000000  0.2864790000000 1.0
C      1  0.4557030000000  0.4388000000000  0.7202200000000 1.0
C      1  0.5444030000000  0.7207350000000  0.5492800000000 1.0
C      1  0.5524330000000  0.2896300000000  0.4468090000000 1.0
C      1  0.4448670000000  0.2993410000000  0.5376330000000 1.0
C      1  0.5492160000000  0.5399490000000  0.4127900000000 1.0
C      1  0.4543040000000  0.5537120000000  0.5612800000000 1.0
C      1  0.5327550000000  0.4251150000000  0.5488840000000 1.0
C      1  0.4052620000000  0.5494840000000  0.4731620000000 1.0
C      1  0.4721960000000  0.4101560000000  0.4123690000000 1.0
C      1  0.5491430000000  0.5752810000000  0.5606190000000 1.0
C      1  0.4638070000000  0.5805030000000  0.4084260000000 1.0
C      1  0.5901420000000  0.5977500000000  0.4757920000000 1.0
C      1  0.5551140000000  0.4522360000000  0.4556720000000 1.0
C      1  0.4432590000000  0.4558280000000  0.5567710000000 1.0
C      1  0.4022110000000  0.4494110000000  0.4688080000000 1.0
C      1  0.5879460000000  0.4929530000000  0.6004330000000 1.0
END
