TITL C-2158988-7926-245 -0.00266828057816464 3375 -409.40039389411 0 0 60 (D6h) n - 1
REM
REM in /scratch/bkarasulu/868
REM
REM
REM
REM
REM
REM ./C.cell (a2850807a9bf4ad07a5b6933b78d9264)
REM AIRSS Version 0.9.1 bugfix July 2018 build 013d7b7c2542+ Fri, 06 Jul 2018 19:26:36 +0100
REM compiler GCC version 9.2.1 20190827 (Red Hat 9.2.1-1)
REM options -cpp -mtune=generic -march=x86-64 -g -O0 -fpre-include=/usr/include/finclude/math-vector-fortran.h
REM seed 1924713607 -2033523171 -1037187860 412645676 1839512888 1870677313 -207094804 -1604087165 -1994788864 1518243207 1834265685 -634210667 -1803872997 1971933668 -911271286 896077570 747225601 -1764177945 -980875512 -560460794 -946485818 1157037515 -260143345 341235096 80901456 565674674 127007526 340430202 932232055 1828082469 697754721 -1611656782 1925729209
REM
CELL 1.54180   15.00000   15.00000   15.00000   90.00000   90.00000   90.00000
LATT -1
SFAC C  
C      1  0.5489760000000  0.7222410000000  0.4263480000000 1.0
C      1  0.5489760000000  0.3250950000000  0.3443610000000 1.0
C      1  0.5489770000000  0.4526640000000  0.7292940000000 1.0
C      1  0.4510240000000  0.7222410000000  0.4263480000000 1.0
C      1  0.4510240000000  0.3250950000000  0.3443610000000 1.0
C      1  0.4510230000000  0.4526640000000  0.7292940000000 1.0
C      1  0.5489760000000  0.2777590000000  0.4263480000000 1.0
C      1  0.5489760000000  0.6749050000000  0.3443610000000 1.0
C      1  0.5489770000000  0.5473360000000  0.7292940000000 1.0
C      1  0.4510240000000  0.2777590000000  0.4263480000000 1.0
C      1  0.4510240000000  0.6749050000000  0.3443610000000 1.0
C      1  0.4510230000000  0.5473360000000  0.7292940000000 1.0
C      1  0.6518940000000  0.3945980000000  0.5000000000000 1.0
C      1  0.6518940000000  0.5527010000000  0.5912810000000 1.0
C      1  0.6518940000000  0.5527010000000  0.4087190000000 1.0
C      1  0.3481060000000  0.3945980000000  0.5000000000000 1.0
C      1  0.3481060000000  0.5527010000000  0.5912810000000 1.0
C      1  0.3481060000000  0.5527010000000  0.4087190000000 1.0
C      1  0.6518940000000  0.6054020000000  0.5000000000000 1.0
C      1  0.6518940000000  0.4472990000000  0.5912810000000 1.0
C      1  0.6518940000000  0.4472990000000  0.4087190000000 1.0
C      1  0.3481060000000  0.6054020000000  0.5000000000000 1.0
C      1  0.3481060000000  0.4472990000000  0.5912810000000 1.0
C      1  0.3481060000000  0.4472990000000  0.4087190000000 1.0
C      1  0.4510230000000  0.4526640000000  0.2707060000000 1.0
C      1  0.4510230000000  0.3250940000000  0.6556390000000 1.0
C      1  0.4510230000000  0.7222420000000  0.5736520000000 1.0
C      1  0.5489770000000  0.4526640000000  0.2707060000000 1.0
C      1  0.5489770000000  0.3250940000000  0.6556390000000 1.0
C      1  0.5489770000000  0.7222420000000  0.5736520000000 1.0
C      1  0.4510230000000  0.5473360000000  0.2707060000000 1.0
C      1  0.4510230000000  0.6749060000000  0.6556390000000 1.0
C      1  0.4510230000000  0.2777580000000  0.5736520000000 1.0
C      1  0.5489770000000  0.5473360000000  0.2707060000000 1.0
C      1  0.5489770000000  0.6749060000000  0.6556390000000 1.0
C      1  0.5489770000000  0.2777580000000  0.5736520000000 1.0
C      1  0.2449820000000  0.5471200000000  0.5816140000000 1.0
C      1  0.2449820000000  0.5471200000000  0.4183860000000 1.0
C      1  0.2449820000000  0.4057610000000  0.5000000000000 1.0
C      1  0.7550180000000  0.5471200000000  0.5816140000000 1.0
C      1  0.7550180000000  0.5471200000000  0.4183860000000 1.0
C      1  0.7550180000000  0.4057610000000  0.5000000000000 1.0
C      1  0.2449820000000  0.4528800000000  0.5816140000000 1.0
C      1  0.2449820000000  0.4528800000000  0.4183860000000 1.0
C      1  0.2449820000000  0.5942390000000  0.5000000000000 1.0
C      1  0.7550180000000  0.4528800000000  0.5816140000000 1.0
C      1  0.7550180000000  0.4528800000000  0.4183860000000 1.0
C      1  0.7550180000000  0.5942390000000  0.5000000000000 1.0
C      1  0.4018340000000  0.4031780000000  0.6677020000000 1.0
C      1  0.4018330000000  0.6936460000000  0.5000000000000 1.0
C      1  0.4018340000000  0.4031780000000  0.3322980000000 1.0
C      1  0.5981660000000  0.4031780000000  0.6677020000000 1.0
C      1  0.5981670000000  0.6936460000000  0.5000000000000 1.0
C      1  0.5981660000000  0.4031780000000  0.3322980000000 1.0
C      1  0.4018340000000  0.5968220000000  0.6677020000000 1.0
C      1  0.4018330000000  0.3063540000000  0.5000000000000 1.0
C      1  0.4018340000000  0.5968220000000  0.3322980000000 1.0
C      1  0.5981660000000  0.5968220000000  0.6677020000000 1.0
C      1  0.5981670000000  0.3063540000000  0.5000000000000 1.0
C      1  0.5981660000000  0.5968220000000  0.3322980000000 1.0
END
