TITL C-2159255-4746-715 -0.00209382375137734 3375 -413.706891858412 0 0 60 (C1) n - 1
REM
REM in /scratch/bkarasulu/871
REM
REM
REM
REM
REM
REM ./C.cell (a2850807a9bf4ad07a5b6933b78d9264)
REM AIRSS Version 0.9.1 bugfix July 2018 build 013d7b7c2542+ Fri, 06 Jul 2018 19:26:36 +0100
REM compiler GCC version 9.2.1 20190827 (Red Hat 9.2.1-1)
REM options -cpp -mtune=generic -march=x86-64 -g -O0 -fpre-include=/usr/include/finclude/math-vector-fortran.h
REM seed 1046751007 -833078096 1164918125 218867819 -2037149285 -1049860967 1902157605 2112289740 -501068650 -1927031764 1527151418 -209647730 1130419471 1567576644 -513001907 -1477819017 -659286644 1511150895 1446685169 448873000 -1572133925 1258332620 -292957915 -1328244081 -151936308 426876413 106291482 2089475527 190963559 -1387563584 -419961680 622646184 835704886
REM
CELL 1.54180   15.00000   15.00000   15.00000   90.00000   90.00000   90.00000
LATT -1
SFAC C  
C      1  0.4309990000000  0.6554480000000  0.6028860000000 1.0
C      1  0.6363240000000  0.6715230000000  0.4594120000000 1.0
C      1  0.3968860000000  0.6874690000000  0.4087540000000 1.0
C      1  0.2664960000000  0.6675250000000  0.5096210000000 1.0
C      1  0.5792390000000  0.6735880000000  0.6815540000000 1.0
C      1  0.6527730000000  0.6576440000000  0.3144930000000 1.0
C      1  0.6321000000000  0.5494560000000  0.5508120000000 1.0
C      1  0.4900500000000  0.5679920000000  0.3708130000000 1.0
C      1  0.4061410000000  0.5852310000000  0.5330990000000 1.0
C      1  0.5101520000000  0.5016330000000  0.4458380000000 1.0
C      1  0.4585070000000  0.5046320000000  0.5222870000000 1.0
C      1  0.5494320000000  0.5002000000000  0.5298580000000 1.0
C      1  0.3303050000000  0.3769750000000  0.4241740000000 1.0
C      1  0.5161370000000  0.3725330000000  0.6851900000000 1.0
C      1  0.6557680000000  0.3658040000000  0.3888180000000 1.0
C      1  0.3504980000000  0.3884340000000  0.6562600000000 1.0
C      1  0.7083410000000  0.4011530000000  0.5508400000000 1.0
C      1  0.4425460000000  0.4081510000000  0.2994010000000 1.0
C      1  0.5193890000000  0.3444420000000  0.3095160000000 1.0
C      1  0.3218320000000  0.3391640000000  0.5759270000000 1.0
C      1  0.6544900000000  0.3460140000000  0.6143000000000 1.0
C      1  0.5087940000000  0.4678850000000  0.2549560000000 1.0
C      1  0.2846550000000  0.4585240000000  0.6347330000000 1.0
C      1  0.7129590000000  0.4704110000000  0.6261700000000 1.0
C      1  0.6075310000000  0.5882210000000  0.7002100000000 1.0
C      1  0.6318560000000  0.5740900000000  0.2870020000000 1.0
C      1  0.3011720000000  0.5807160000000  0.5299560000000 1.0
C      1  0.6712510000000  0.5537090000000  0.6344720000000 1.0
C      1  0.5384640000000  0.5487240000000  0.2923200000000 1.0
C      1  0.3122490000000  0.5454050000000  0.6237230000000 1.0
C      1  0.6611810000000  0.7148150000000  0.3766620000000 1.0
C      1  0.3307350000000  0.7171940000000  0.4758190000000 1.0
C      1  0.5279050000000  0.6798600000000  0.6054510000000 1.0
C      1  0.4034060000000  0.7304410000000  0.5398580000000 1.0
C      1  0.5521940000000  0.6961240000000  0.5087400000000 1.0
C      1  0.4693730000000  0.7213920000000  0.4694680000000 1.0
C      1  0.3418680000000  0.5259080000000  0.3775440000000 1.0
C      1  0.4493510000000  0.5158990000000  0.7043050000000 1.0
C      1  0.7056280000000  0.5113000000000  0.4200780000000 1.0
C      1  0.5781240000000  0.4020710000000  0.2585320000000 1.0
C      1  0.2535320000000  0.4057920000000  0.5589510000000 1.0
C      1  0.6648000000000  0.4128470000000  0.6840560000000 1.0
C      1  0.5628240000000  0.3135210000000  0.6220940000000 1.0
C      1  0.5734140000000  0.3121800000000  0.3844710000000 1.0
C      1  0.3626420000000  0.3145190000000  0.4920930000000 1.0
C      1  0.2832840000000  0.5212120000000  0.4509470000000 1.0
C      1  0.5434720000000  0.5212210000000  0.7227980000000 1.0
C      1  0.6859210000000  0.5045810000000  0.3265760000000 1.0
C      1  0.5225850000000  0.2681680000000  0.5496100000000 1.0
C      1  0.5302620000000  0.2685480000000  0.4555380000000 1.0
C      1  0.4454650000000  0.2696580000000  0.4954030000000 1.0
C      1  0.4000260000000  0.6027630000000  0.3685710000000 1.0
C      1  0.3919970000000  0.5810170000000  0.6639200000000 1.0
C      1  0.6763840000000  0.5845850000000  0.4746830000000 1.0
C      1  0.4317330000000  0.4186250000000  0.6899390000000 1.0
C      1  0.7015930000000  0.4187620000000  0.4582260000000 1.0
C      1  0.3688740000000  0.4325870000000  0.3531630000000 1.0
C      1  0.2656080000000  0.4318860000000  0.4698930000000 1.0
C      1  0.5799180000000  0.4339700000000  0.7181240000000 1.0
C      1  0.6585680000000  0.4158600000000  0.3070900000000 1.0
END
