TITL C-2159255-4746-17 -0.0037222360083736 3375 -402.291703482425 0 0 60 (C5) n - 1
REM
REM in /scratch/bkarasulu/871
REM
REM
REM
REM
REM
REM ./C.cell (a2850807a9bf4ad07a5b6933b78d9264)
REM AIRSS Version 0.9.1 bugfix July 2018 build 013d7b7c2542+ Fri, 06 Jul 2018 19:26:36 +0100
REM compiler GCC version 9.2.1 20190827 (Red Hat 9.2.1-1)
REM options -cpp -mtune=generic -march=x86-64 -g -O0 -fpre-include=/usr/include/finclude/math-vector-fortran.h
REM seed -646078247 -452617022 371805349 1601888096 -373467084 -2075361939 -912233970 336625091 402502443 -738744106 -2033647119 -1112719991 -1160475923 -351805454 -353800479 -1437616407 1574632066 -962565974 1328561428 705420241 497700523 -1613442630 -957065487 -1085386354 1741292887 -1355659751 1563342906 552048770 1045699641 -1072646579 -70579822 -1609152119 -2054549509
REM
CELL 1.54180   15.00000   15.00000   15.00000   90.00000   90.00000   90.00000
LATT -1
SFAC C  
C      1  0.6049040000000  0.2216250000000  0.3566660000000 1.0
C      1  0.6048970000000  0.2776580000000  0.7204580000000 1.0
C      1  0.6048830000000  0.6409570000000  0.7796030000000 1.0
C      1  0.6048800000000  0.8094830000000  0.4523470000000 1.0
C      1  0.6048910000000  0.5503070000000  0.1909450000000 1.0
C      1  0.5385690000000  0.3256570000000  0.2985140000000 1.0
C      1  0.5385670000000  0.2544970000000  0.6035470000000 1.0
C      1  0.5385540000000  0.5226140000000  0.7654880000000 1.0
C      1  0.5385490000000  0.7594830000000  0.5605330000000 1.0
C      1  0.5385580000000  0.6377530000000  0.2719230000000 1.0
C      1  0.4078920000000  0.5803070000000  0.5073120000000 1.0
C      1  0.4078940000000  0.5317660000000  0.4258760000000 1.0
C      1  0.4078920000000  0.4393150000000  0.4468760000000 1.0
C      1  0.4078890000000  0.4307190000000  0.5412910000000 1.0
C      1  0.4078890000000  0.5178570000000  0.5786420000000 1.0
C      1  0.6288940000000  0.7471570000000  0.5121580000000 1.0
C      1  0.6289020000000  0.5879380000000  0.2687010000000 1.0
C      1  0.6289120000000  0.3072040000000  0.3448990000000 1.0
C      1  0.6289090000000  0.2929150000000  0.6354340000000 1.0
C      1  0.6288980000000  0.5648140000000  0.7388120000000 1.0
C      1  0.3389700000000  0.6899840000000  0.5939740000000 1.0
C      1  0.3389750000000  0.6480810000000  0.3483470000000 1.0
C      1  0.3389790000000  0.4015250000000  0.3122940000000 1.0
C      1  0.3389770000000  0.2910460000000  0.5356420000000 1.0
C      1  0.3389700000000  0.4693260000000  0.7097320000000 1.0
C      1  0.3764040000000  0.4803450000000  0.2845590000000 1.0
C      1  0.3764060000000  0.2890250000000  0.4521110000000 1.0
C      1  0.3763990000000  0.3892590000000  0.6858420000000 1.0
C      1  0.3763950000000  0.6425220000000  0.6627420000000 1.0
C      1  0.3763990000000  0.6988170000000  0.4147370000000 1.0
C      1  0.3674500000000  0.6653730000000  0.5101720000000 1.0
C      1  0.3674530000000  0.5607750000000  0.3458580000000 1.0
C      1  0.3674540000000  0.3721780000000  0.3945590000000 1.0
C      1  0.3674490000000  0.3602160000000  0.5889750000000 1.0
C      1  0.3674470000000  0.5414220000000  0.6604290000000 1.0
C      1  0.6267770000000  0.3794900000000  0.4134490000000 1.0
C      1  0.6267750000000  0.3804480000000  0.5878720000000 1.0
C      1  0.6267730000000  0.5466320000000  0.6408650000000 1.0
C      1  0.6267720000000  0.6483850000000  0.4991860000000 1.0
C      1  0.6267750000000  0.5450820000000  0.3586330000000 1.0
C      1  0.5992300000000  0.4541910000000  0.6414420000000 1.0
C      1  0.5992320000000  0.6203670000000  0.5872830000000 1.0
C      1  0.5992340000000  0.6202110000000  0.4125000000000 1.0
C      1  0.5992340000000  0.4539340000000  0.3586430000000 1.0
C      1  0.5992320000000  0.3513320000000  0.5001360000000 1.0
C      1  0.5335540000000  0.4450280000000  0.7131940000000 1.0
C      1  0.5335510000000  0.6857730000000  0.6181650000000 1.0
C      1  0.5335570000000  0.6697920000000  0.3598340000000 1.0
C      1  0.5335620000000  0.4191640000000  0.2952100000000 1.0
C      1  0.5335620000000  0.2802540000000  0.5135980000000 1.0
C      1  0.4685850000000  0.6615530000000  0.6869760000000 1.0
C      1  0.4685880000000  0.7277510000000  0.4041290000000 1.0
C      1  0.4685950000000  0.4791980000000  0.2537690000000 1.0
C      1  0.4685980000000  0.2593920000000  0.4436940000000 1.0
C      1  0.4685910000000  0.3720980000000  0.7114240000000 1.0
C      1  0.5087740000000  0.5598000000000  0.2202340000000 1.0
C      1  0.5087860000000  0.2524090000000  0.3566780000000 1.0
C      1  0.5087800000000  0.2871820000000  0.6911800000000 1.0
C      1  0.5087660000000  0.6160580000000  0.7614840000000 1.0
C      1  0.5087640000000  0.7845550000000  0.4704240000000 1.0
END
