TITL C-2158984-8299-510 -0.00191002923137622 3375 -413.203247279999 0 0 60 (C1) n - 1
REM
REM in /scratch/bkarasulu/869
REM
REM
REM
REM
REM
REM ./C.cell (a2850807a9bf4ad07a5b6933b78d9264)
REM AIRSS Version 0.9.1 bugfix July 2018 build 013d7b7c2542+ Fri, 06 Jul 2018 19:26:36 +0100
REM compiler GCC version 9.2.1 20190827 (Red Hat 9.2.1-1)
REM options -cpp -mtune=generic -march=x86-64 -g -O0 -fpre-include=/usr/include/finclude/math-vector-fortran.h
REM seed 2079788374 235118732 -401142814 -1878439125 1910141359 951806859 1933599376 668698801 2020494016 1462540264 856256306 -1587433446 -755436026 -2143537164 -1307248285 1891155020 1906204533 -1983659733 -2027666331 1792989743 -964875566 1679176160 -1842747779 1501533990 1853781709 -1702830331 -2020507505 209735432 -1349252103 530160392 1951260186 -202143190 -1505629299
REM
CELL 1.54180   15.00000   15.00000   15.00000   90.00000   90.00000   90.00000
LATT -1
SFAC C  
C      1  0.4826160000000  0.5765750000000  0.6796620000000 1.0
C      1  0.6299070000000  0.5468340000000  0.6390290000000 1.0
C      1  0.5629700000000  0.5284050000000  0.7029460000000 1.0
C      1  0.3144130000000  0.4865740000000  0.6756520000000 1.0
C      1  0.3838110000000  0.4721870000000  0.7405490000000 1.0
C      1  0.3777390000000  0.7048030000000  0.4412830000000 1.0
C      1  0.7268910000000  0.4742220000000  0.4430280000000 1.0
C      1  0.3263530000000  0.6227930000000  0.4350930000000 1.0
C      1  0.3236870000000  0.5808070000000  0.6770450000000 1.0
C      1  0.6567470000000  0.6348430000000  0.6001740000000 1.0
C      1  0.5100750000000  0.4215090000000  0.4736240000000 1.0
C      1  0.6064380000000  0.2953010000000  0.4192580000000 1.0
C      1  0.4075770000000  0.6847860000000  0.5955210000000 1.0
C      1  0.5312080000000  0.7086580000000  0.4113070000000 1.0
C      1  0.6749490000000  0.4331950000000  0.5076300000000 1.0
C      1  0.3775020000000  0.4804800000000  0.3675130000000 1.0
C      1  0.5644510000000  0.3836970000000  0.6471710000000 1.0
C      1  0.5357420000000  0.4351060000000  0.7168510000000 1.0
C      1  0.3045580000000  0.5769830000000  0.5142920000000 1.0
C      1  0.6080490000000  0.5016620000000  0.5526780000000 1.0
C      1  0.3080370000000  0.4807070000000  0.5128240000000 1.0
C      1  0.5216620000000  0.7298950000000  0.5021060000000 1.0
C      1  0.7270160000000  0.5748990000000  0.4537940000000 1.0
C      1  0.3339510000000  0.6229800000000  0.5961490000000 1.0
C      1  0.4274080000000  0.7294780000000  0.5181590000000 1.0
C      1  0.4684270000000  0.5011600000000  0.4318750000000 1.0
C      1  0.5434920000000  0.2962480000000  0.6202010000000 1.0
C      1  0.3549890000000  0.5745650000000  0.3583290000000 1.0
C      1  0.4159210000000  0.3086800000000  0.4086870000000 1.0
C      1  0.4524780000000  0.5097420000000  0.5891160000000 1.0
C      1  0.5695170000000  0.3361340000000  0.3454410000000 1.0
C      1  0.6695670000000  0.5958360000000  0.3751220000000 1.0
C      1  0.6318990000000  0.3973570000000  0.3131180000000 1.0
C      1  0.6025510000000  0.4782650000000  0.2682870000000 1.0
C      1  0.5646190000000  0.6683300000000  0.5699970000000 1.0
C      1  0.3179490000000  0.4330180000000  0.4287770000000 1.0
C      1  0.4021690000000  0.3660460000000  0.6280670000000 1.0
C      1  0.6758810000000  0.5284340000000  0.3094190000000 1.0
C      1  0.6025650000000  0.2807020000000  0.5498870000000 1.0
C      1  0.4512100000000  0.2987090000000  0.5825660000000 1.0
C      1  0.4910610000000  0.6599470000000  0.6348710000000 1.0
C      1  0.4726770000000  0.3480390000000  0.3381390000000 1.0
C      1  0.5285270000000  0.4456850000000  0.5671650000000 1.0
C      1  0.4027100000000  0.5651260000000  0.7338240000000 1.0
C      1  0.4643670000000  0.5628110000000  0.5061690000000 1.0
C      1  0.6530740000000  0.3402390000000  0.4953630000000 1.0
C      1  0.5064530000000  0.5653910000000  0.3501800000000 1.0
C      1  0.7188150000000  0.6197520000000  0.5316710000000 1.0
C      1  0.4431750000000  0.4100810000000  0.7093600000000 1.0
C      1  0.5600440000000  0.5869220000000  0.5036010000000 1.0
C      1  0.3334450000000  0.3445430000000  0.4206510000000 1.0
C      1  0.5497520000000  0.2471180000000  0.4768440000000 1.0
C      1  0.4310020000000  0.6221760000000  0.3290450000000 1.0
C      1  0.4438290000000  0.4323580000000  0.3058440000000 1.0
C      1  0.4602620000000  0.2719920000000  0.4892200000000 1.0
C      1  0.5135600000000  0.4962070000000  0.2839590000000 1.0
C      1  0.3537520000000  0.4494570000000  0.5937770000000 1.0
C      1  0.7056070000000  0.4473780000000  0.3541680000000 1.0
C      1  0.5775250000000  0.6188390000000  0.4024100000000 1.0
C      1  0.4433710000000  0.7053350000000  0.3715090000000 1.0
END
