TITL C-2159255-4746-566 -0.00135620108528382 3375 -397.579532745065 0 0 60 (C5) n - 1
REM
REM in /scratch/bkarasulu/871
REM
REM
REM
REM
REM
REM ./C.cell (a2850807a9bf4ad07a5b6933b78d9264)
REM AIRSS Version 0.9.1 bugfix July 2018 build 013d7b7c2542+ Fri, 06 Jul 2018 19:26:36 +0100
REM compiler GCC version 9.2.1 20190827 (Red Hat 9.2.1-1)
REM options -cpp -mtune=generic -march=x86-64 -g -O0 -fpre-include=/usr/include/finclude/math-vector-fortran.h
REM seed 637128322 -857216180 -258945440 1033923793 -1880896110 1018573132 132346429 383238487 15599188 -1728121331 1376660586 2000964000 -587042575 -218766504 -866802901 -1845081170 124425762 1470078879 25269733 1630572785 904833967 1097741368 1473359345 373881638 -1917406559 1876780176 -1516184635 -994093462 1455089839 78739166 531305916 -657075082 -955536339
REM
CELL 1.54180   15.00000   15.00000   15.00000   90.00000   90.00000   90.00000
LATT -1
SFAC C  
C      1  0.3368050000000  0.3550590000000  0.5477390000000 1.0
C      1  0.5874180000000  0.3000040000000  0.5477390000000 1.0
C      1  0.7172230000000  0.5213370000000  0.5477390000000 1.0
C      1  0.5468330000000  0.7131840000000  0.5477390000000 1.0
C      1  0.3117220000000  0.6104180000000  0.5477390000000 1.0
C      1  0.3368050000000  0.3550590000000  0.4522610000000 1.0
C      1  0.5874180000000  0.3000040000000  0.4522610000000 1.0
C      1  0.7172230000000  0.5213370000000  0.4522610000000 1.0
C      1  0.5468330000000  0.7131840000000  0.4522610000000 1.0
C      1  0.3117220000000  0.6104180000000  0.4522610000000 1.0
C      1  0.4972910000000  0.4184810000000  0.5525610000000 1.0
C      1  0.5766930000000  0.4722330000000  0.5525610000000 1.0
C      1  0.5501080000000  0.5643580000000  0.5525610000000 1.0
C      1  0.4542760000000  0.5675430000000  0.5525610000000 1.0
C      1  0.4216330000000  0.4773860000000  0.5525610000000 1.0
C      1  0.4972910000000  0.4184810000000  0.4474390000000 1.0
C      1  0.5766930000000  0.4722330000000  0.4474390000000 1.0
C      1  0.5501080000000  0.5643580000000  0.4474390000000 1.0
C      1  0.4542760000000  0.5675430000000  0.4474390000000 1.0
C      1  0.4216330000000  0.4773860000000  0.4474390000000 1.0
C      1  0.5688550000000  0.6214810000000  0.7067680000000 1.0
C      1  0.4057410000000  0.6030240000000  0.7067680000000 1.0
C      1  0.3728900000000  0.4421910000000  0.7067680000000 1.0
C      1  0.5157010000000  0.3612480000000  0.7067680000000 1.0
C      1  0.6368130000000  0.4720560000000  0.7067680000000 1.0
C      1  0.5688550000000  0.6214810000000  0.2932320000000 1.0
C      1  0.4057410000000  0.6030240000000  0.2932320000000 1.0
C      1  0.3728900000000  0.4421910000000  0.2932320000000 1.0
C      1  0.5157010000000  0.3612480000000  0.2932320000000 1.0
C      1  0.6368130000000  0.4720560000000  0.2932320000000 1.0
C      1  0.6829900000000  0.5914340000000  0.6013820000000 1.0
C      1  0.4695880000000  0.7022880000000  0.6013820000000 1.0
C      1  0.2982140000000  0.5335860000000  0.6013820000000 1.0
C      1  0.4057020000000  0.3184700000000  0.6013820000000 1.0
C      1  0.6435050000000  0.3542220000000  0.6013820000000 1.0
C      1  0.6829900000000  0.5914340000000  0.3986180000000 1.0
C      1  0.4695880000000  0.7022880000000  0.3986180000000 1.0
C      1  0.2982140000000  0.5335860000000  0.3986180000000 1.0
C      1  0.4057020000000  0.3184700000000  0.3986180000000 1.0
C      1  0.6435050000000  0.3542220000000  0.3986180000000 1.0
C      1  0.4015120000000  0.6544930000000  0.4485280000000 1.0
C      1  0.3226330000000  0.4540730000000  0.4485280000000 1.0
C      1  0.4888700000000  0.3171230000000  0.4485280000000 1.0
C      1  0.6704880000000  0.4329020000000  0.4485280000000 1.0
C      1  0.6164970000000  0.6414090000000  0.4485280000000 1.0
C      1  0.4015120000000  0.6544930000000  0.5514720000000 1.0
C      1  0.3226330000000  0.4540730000000  0.5514720000000 1.0
C      1  0.4888700000000  0.3171230000000  0.5514720000000 1.0
C      1  0.6704880000000  0.4329020000000  0.5514720000000 1.0
C      1  0.6164970000000  0.6414090000000  0.5514720000000 1.0
C      1  0.4845550000000  0.6479240000000  0.3126580000000 1.0
C      1  0.3545420000000  0.5310210000000  0.3126580000000 1.0
C      1  0.4255480000000  0.3712480000000  0.3126580000000 1.0
C      1  0.5994430000000  0.3894060000000  0.3126580000000 1.0
C      1  0.6359120000000  0.5604010000000  0.3126580000000 1.0
C      1  0.4845550000000  0.6479240000000  0.6873420000000 1.0
C      1  0.3545420000000  0.5310210000000  0.6873420000000 1.0
C      1  0.4255480000000  0.3712480000000  0.6873420000000 1.0
C      1  0.5994430000000  0.3894060000000  0.6873420000000 1.0
C      1  0.6359120000000  0.5604010000000  0.6873420000000 1.0
END
