TITL C-2159255-4746-77 -0.00495313901816533 3375 -408.524915438322 0 0 60 (C2v) n - 1
REM
REM in /scratch/bkarasulu/871
REM
REM
REM
REM
REM
REM ./C.cell (a2850807a9bf4ad07a5b6933b78d9264)
REM AIRSS Version 0.9.1 bugfix July 2018 build 013d7b7c2542+ Fri, 06 Jul 2018 19:26:36 +0100
REM compiler GCC version 9.2.1 20190827 (Red Hat 9.2.1-1)
REM options -cpp -mtune=generic -march=x86-64 -g -O0 -fpre-include=/usr/include/finclude/math-vector-fortran.h
REM seed -1701063646 681364909 1161765461 -1499464854 1834126494 -916130684 404109541 595584301 -326987359 -5583538 1906586639 -1526751718 -461797127 -541379934 938275657 184976023 -353364216 897930337 -450032756 2020659112 800985781 -573345346 1743075214 -1577649109 442240773 1664522944 -1946643886 1484469178 1036270356 1123796759 379371070 110969163 -1010356895
REM
CELL 1.54180   15.00000   15.00000   15.00000   90.00000   90.00000   90.00000
LATT -1
SFAC C  
C      1  0.5455250000000  0.6823050000000  0.3496770000000 1.0
C      1  0.6722210000000  0.5495190000000  0.3605220000000 1.0
C      1  0.6307940000000  0.3700440000000  0.3522660000000 1.0
C      1  0.4544750000000  0.3176950000000  0.3496770000000 1.0
C      1  0.3277790000000  0.4504810000000  0.3605220000000 1.0
C      1  0.3692060000000  0.6299560000000  0.3522660000000 1.0
C      1  0.4544750000000  0.6823050000000  0.3496770000000 1.0
C      1  0.3277790000000  0.5495190000000  0.3605220000000 1.0
C      1  0.3692060000000  0.3700440000000  0.3522660000000 1.0
C      1  0.5455250000000  0.3176950000000  0.3496770000000 1.0
C      1  0.6722210000000  0.4504810000000  0.3605220000000 1.0
C      1  0.6307940000000  0.6299560000000  0.3522660000000 1.0
C      1  0.3488620000000  0.2958380000000  0.5800660000000 1.0
C      1  0.2113740000000  0.5426150000000  0.6536660000000 1.0
C      1  0.4030210000000  0.7757480000000  0.5701240000000 1.0
C      1  0.6511380000000  0.7041620000000  0.5800660000000 1.0
C      1  0.7886260000000  0.4573850000000  0.6536660000000 1.0
C      1  0.5969790000000  0.2242520000000  0.5701240000000 1.0
C      1  0.6511380000000  0.2958380000000  0.5800660000000 1.0
C      1  0.7886260000000  0.5426150000000  0.6536660000000 1.0
C      1  0.5969790000000  0.7757480000000  0.5701240000000 1.0
C      1  0.3488620000000  0.7041620000000  0.5800660000000 1.0
C      1  0.2113740000000  0.4573850000000  0.6536660000000 1.0
C      1  0.4030210000000  0.2242520000000  0.5701240000000 1.0
C      1  0.7027180000000  0.3194580000000  0.5006200000000 1.0
C      1  0.4524410000000  0.2160710000000  0.4904060000000 1.0
C      1  0.2683450000000  0.4063160000000  0.5109930000000 1.0
C      1  0.2972820000000  0.6805420000000  0.5006200000000 1.0
C      1  0.5475590000000  0.7839290000000  0.4904060000000 1.0
C      1  0.7316550000000  0.5936840000000  0.5109930000000 1.0
C      1  0.2972820000000  0.3194580000000  0.5006200000000 1.0
C      1  0.5475590000000  0.2160710000000  0.4904060000000 1.0
C      1  0.7316550000000  0.4063160000000  0.5109930000000 1.0
C      1  0.7027180000000  0.6805420000000  0.5006200000000 1.0
C      1  0.4524410000000  0.7839290000000  0.4904060000000 1.0
C      1  0.2683450000000  0.5936840000000  0.5109930000000 1.0
C      1  0.3030150000000  0.5517720000000  0.5950970000000 1.0
C      1  0.4583600000000  0.6090140000000  0.6472000000000 1.0
C      1  0.6307710000000  0.6199470000000  0.6264480000000 1.0
C      1  0.6969850000000  0.4482280000000  0.5950970000000 1.0
C      1  0.5416400000000  0.3909860000000  0.6472000000000 1.0
C      1  0.3692290000000  0.3800530000000  0.6264480000000 1.0
C      1  0.6969850000000  0.5517720000000  0.5950970000000 1.0
C      1  0.5416400000000  0.6090140000000  0.6472000000000 1.0
C      1  0.3692290000000  0.6199470000000  0.6264480000000 1.0
C      1  0.3030150000000  0.4482280000000  0.5950970000000 1.0
C      1  0.4583600000000  0.3909860000000  0.6472000000000 1.0
C      1  0.6307710000000  0.3800530000000  0.6264480000000 1.0
C      1  0.3335870000000  0.7008920000000  0.4164330000000 1.0
C      1  0.5862820000000  0.7496290000000  0.4119270000000 1.0
C      1  0.7420050000000  0.5461510000000  0.4345560000000 1.0
C      1  0.6664130000000  0.2991080000000  0.4164330000000 1.0
C      1  0.4137180000000  0.2503710000000  0.4119270000000 1.0
C      1  0.2579950000000  0.4538490000000  0.4345560000000 1.0
C      1  0.6664130000000  0.7008920000000  0.4164330000000 1.0
C      1  0.4137180000000  0.7496290000000  0.4119270000000 1.0
C      1  0.2579950000000  0.5461510000000  0.4345560000000 1.0
C      1  0.3335870000000  0.2991080000000  0.4164330000000 1.0
C      1  0.5862820000000  0.2503710000000  0.4119270000000 1.0
C      1  0.7420050000000  0.4538490000000  0.4345560000000 1.0
END
