TITL C-2159255-4746-332 -0.00216395867779262 3375 -406.620958534023 0 0 60 (C5) n - 1
REM
REM in /scratch/bkarasulu/871
REM
REM
REM
REM
REM
REM ./C.cell (a2850807a9bf4ad07a5b6933b78d9264)
REM AIRSS Version 0.9.1 bugfix July 2018 build 013d7b7c2542+ Fri, 06 Jul 2018 19:26:36 +0100
REM compiler GCC version 9.2.1 20190827 (Red Hat 9.2.1-1)
REM options -cpp -mtune=generic -march=x86-64 -g -O0 -fpre-include=/usr/include/finclude/math-vector-fortran.h
REM seed -1007148558 536836499 1836837513 -746892697 -388397154 -2088651263 -1270910434 -1394382211 -1562757371 -1839952465 -1037696764 445671069 1838817238 -1623300835 -504314709 410692142 895618440 -1615460512 -1773187249 644940800 1293274827 -782110363 266048415 -1971753701 927741594 280495911 986483949 1117814391 -1201901858 -1125795681 1191607476 622593577 -1723587112
REM
CELL 1.54180   15.00000   15.00000   15.00000   90.00000   90.00000   90.00000
LATT -1
SFAC C  
C      1  0.2847420000000  0.5601900000000  0.5533330000000 1.0
C      1  0.2847420000000  0.4678790000000  0.5737250000000 1.0
C      1  0.2847400000000  0.4199590000000  0.4922330000000 1.0
C      1  0.2847400000000  0.4826540000000  0.4214770000000 1.0
C      1  0.2847410000000  0.5693210000000  0.4592380000000 1.0
C      1  0.5366040000000  0.3411720000000  0.4626660000000 1.0
C      1  0.5366040000000  0.4864260000000  0.3374090000000 1.0
C      1  0.5366060000000  0.6504400000000  0.4368470000000 1.0
C      1  0.5366070000000  0.6065510000000  0.6235620000000 1.0
C      1  0.5366060000000  0.4154120000000  0.6395180000000 1.0
C      1  0.4903230000000  0.4212070000000  0.4821400000000 1.0
C      1  0.4903230000000  0.4926380000000  0.4195440000000 1.0
C      1  0.4903240000000  0.5742440000000  0.4681370000000 1.0
C      1  0.4903260000000  0.5532480000000  0.5607640000000 1.0
C      1  0.4903250000000  0.4586660000000  0.5694190000000 1.0
C      1  0.3616880000000  0.6254360000000  0.3311090000000 1.0
C      1  0.3616910000000  0.6993880000000  0.5671070000000 1.0
C      1  0.3616910000000  0.4977920000000  0.7103670000000 1.0
C      1  0.3616890000000  0.2992480000000  0.5629060000000 1.0
C      1  0.3616870000000  0.3781370000000  0.3285140000000 1.0
C      1  0.7831140000000  0.4807840000000  0.5829190000000 1.0
C      1  0.7831130000000  0.4151990000000  0.5073470000000 1.0
C      1  0.7831120000000  0.4668060000000  0.4216190000000 1.0
C      1  0.7831130000000  0.5642850000000  0.4442090000000 1.0
C      1  0.7831130000000  0.5729240000000  0.5438980000000 1.0
C      1  0.6802860000000  0.5652980000000  0.4424100000000 1.0
C      1  0.6802870000000  0.5749490000000  0.5443060000000 1.0
C      1  0.6802870000000  0.4810220000000  0.5849720000000 1.0
C      1  0.6802860000000  0.4133220000000  0.5082090000000 1.0
C      1  0.6802860000000  0.4654070000000  0.4201010000000 1.0
C      1  0.3237120000000  0.4333120000000  0.6522560000000 1.0
C      1  0.3237080000000  0.3345890000000  0.4836260000000 1.0
C      1  0.3237070000000  0.4644590000000  0.3376250000000 1.0
C      1  0.3237100000000  0.6434460000000  0.4160220000000 1.0
C      1  0.3237130000000  0.6241960000000  0.6104750000000 1.0
C      1  0.6196370000000  0.3329090000000  0.5134890000000 1.0
C      1  0.6196360000000  0.4355360000000  0.3452560000000 1.0
C      1  0.6196370000000  0.6272490000000  0.3908710000000 1.0
C      1  0.6196380000000  0.6431090000000  0.5872990000000 1.0
C      1  0.6196380000000  0.4611960000000  0.6630820000000 1.0
C      1  0.4352050000000  0.5534200000000  0.7316570000000 1.0
C      1  0.4352030000000  0.2961920000000  0.6223900000000 1.0
C      1  0.4352000000000  0.3206190000000  0.3439880000000 1.0
C      1  0.4352000000000  0.5929440000000  0.2811860000000 1.0
C      1  0.4352030000000  0.7368260000000  0.5207790000000 1.0
C      1  0.5251190000000  0.5660180000000  0.2844880000000 1.0
C      1  0.5251220000000  0.7253650000000  0.4961900000000 1.0
C      1  0.5251230000000  0.5732630000000  0.7131580000000 1.0
C      1  0.5251220000000  0.3199150000000  0.6355450000000 1.0
C      1  0.5251190000000  0.3154390000000  0.3706160000000 1.0
C      1  0.3589040000000  0.5401540000000  0.2941630000000 1.0
C      1  0.3589070000000  0.7081720000000  0.4745820000000 1.0
C      1  0.3589100000000  0.5885020000000  0.6901280000000 1.0
C      1  0.3589080000000  0.3465280000000  0.6429230000000 1.0
C      1  0.3589050000000  0.3166460000000  0.3982050000000 1.0
C      1  0.6006630000000  0.2885590000000  0.5921530000000 1.0
C      1  0.6006610000000  0.3470170000000  0.3273880000000 1.0
C      1  0.6006620000000  0.6168870000000  0.3011640000000 1.0
C      1  0.6006640000000  0.7252250000000  0.5497230000000 1.0
C      1  0.6006650000000  0.5223060000000  0.7295680000000 1.0
END
