TITL C-2158984-8299-373 -0.00190889057396826 3375 -402.378446379138 0 0 60 (C1) n - 1
REM
REM in /scratch/bkarasulu/869
REM
REM
REM
REM
REM
REM ./C.cell (a2850807a9bf4ad07a5b6933b78d9264)
REM AIRSS Version 0.9.1 bugfix July 2018 build 013d7b7c2542+ Fri, 06 Jul 2018 19:26:36 +0100
REM compiler GCC version 9.2.1 20190827 (Red Hat 9.2.1-1)
REM options -cpp -mtune=generic -march=x86-64 -g -O0 -fpre-include=/usr/include/finclude/math-vector-fortran.h
REM seed -144613163 -1013050991 358071517 818813280 1527566063 112740627 1168702340 -1759181999 1134828372 -15687472 2060213465 -619531121 982385591 -160673420 -740017285 -2028839987 52605460 -37047491 -1312800029 1776975581 -442805263 1702498133 -31983860 110899603 372681452 -1480386438 47073840 1846270680 584220156 1656033151 2003196977 -1004012694 -953180902
REM
CELL 1.54180   15.00000   15.00000   15.00000   90.00000   90.00000   90.00000
LATT -1
SFAC C  
C      1  0.5649130000000  0.6887900000000  0.4111780000000 1.0
C      1  0.3585310000000  0.6513500000000  0.4465040000000 1.0
C      1  0.2935520000000  0.5210430000000  0.4367890000000 1.0
C      1  0.3606700000000  0.3757220000000  0.4236500000000 1.0
C      1  0.4716930000000  0.2655800000000  0.4549270000000 1.0
C      1  0.6811080000000  0.4156160000000  0.4410180000000 1.0
C      1  0.6818300000000  0.5758030000000  0.4144270000000 1.0
C      1  0.2872140000000  0.5945420000000  0.5795100000000 1.0
C      1  0.2850530000000  0.4220790000000  0.5558350000000 1.0
C      1  0.3395800000000  0.2760250000000  0.5472860000000 1.0
C      1  0.6702010000000  0.3369830000000  0.5769250000000 1.0
C      1  0.7243510000000  0.5052010000000  0.5559640000000 1.0
C      1  0.6596610000000  0.6645450000000  0.5394500000000 1.0
C      1  0.5565920000000  0.7828940000000  0.5475260000000 1.0
C      1  0.3920190000000  0.5155560000000  0.4907560000000 1.0
C      1  0.4350840000000  0.4264010000000  0.4811830000000 1.0
C      1  0.5234230000000  0.2715780000000  0.5276850000000 1.0
C      1  0.5900860000000  0.4584920000000  0.4965250000000 1.0
C      1  0.6037420000000  0.5553090000000  0.4833250000000 1.0
C      1  0.5238080000000  0.6026780000000  0.4488640000000 1.0
C      1  0.4359700000000  0.6052610000000  0.4953220000000 1.0
C      1  0.6454190000000  0.4013400000000  0.3458850000000 1.0
C      1  0.6593970000000  0.5651090000000  0.3191760000000 1.0
C      1  0.5369780000000  0.6730310000000  0.3179470000000 1.0
C      1  0.3679160000000  0.6310790000000  0.3553210000000 1.0
C      1  0.3241370000000  0.5444100000000  0.3484040000000 1.0
C      1  0.3917740000000  0.3948150000000  0.3321560000000 1.0
C      1  0.5075900000000  0.2869340000000  0.3696850000000 1.0
C      1  0.5892530000000  0.4583290000000  0.6051190000000 1.0
C      1  0.5936140000000  0.5561770000000  0.6292610000000 1.0
C      1  0.5291910000000  0.6245610000000  0.6265720000000 1.0
C      1  0.4340590000000  0.6044630000000  0.6025360000000 1.0
C      1  0.3968320000000  0.5034540000000  0.5946610000000 1.0
C      1  0.4340090000000  0.4088630000000  0.5804860000000 1.0
C      1  0.5207790000000  0.3879230000000  0.6301740000000 1.0
C      1  0.3500640000000  0.6454200000000  0.6264900000000 1.0
C      1  0.3001850000000  0.5017040000000  0.6070780000000 1.0
C      1  0.3488220000000  0.3569580000000  0.5856170000000 1.0
C      1  0.5756790000000  0.3125380000000  0.5846750000000 1.0
C      1  0.6831610000000  0.4289410000000  0.6027270000000 1.0
C      1  0.6683580000000  0.5797100000000  0.5752580000000 1.0
C      1  0.5757980000000  0.6960160000000  0.5781460000000 1.0
C      1  0.3766610000000  0.2865800000000  0.4651990000000 1.0
C      1  0.7144780000000  0.3496020000000  0.5018430000000 1.0
C      1  0.7323490000000  0.5002370000000  0.4603940000000 1.0
C      1  0.6652640000000  0.6679500000000  0.4433570000000 1.0
C      1  0.5474770000000  0.7706880000000  0.4632980000000 1.0
C      1  0.2828130000000  0.6045240000000  0.4873400000000 1.0
C      1  0.2821260000000  0.4274050000000  0.4617630000000 1.0
C      1  0.3820040000000  0.4830070000000  0.3063880000000 1.0
C      1  0.4751810000000  0.3541910000000  0.3145280000000 1.0
C      1  0.5697830000000  0.3437180000000  0.3295580000000 1.0
C      1  0.6534830000000  0.4753750000000  0.2963520000000 1.0
C      1  0.6067790000000  0.6301110000000  0.2789080000000 1.0
C      1  0.4462230000000  0.6341830000000  0.3035220000000 1.0
C      1  0.4584970000000  0.5394440000000  0.3035930000000 1.0
C      1  0.4752750000000  0.4224720000000  0.7936110000000 1.0
C      1  0.5108310000000  0.5308390000000  0.3856890000000 1.0
C      1  0.5150860000000  0.4497250000000  0.4390440000000 1.0
C      1  0.4958130000000  0.3869440000000  0.7218230000000 1.0
END
