TITL C-2159255-4746-392 -0.00103864094697627 3375 -387.772152291442 0 0 60 (T23) n - 1
REM
REM in /scratch/bkarasulu/871
REM
REM
REM
REM
REM
REM ./C.cell (a2850807a9bf4ad07a5b6933b78d9264)
REM AIRSS Version 0.9.1 bugfix July 2018 build 013d7b7c2542+ Fri, 06 Jul 2018 19:26:36 +0100
REM compiler GCC version 9.2.1 20190827 (Red Hat 9.2.1-1)
REM options -cpp -mtune=generic -march=x86-64 -g -O0 -fpre-include=/usr/include/finclude/math-vector-fortran.h
REM seed 60679290 248579747 2126662504 -1644704232 -378716351 -1266528073 867001513 -693800781 241388578 -2118655821 -1924581324 1165049038 -2140151409 553737675 -1057863193 -847895720 -1742148826 -826915047 -783911086 -1549788567 885931822 1501974799 248745981 -211336284 1370641942 1232258785 361395579 1885894006 -330140591 325288862 1120708457 1864457028 -1973672848
REM
CELL 1.54180   15.00000   15.00000   15.00000   90.00000   90.00000   90.00000
LATT -1
SFAC C  
C      1  0.3936300000000  0.6059140000000  0.3217760000000 1.0
C      1  0.3217760000000  0.3936300000000  0.6059140000000 1.0
C      1  0.6059140000000  0.3217760000000  0.3936300000000 1.0
C      1  0.3936300000000  0.3940860000000  0.6782240000000 1.0
C      1  0.6063700000000  0.3940860000000  0.3217760000000 1.0
C      1  0.6063700000000  0.6059140000000  0.6782240000000 1.0
C      1  0.3217760000000  0.6063700000000  0.3940860000000 1.0
C      1  0.6782240000000  0.6063700000000  0.6059140000000 1.0
C      1  0.6782240000000  0.3936300000000  0.3940860000000 1.0
C      1  0.6059140000000  0.6782240000000  0.6063700000000 1.0
C      1  0.3940860000000  0.6782240000000  0.3936300000000 1.0
C      1  0.3940860000000  0.3217760000000  0.6063700000000 1.0
C      1  0.3948980000000  0.5037110000000  0.3380400000000 1.0
C      1  0.3380400000000  0.3948980000000  0.5037110000000 1.0
C      1  0.5037110000000  0.3380400000000  0.3948980000000 1.0
C      1  0.3948980000000  0.4962890000000  0.6619600000000 1.0
C      1  0.6051020000000  0.4962890000000  0.3380400000000 1.0
C      1  0.6051020000000  0.5037110000000  0.6619600000000 1.0
C      1  0.3380400000000  0.6051020000000  0.4962890000000 1.0
C      1  0.6619600000000  0.6051020000000  0.5037110000000 1.0
C      1  0.6619600000000  0.3948980000000  0.4962890000000 1.0
C      1  0.5037110000000  0.6619600000000  0.6051020000000 1.0
C      1  0.4962890000000  0.6619600000000  0.3948980000000 1.0
C      1  0.4962890000000  0.3380400000000  0.6051020000000 1.0
C      1  0.3814380000000  0.3067080000000  0.5082830000000 1.0
C      1  0.5082830000000  0.3814380000000  0.3067080000000 1.0
C      1  0.3067080000000  0.5082830000000  0.3814380000000 1.0
C      1  0.3814380000000  0.6932920000000  0.4917170000000 1.0
C      1  0.6185620000000  0.6932920000000  0.5082830000000 1.0
C      1  0.6185620000000  0.3067080000000  0.4917170000000 1.0
C      1  0.5082830000000  0.6185620000000  0.6932920000000 1.0
C      1  0.4917170000000  0.6185620000000  0.3067080000000 1.0
C      1  0.4917170000000  0.3814380000000  0.6932920000000 1.0
C      1  0.3067080000000  0.4917170000000  0.6185620000000 1.0
C      1  0.6932920000000  0.4917170000000  0.3814380000000 1.0
C      1  0.6932920000000  0.5082830000000  0.6185620000000 1.0
C      1  0.5812280000000  0.5493640000000  0.4992220000000 1.0
C      1  0.4992220000000  0.5812280000000  0.5493640000000 1.0
C      1  0.5493640000000  0.4992220000000  0.5812280000000 1.0
C      1  0.5812280000000  0.4506360000000  0.5007780000000 1.0
C      1  0.4187720000000  0.4506360000000  0.4992220000000 1.0
C      1  0.4187720000000  0.5493640000000  0.5007780000000 1.0
C      1  0.4992220000000  0.4187720000000  0.4506360000000 1.0
C      1  0.5007780000000  0.4187720000000  0.5493640000000 1.0
C      1  0.5007780000000  0.5812280000000  0.4506360000000 1.0
C      1  0.5493640000000  0.5007780000000  0.4187720000000 1.0
C      1  0.4506360000000  0.5007780000000  0.5812280000000 1.0
C      1  0.4506360000000  0.4992220000000  0.4187720000000 1.0
C      1  0.5375650000000  0.7168870000000  0.4660840000000 1.0
C      1  0.4660840000000  0.5375650000000  0.7168870000000 1.0
C      1  0.7168870000000  0.4660840000000  0.5375650000000 1.0
C      1  0.5375650000000  0.2831130000000  0.5339160000000 1.0
C      1  0.4624350000000  0.2831130000000  0.4660840000000 1.0
C      1  0.4624350000000  0.7168870000000  0.5339160000000 1.0
C      1  0.4660840000000  0.4624350000000  0.2831130000000 1.0
C      1  0.5339160000000  0.4624350000000  0.7168870000000 1.0
C      1  0.5339160000000  0.5375650000000  0.2831130000000 1.0
C      1  0.7168870000000  0.5339160000000  0.4624350000000 1.0
C      1  0.2831130000000  0.5339160000000  0.5375650000000 1.0
C      1  0.2831130000000  0.4660840000000  0.4624350000000 1.0
END
