TITL C-2159255-4746-1359 -0.00143563469048401 3375 -420.240398877001 0 0 60 (D5h) n - 1
REM
REM in /scratch/bkarasulu/871
REM
REM
REM
REM
REM
REM ./C.cell (a2850807a9bf4ad07a5b6933b78d9264)
REM AIRSS Version 0.9.1 bugfix July 2018 build 013d7b7c2542+ Fri, 06 Jul 2018 19:26:36 +0100
REM compiler GCC version 9.2.1 20190827 (Red Hat 9.2.1-1)
REM options -cpp -mtune=generic -march=x86-64 -g -O0 -fpre-include=/usr/include/finclude/math-vector-fortran.h
REM seed 1321674508 916925586 1873286988 -932486604 208367729 -66362442 -371244652 456812266 1013011197 895363757 1772528513 -1720276877 -1673015008 2091261663 -53373998 -247931199 189797817 421222961 176400642 -1309971835 1394598465 -835863369 851503927 -952047848 1955857263 -1070305311 -1169539494 72940027 -1363498058 -39416660 -2104121067 1634948786 -517008694
REM
CELL 1.54180   15.00000   15.00000   15.00000   90.00000   90.00000   90.00000
LATT -1
SFAC C  
C      1  0.3746090000000  0.5480940000000  0.6480210000000 1.0
C      1  0.3746090000000  0.6556380000000  0.5000000000000 1.0
C      1  0.3746090000000  0.5480950000000  0.3519790000000 1.0
C      1  0.3746090000000  0.3740870000000  0.4085180000000 1.0
C      1  0.3746090000000  0.3740870000000  0.5914810000000 1.0
C      1  0.6253910000000  0.5480940000000  0.3519790000000 1.0
C      1  0.6253910000000  0.6556380000000  0.5000000000000 1.0
C      1  0.6253910000000  0.5480950000000  0.6480210000000 1.0
C      1  0.6253910000000  0.3740870000000  0.5914820000000 1.0
C      1  0.6253910000000  0.3740870000000  0.4085190000000 1.0
C      1  0.5825530000000  0.2956360000000  0.5475970000000 1.0
C      1  0.5825540000000  0.4821160000000  0.7090710000000 1.0
C      1  0.5825530000000  0.6933110000000  0.5816150000000 1.0
C      1  0.5825530000000  0.6373560000000  0.3413710000000 1.0
C      1  0.5825540000000  0.3915800000000  0.3203470000000 1.0
C      1  0.4174470000000  0.2956360000000  0.4524030000000 1.0
C      1  0.4174460000000  0.4821160000000  0.2909290000000 1.0
C      1  0.4174470000000  0.6933110000000  0.4183850000000 1.0
C      1  0.4174470000000  0.6373560000000  0.6586290000000 1.0
C      1  0.4174460000000  0.3915800000000  0.6796530000000 1.0
C      1  0.5000000000000  0.5238240000000  0.2661400000000 1.0
C      1  0.5000000000000  0.2849480000000  0.4050760000000 1.0
C      1  0.5000000000000  0.3432670000000  0.6751940000000 1.0
C      1  0.5000000000000  0.6181850000000  0.7032000000000 1.0
C      1  0.5000000000000  0.7297760000000  0.4503910000000 1.0
C      1  0.5000000000000  0.5238240000000  0.7338600000000 1.0
C      1  0.5000000000000  0.2849480000000  0.5949240000000 1.0
C      1  0.5000000000000  0.3432670000000  0.3248060000000 1.0
C      1  0.5000000000000  0.6181850000000  0.2968000000000 1.0
C      1  0.5000000000000  0.7297760000000  0.5496090000000 1.0
C      1  0.5519440000000  0.4334270000000  0.5483680000000 1.0
C      1  0.5519440000000  0.5254290000000  0.5782610000000 1.0
C      1  0.5519440000000  0.5822890000000  0.5000000000000 1.0
C      1  0.5519440000000  0.5254290000000  0.4217390000000 1.0
C      1  0.5519440000000  0.4334270000000  0.4516320000000 1.0
C      1  0.4480560000000  0.4334270000000  0.4516320000000 1.0
C      1  0.4480560000000  0.5254290000000  0.4217390000000 1.0
C      1  0.4480560000000  0.5822890000000  0.5000000000000 1.0
C      1  0.4480560000000  0.5254290000000  0.5782610000000 1.0
C      1  0.4480560000000  0.4334270000000  0.5483680000000 1.0
C      1  0.3085510000000  0.5251610000000  0.5774370000000 1.0
C      1  0.3085510000000  0.5814230000000  0.5000000000000 1.0
C      1  0.3085510000000  0.5251610000000  0.4225630000000 1.0
C      1  0.3085510000000  0.4341280000000  0.4521410000000 1.0
C      1  0.3085510000000  0.4341280000000  0.5478590000000 1.0
C      1  0.6914490000000  0.5251610000000  0.4225630000000 1.0
C      1  0.6914490000000  0.5814230000000  0.5000000000000 1.0
C      1  0.6914490000000  0.5251610000000  0.5774370000000 1.0
C      1  0.6914490000000  0.4341280000000  0.5478590000000 1.0
C      1  0.6914490000000  0.4341280000000  0.4521410000000 1.0
C      1  0.5825540000000  0.3915800000000  0.6796540000000 1.0
C      1  0.5825540000000  0.6373560000000  0.6586290000000 1.0
C      1  0.5825540000000  0.6933110000000  0.4183850000000 1.0
C      1  0.5825540000000  0.4821160000000  0.2909290000000 1.0
C      1  0.5825540000000  0.2956360000000  0.4524020000000 1.0
C      1  0.4174460000000  0.3915800000000  0.3203460000000 1.0
C      1  0.4174460000000  0.6373560000000  0.3413710000000 1.0
C      1  0.4174460000000  0.6933110000000  0.5816150000000 1.0
C      1  0.4174460000000  0.4821160000000  0.7090710000000 1.0
C      1  0.4174460000000  0.2956360000000  0.5475980000000 1.0
END
