TITL C-2158988-7926-676 -0.00241785668342744 3375 -405.730924048165 0 0 60 (C1) n - 1
REM
REM in /scratch/bkarasulu/868
REM
REM
REM
REM
REM
REM ./C.cell (a2850807a9bf4ad07a5b6933b78d9264)
REM AIRSS Version 0.9.1 bugfix July 2018 build 013d7b7c2542+ Fri, 06 Jul 2018 19:26:36 +0100
REM compiler GCC version 9.2.1 20190827 (Red Hat 9.2.1-1)
REM options -cpp -mtune=generic -march=x86-64 -g -O0 -fpre-include=/usr/include/finclude/math-vector-fortran.h
REM seed 464155397 3214014 -1650980302 691762668 1465195819 1379175498 824629790 862637299 -1249721360 1862549954 339313097 1475411144 1591138897 -291861564 -1586049590 607231311 -125057337 -688322386 1194483547 598506089 -1998329716 -1456610413 -85520275 -319305062 571101090 -468582072 1299240401 1573495081 254558715 1289171922 -414171445 -164001055 -1465209209
REM
CELL 1.54180   15.00000   15.00000   15.00000   90.00000   90.00000   90.00000
LATT -1
SFAC C  
C      1  0.5325890000000  0.4866250000000  0.4050340000000 1.0
C      1  0.5845800000000  0.5065080000000  0.5670030000000 1.0
C      1  0.5198930000000  0.4791730000000  0.6380410000000 1.0
C      1  0.4193220000000  0.4944340000000  0.4979910000000 1.0
C      1  0.4291520000000  0.4782480000000  0.3957650000000 1.0
C      1  0.3910440000000  0.4061810000000  0.5216190000000 1.0
C      1  0.4114350000000  0.3872410000000  0.3661450000000 1.0
C      1  0.5550220000000  0.3916580000000  0.4294610000000 1.0
C      1  0.6398370000000  0.4276590000000  0.5591840000000 1.0
C      1  0.4996930000000  0.3862270000000  0.6143540000000 1.0
C      1  0.5785000000000  0.5442090000000  0.3374060000000 1.0
C      1  0.6363650000000  0.5926750000000  0.5763790000000 1.0
C      1  0.5241400000000  0.5393600000000  0.7123960000000 1.0
C      1  0.3703860000000  0.5771230000000  0.5275430000000 1.0
C      1  0.3772760000000  0.5536700000000  0.3521990000000 1.0
C      1  0.3249850000000  0.5415040000000  0.6742310000000 1.0
C      1  0.2852210000000  0.5329320000000  0.3649980000000 1.0
C      1  0.5734680000000  0.4960450000000  0.2577260000000 1.0
C      1  0.7489270000000  0.5600640000000  0.4626690000000 1.0
C      1  0.5825360000000  0.4898940000000  0.7690930000000 1.0
C      1  0.3660770000000  0.6007200000000  0.6194190000000 1.0
C      1  0.4112160000000  0.6382820000000  0.3754970000000 1.0
C      1  0.5805550000000  0.6380830000000  0.3593580000000 1.0
C      1  0.6821360000000  0.6122040000000  0.4951200000000 1.0
C      1  0.5194790000000  0.6303710000000  0.6788960000000 1.0
C      1  0.5802130000000  0.3342310000000  0.6240270000000 1.0
C      1  0.3980830000000  0.3506670000000  0.6098980000000 1.0
C      1  0.3511130000000  0.3357560000000  0.4216210000000 1.0
C      1  0.5054080000000  0.3255710000000  0.3755730000000 1.0
C      1  0.6474460000000  0.3756850000000  0.4690440000000 1.0
C      1  0.6293070000000  0.6708570000000  0.4379550000000 1.0
C      1  0.5906230000000  0.6624470000000  0.6210970000000 1.0
C      1  0.4387890000000  0.6653250000000  0.6433410000000 1.0
C      1  0.3987160000000  0.6508880000000  0.4721040000000 1.0
C      1  0.4964090000000  0.6839840000000  0.3567050000000 1.0
C      1  0.5577680000000  0.7362200000000  0.5706690000000 1.0
C      1  0.4613380000000  0.7372430000000  0.5864170000000 1.0
C      1  0.4096670000000  0.7434940000000  0.5055790000000 1.0
C      1  0.5066130000000  0.7573420000000  0.4190650000000 1.0
C      1  0.5826550000000  0.7439420000000  0.4765820000000 1.0
C      1  0.2770220000000  0.4711680000000  0.4233300000000 1.0
C      1  0.5203520000000  0.4295330000000  0.2634730000000 1.0
C      1  0.7743390000000  0.4830370000000  0.4320220000000 1.0
C      1  0.6279490000000  0.4447590000000  0.7119060000000 1.0
C      1  0.3155090000000  0.4578240000000  0.6926880000000 1.0
C      1  0.3792110000000  0.2552250000000  0.4613220000000 1.0
C      1  0.4718250000000  0.2510220000000  0.4283830000000 1.0
C      1  0.6433410000000  0.2790650000000  0.4909750000000 1.0
C      1  0.5821330000000  0.2642780000000  0.5568480000000 1.0
C      1  0.4084460000000  0.2641040000000  0.5592090000000 1.0
C      1  0.3347970000000  0.3738620000000  0.6774980000000 1.0
C      1  0.3026150000000  0.3992790000000  0.4670000000000 1.0
C      1  0.4721180000000  0.3621190000000  0.2941720000000 1.0
C      1  0.7287210000000  0.4102470000000  0.4266570000000 1.0
C      1  0.6530790000000  0.3904060000000  0.6464230000000 1.0
C      1  0.4926670000000  0.3726730000000  0.5092380000000 1.0
C      1  0.4362120000000  0.8038700000000  0.4444910000000 1.0
C      1  0.4954260000000  0.6181590000000  0.4964620000000 1.0
C      1  0.4962970000000  0.2673470000000  0.5191250000000 1.0
C      1  0.5167510000000  0.5259280000000  0.4959630000000 1.0
END
