TITL C-2159252-5904-137 -0.00327980730180654 3375 -390.633874011121 0 0 60 (D2h) n - 1
REM
REM in /scratch/bkarasulu/870
REM
REM
REM
REM
REM
REM ./C.cell (a2850807a9bf4ad07a5b6933b78d9264)
REM AIRSS Version 0.9.1 bugfix July 2018 build 013d7b7c2542+ Fri, 06 Jul 2018 19:26:36 +0100
REM compiler GCC version 9.2.1 20190827 (Red Hat 9.2.1-1)
REM options -cpp -mtune=generic -march=x86-64 -g -O0 -fpre-include=/usr/include/finclude/math-vector-fortran.h
REM seed 415225096 -1500975680 -1152177151 -366222834 -968631034 1933123720 -707343303 283365578 771892051 -1013589698 -1711588975 1269481105 1789801900 1449340619 -964694270 149566841 1746292307 9219327 -344415109 1677468686 -1807732044 834681237 -1348649333 168834893 -1395807363 668291223 1886821168 587331689 -86880850 1890677969 1954766757 -1205765189 -1407437648
REM
CELL 1.54180   15.00000   15.00000   15.00000   90.00000   90.00000   90.00000
LATT -1
SFAC C  
C      1  0.4480960000000  0.4505770000000  0.2326500000000 1.0
C      1  0.5519040000000  0.4505760000000  0.7673500000000 1.0
C      1  0.4480960000000  0.5494240000000  0.2326500000000 1.0
C      1  0.5519040000000  0.5494230000000  0.7673500000000 1.0
C      1  0.4547510000000  0.4505760000000  0.7685560000000 1.0
C      1  0.5452490000000  0.4505760000000  0.2314440000000 1.0
C      1  0.4547510000000  0.5494230000000  0.7685560000000 1.0
C      1  0.5452490000000  0.5494240000000  0.2314440000000 1.0
C      1  0.4274600000000  0.4514220000000  0.5009020000000 1.0
C      1  0.5725400000000  0.4514220000000  0.4990980000000 1.0
C      1  0.4274600000000  0.5485780000000  0.5009020000000 1.0
C      1  0.5725400000000  0.5485780000000  0.4990980000000 1.0
C      1  0.4991420000000  0.4492190000000  0.4309640000000 1.0
C      1  0.5008580000000  0.4492190000000  0.5690360000000 1.0
C      1  0.4991420000000  0.5507810000000  0.4309640000000 1.0
C      1  0.5008580000000  0.5507810000000  0.5690360000000 1.0
C      1  0.7309690000000  0.5493770000000  0.3813970000000 1.0
C      1  0.2690310000000  0.5493770000000  0.6186030000000 1.0
C      1  0.7309690000000  0.4506230000000  0.3813970000000 1.0
C      1  0.2690310000000  0.4506230000000  0.6186030000000 1.0
C      1  0.7338450000000  0.5493780000000  0.6128330000000 1.0
C      1  0.2661550000000  0.5493780000000  0.3871670000000 1.0
C      1  0.7338450000000  0.4506230000000  0.6128330000000 1.0
C      1  0.2661550000000  0.4506230000000  0.3871670000000 1.0
C      1  0.3434320000000  0.4490230000000  0.6790150000000 1.0
C      1  0.6565680000000  0.4490230000000  0.3209850000000 1.0
C      1  0.3434320000000  0.5509760000000  0.6790150000000 1.0
C      1  0.6565680000000  0.5509760000000  0.3209850000000 1.0
C      1  0.3390340000000  0.4490240000000  0.3249260000000 1.0
C      1  0.6609660000000  0.4490240000000  0.6750740000000 1.0
C      1  0.3390330000000  0.5509760000000  0.3249260000000 1.0
C      1  0.6609670000000  0.5509760000000  0.6750740000000 1.0
C      1  0.4208350000000  0.6001800000000  0.6957670000000 1.0
C      1  0.5791650000000  0.6001800000000  0.3042330000000 1.0
C      1  0.4208350000000  0.3998200000000  0.6957670000000 1.0
C      1  0.5791650000000  0.3998200000000  0.3042330000000 1.0
C      1  0.4159980000000  0.6001800000000  0.3062590000000 1.0
C      1  0.5840020000000  0.6001800000000  0.6937410000000 1.0
C      1  0.4159980000000  0.3998200000000  0.3062590000000 1.0
C      1  0.5840020000000  0.3998200000000  0.6937410000000 1.0
C      1  0.2549590000000  0.3879590000000  0.5520250000000 1.0
C      1  0.7450410000000  0.3879590000000  0.4479750000000 1.0
C      1  0.2549590000000  0.6120410000000  0.5520250000000 1.0
C      1  0.7450410000000  0.6120410000000  0.4479750000000 1.0
C      1  0.2537420000000  0.3879590000000  0.4540740000000 1.0
C      1  0.7462580000000  0.3879590000000  0.5459260000000 1.0
C      1  0.2537420000000  0.6120410000000  0.4540740000000 1.0
C      1  0.7462580000000  0.6120410000000  0.5459260000000 1.0
C      1  0.4984060000000  0.6281960000000  0.3716540000000 1.0
C      1  0.5015940000000  0.3718040000000  0.6283460000000 1.0
C      1  0.5015940000000  0.6281960000000  0.6283460000000 1.0
C      1  0.4984060000000  0.3718040000000  0.3716540000000 1.0
C      1  0.2842140000000  0.6817750000000  0.5026780000000 1.0
C      1  0.7157860000000  0.6817750000000  0.4973220000000 1.0
C      1  0.2842140000000  0.3182250000000  0.5026780000000 1.0
C      1  0.7157860000000  0.3182250000000  0.4973220000000 1.0
C      1  0.5005320000000  0.6904900000000  0.5428240000000 1.0
C      1  0.4994680000000  0.3095100000000  0.4571760000000 1.0
C      1  0.5005320000000  0.3095100000000  0.5428240000000 1.0
C      1  0.4994680000000  0.6904900000000  0.4571760000000 1.0
END
