TITL C-2159255-4746-820 -0.00144096984021298 3375 -401.154991736607 0 0 60 (D2) n - 1
REM
REM in /scratch/bkarasulu/871
REM
REM
REM
REM
REM
REM ./C.cell (a2850807a9bf4ad07a5b6933b78d9264)
REM AIRSS Version 0.9.1 bugfix July 2018 build 013d7b7c2542+ Fri, 06 Jul 2018 19:26:36 +0100
REM compiler GCC version 9.2.1 20190827 (Red Hat 9.2.1-1)
REM options -cpp -mtune=generic -march=x86-64 -g -O0 -fpre-include=/usr/include/finclude/math-vector-fortran.h
REM seed -2049984454 1738970777 -742363793 119297937 -1895228207 -79813266 -819814391 -1367792343 27795031 -405800427 2060039380 -908078224 -1324889128 -11465025 -1932216583 1758268217 959998200 -204955447 257537969 -1053883617 1315103435 -209871421 1106460265 -597642853 1702516196 -57787845 -313866195 667694352 -129729714 1380191191 555681419 -1362029765 1623946441
REM
CELL 1.54180   15.00000   15.00000   15.00000   90.00000   90.00000   90.00000
LATT -1
SFAC C  
C      1  0.5219960000000  0.6792240000000  0.5808290000000 1.0
C      1  0.4780040000000  0.3207760000000  0.5808290000000 1.0
C      1  0.4780040000000  0.6792240000000  0.4191710000000 1.0
C      1  0.5219960000000  0.3207760000000  0.4191710000000 1.0
C      1  0.4279680000000  0.7154280000000  0.5706700000000 1.0
C      1  0.5720320000000  0.2845720000000  0.5706700000000 1.0
C      1  0.5720320000000  0.7154280000000  0.4293300000000 1.0
C      1  0.4279680000000  0.2845720000000  0.4293300000000 1.0
C      1  0.5915070000000  0.7102740000000  0.5214350000000 1.0
C      1  0.4084930000000  0.2897260000000  0.5214350000000 1.0
C      1  0.4084930000000  0.7102740000000  0.4785650000000 1.0
C      1  0.5915070000000  0.2897260000000  0.4785650000000 1.0
C      1  0.5902900000000  0.4749180000000  0.4563130000000 1.0
C      1  0.4097100000000  0.5250820000000  0.4563130000000 1.0
C      1  0.4097100000000  0.4749180000000  0.5436870000000 1.0
C      1  0.5902900000000  0.5250820000000  0.5436870000000 1.0
C      1  0.7098180000000  0.4179840000000  0.5555610000000 1.0
C      1  0.2901820000000  0.5820160000000  0.5555610000000 1.0
C      1  0.2901820000000  0.4179840000000  0.4444390000000 1.0
C      1  0.7098180000000  0.5820160000000  0.4444390000000 1.0
C      1  0.4079520000000  0.3456470000000  0.6513690000000 1.0
C      1  0.5920480000000  0.6543530000000  0.6513690000000 1.0
C      1  0.5920480000000  0.3456470000000  0.3486310000000 1.0
C      1  0.4079520000000  0.6543530000000  0.3486310000000 1.0
C      1  0.5458190000000  0.4925230000000  0.3063490000000 1.0
C      1  0.4541810000000  0.5074770000000  0.3063490000000 1.0
C      1  0.4541810000000  0.4925230000000  0.6936510000000 1.0
C      1  0.5458190000000  0.5074770000000  0.6936510000000 1.0
C      1  0.5118470000000  0.5841850000000  0.5486350000000 1.0
C      1  0.4881530000000  0.4158150000000  0.5486350000000 1.0
C      1  0.4881530000000  0.5841850000000  0.4513650000000 1.0
C      1  0.5118470000000  0.4158150000000  0.4513650000000 1.0
C      1  0.6480980000000  0.3893130000000  0.6178680000000 1.0
C      1  0.3519020000000  0.6106870000000  0.6178680000000 1.0
C      1  0.3519020000000  0.3893130000000  0.3821320000000 1.0
C      1  0.6480980000000  0.6106870000000  0.3821320000000 1.0
C      1  0.5835630000000  0.4111500000000  0.2903190000000 1.0
C      1  0.4164370000000  0.5888500000000  0.2903190000000 1.0
C      1  0.4164370000000  0.4111500000000  0.7096810000000 1.0
C      1  0.5835630000000  0.5888500000000  0.7096810000000 1.0
C      1  0.3239480000000  0.4230370000000  0.5415380000000 1.0
C      1  0.6760520000000  0.5769630000000  0.5415380000000 1.0
C      1  0.6760520000000  0.4230370000000  0.4584620000000 1.0
C      1  0.3239480000000  0.5769630000000  0.4584620000000 1.0
C      1  0.3429170000000  0.3357250000000  0.5786710000000 1.0
C      1  0.6570830000000  0.6642750000000  0.5786710000000 1.0
C      1  0.6570830000000  0.3357250000000  0.4213290000000 1.0
C      1  0.3429170000000  0.6642750000000  0.4213290000000 1.0
C      1  0.3597520000000  0.2990440000000  0.3700550000000 1.0
C      1  0.6402480000000  0.7009560000000  0.3700550000000 1.0
C      1  0.6402480000000  0.2990440000000  0.6299450000000 1.0
C      1  0.3597520000000  0.7009560000000  0.6299450000000 1.0
C      1  0.2531590000000  0.4972910000000  0.5489590000000 1.0
C      1  0.7468410000000  0.5027090000000  0.5489590000000 1.0
C      1  0.7468410000000  0.4972910000000  0.4510410000000 1.0
C      1  0.2531590000000  0.5027090000000  0.4510410000000 1.0
C      1  0.5695400000000  0.5448610000000  0.3900520000000 1.0
C      1  0.4304600000000  0.4551390000000  0.3900520000000 1.0
C      1  0.4304600000000  0.5448610000000  0.6099480000000 1.0
C      1  0.5695400000000  0.4551390000000  0.6099480000000 1.0
END
