TITL C-2158988-7926-994 -0.00173695562546294 3375 -405.595374537163 0 0 60 (C3) n - 1
REM
REM in /scratch/bkarasulu/868
REM
REM
REM
REM
REM
REM ./C.cell (a2850807a9bf4ad07a5b6933b78d9264)
REM AIRSS Version 0.9.1 bugfix July 2018 build 013d7b7c2542+ Fri, 06 Jul 2018 19:26:36 +0100
REM compiler GCC version 9.2.1 20190827 (Red Hat 9.2.1-1)
REM options -cpp -mtune=generic -march=x86-64 -g -O0 -fpre-include=/usr/include/finclude/math-vector-fortran.h
REM seed -1801467640 -1758962697 -140604767 -587560572 -1306272751 -1037196854 742936280 168058968 -937556420 -1973097126 665446239 1924673714 1986290988 -342675768 634653454 593777509 -916639495 1894644696 -330709723 -810399774 -455896950 694150204 -1047942509 -206086762 1008984415 -1999314083 -158276668 426041832 -239744014 -2001620852 189762967 -796678826 -1998875978
REM
CELL 1.54180   15.00000   15.00000   15.00000   90.00000   90.00000   90.00000
LATT -1
SFAC C  
C      1  0.5556330000000  0.5845410000000  0.2680940000000 1.0
C      1  0.3989630000000  0.5059040000000  0.2680960000000 1.0
C      1  0.5453990000000  0.4095420000000  0.2680970000000 1.0
C      1  0.6735260000000  0.5333470000000  0.3249540000000 1.0
C      1  0.3843540000000  0.6336000000000  0.3249550000000 1.0
C      1  0.4421180000000  0.3330430000000  0.3249600000000 1.0
C      1  0.4690630000000  0.5887900000000  0.2994660000000 1.0
C      1  0.4385690000000  0.4288080000000  0.2994690000000 1.0
C      1  0.5923650000000  0.4823910000000  0.2994670000000 1.0
C      1  0.3105030000000  0.4293600000000  0.6226070000000 1.0
C      1  0.6559280000000  0.3712150000000  0.6226060000000 1.0
C      1  0.5335710000000  0.6994330000000  0.6226010000000 1.0
C      1  0.5292580000000  0.6387630000000  0.4560270000000 1.0
C      1  0.3651970000000  0.4559560000000  0.4560310000000 1.0
C      1  0.6055430000000  0.4052790000000  0.4560310000000 1.0
C      1  0.7258940000000  0.4567420000000  0.5594240000000 1.0
C      1  0.4245180000000  0.7172600000000  0.5594210000000 1.0
C      1  0.3495900000000  0.3260020000000  0.5594290000000 1.0
C      1  0.4202710000000  0.3060890000000  0.4133980000000 1.0
C      1  0.7077950000000  0.5279060000000  0.4133920000000 1.0
C      1  0.3719330000000  0.6660000000000  0.4133920000000 1.0
C      1  0.4448670000000  0.6915820000000  0.4679410000000 1.0
C      1  0.3616520000000  0.3564620000000  0.4679480000000 1.0
C      1  0.6934810000000  0.4519560000000  0.4679440000000 1.0
C      1  0.3695180000000  0.4348910000000  0.7009000000000 1.0
C      1  0.6216320000000  0.4195580000000  0.7008990000000 1.0
C      1  0.5088530000000  0.6455620000000  0.7008960000000 1.0
C      1  0.4102520000000  0.6164660000000  0.6919870000000 1.0
C      1  0.4440160000000  0.3640460000000  0.6919920000000 1.0
C      1  0.6457360000000  0.5194970000000  0.6919880000000 1.0
C      1  0.4418360000000  0.4990760000000  0.6067150000000 1.0
C      1  0.5298840000000  0.4500930000000  0.6067150000000 1.0
C      1  0.5282810000000  0.5508360000000  0.6067140000000 1.0
C      1  0.6947880000000  0.5349660000000  0.6067740000000 1.0
C      1  0.3723280000000  0.6512100000000  0.6067740000000 1.0
C      1  0.4328870000000  0.3138290000000  0.6067800000000 1.0
C      1  0.5393920000000  0.3300010000000  0.3191050000000 1.0
C      1  0.6275230000000  0.6191100000000  0.3190990000000 1.0
C      1  0.3330810000000  0.5508790000000  0.3191020000000 1.0
C      1  0.3605870000000  0.4941730000000  0.5515380000000 1.0
C      1  0.5747540000000  0.3821800000000  0.5515390000000 1.0
C      1  0.5646590000000  0.6236490000000  0.5515340000000 1.0
C      1  0.4525990000000  0.4669050000000  0.3984140000000 1.0
C      1  0.5523590000000  0.4754950000000  0.3984130000000 1.0
C      1  0.4950400000000  0.5575940000000  0.3984120000000 1.0
C      1  0.7425610000000  0.3763800000000  0.6034460000000 1.0
C      1  0.4857830000000  0.7718770000000  0.6034400000000 1.0
C      1  0.2716600000000  0.3517510000000  0.6034490000000 1.0
C      1  0.3991810000000  0.5228910000000  0.6982090000000 1.0
C      1  0.5305900000000  0.4012470000000  0.6982100000000 1.0
C      1  0.5702320000000  0.5758720000000  0.6982070000000 1.0
C      1  0.6191860000000  0.6551360000000  0.4053340000000 1.0
C      1  0.3060520000000  0.5256480000000  0.4053380000000 1.0
C      1  0.5747600000000  0.3192100000000  0.4053410000000 1.0
C      1  0.6872060000000  0.6095420000000  0.4575830000000 1.0
C      1  0.3115290000000  0.6073530000000  0.4575850000000 1.0
C      1  0.5012640000000  0.2831010000000  0.4575900000000 1.0
C      1  0.6601550000000  0.6018890000000  0.5480720000000 1.0
C      1  0.3316840000000  0.5877550000000  0.5480750000000 1.0
C      1  0.5081610000000  0.3103580000000  0.5480790000000 1.0
END
