TITL C-2158984-8299-516 -0.00370016496993945 3375 -376.128600319491 0 0 60 (Th) n - 1
REM
REM in /scratch/bkarasulu/869
REM
REM
REM
REM
REM
REM ./C.cell (a2850807a9bf4ad07a5b6933b78d9264)
REM AIRSS Version 0.9.1 bugfix July 2018 build 013d7b7c2542+ Fri, 06 Jul 2018 19:26:36 +0100
REM compiler GCC version 9.2.1 20190827 (Red Hat 9.2.1-1)
REM options -cpp -mtune=generic -march=x86-64 -g -O0 -fpre-include=/usr/include/finclude/math-vector-fortran.h
REM seed -1831762762 -1967209130 -1943377267 127828058 -256732964 -1753628707 254444933 413403763 -424824321 -1993540815 -2073776905 414468011 -202524139 1197749607 -1154303440 1305088626 1489989145 1835901059 690499677 -725150673 1983392035 1533374147 -1913519405 -1369986541 -438072401 1572906316 -355805081 1256207179 -1395466633 -1681964057 329046870 -657987958 1439862120
REM
CELL 1.54180   15.00000   15.00000   15.00000   90.00000   90.00000   90.00000
LATT -1
SFAC C  
C      1  0.4318380000000  0.7355200000000  0.4510500000000 1.0
C      1  0.7355200000000  0.4510500000000  0.4318380000000 1.0
C      1  0.4510500000000  0.4318380000000  0.7355200000000 1.0
C      1  0.5681620000000  0.2644800000000  0.4510500000000 1.0
C      1  0.4318380000000  0.2644800000000  0.5489500000000 1.0
C      1  0.5681620000000  0.7355200000000  0.5489500000000 1.0
C      1  0.2644800000000  0.5489500000000  0.4318380000000 1.0
C      1  0.7355200000000  0.5489500000000  0.5681620000000 1.0
C      1  0.2644800000000  0.4510500000000  0.5681620000000 1.0
C      1  0.5489500000000  0.5681620000000  0.7355200000000 1.0
C      1  0.4510500000000  0.5681620000000  0.2644800000000 1.0
C      1  0.5489500000000  0.4318380000000  0.2644800000000 1.0
C      1  0.4318380000000  0.7355200000000  0.5489500000000 1.0
C      1  0.7355200000000  0.4510500000000  0.5681620000000 1.0
C      1  0.4510500000000  0.4318380000000  0.2644800000000 1.0
C      1  0.5681620000000  0.2644800000000  0.5489500000000 1.0
C      1  0.4318380000000  0.2644800000000  0.4510500000000 1.0
C      1  0.5681620000000  0.7355200000000  0.4510500000000 1.0
C      1  0.2644800000000  0.5489500000000  0.5681620000000 1.0
C      1  0.7355200000000  0.5489500000000  0.4318380000000 1.0
C      1  0.2644800000000  0.4510500000000  0.4318380000000 1.0
C      1  0.5489500000000  0.5681620000000  0.2644800000000 1.0
C      1  0.4510500000000  0.5681620000000  0.7355200000000 1.0
C      1  0.5489500000000  0.4318380000000  0.7355200000000 1.0
C      1  0.5935410000000  0.3611550000000  0.5536170000000 1.0
C      1  0.3611550000000  0.5536170000000  0.5935410000000 1.0
C      1  0.5536170000000  0.5935410000000  0.3611550000000 1.0
C      1  0.4064590000000  0.6388450000000  0.5536170000000 1.0
C      1  0.5935410000000  0.6388450000000  0.4463830000000 1.0
C      1  0.4064590000000  0.3611550000000  0.4463830000000 1.0
C      1  0.6388450000000  0.4463830000000  0.5935410000000 1.0
C      1  0.3611550000000  0.4463830000000  0.4064590000000 1.0
C      1  0.6388450000000  0.5536170000000  0.4064590000000 1.0
C      1  0.4463830000000  0.4064590000000  0.3611550000000 1.0
C      1  0.5536170000000  0.4064590000000  0.6388450000000 1.0
C      1  0.4463830000000  0.5935410000000  0.6388450000000 1.0
C      1  0.5935410000000  0.3611550000000  0.4463830000000 1.0
C      1  0.3611550000000  0.5536170000000  0.4064590000000 1.0
C      1  0.5536170000000  0.5935410000000  0.6388450000000 1.0
C      1  0.4064590000000  0.6388450000000  0.4463830000000 1.0
C      1  0.5935410000000  0.6388450000000  0.5536170000000 1.0
C      1  0.4064590000000  0.3611550000000  0.5536170000000 1.0
C      1  0.6388450000000  0.4463830000000  0.4064590000000 1.0
C      1  0.3611550000000  0.4463830000000  0.5935410000000 1.0
C      1  0.6388450000000  0.5536170000000  0.5935410000000 1.0
C      1  0.4463830000000  0.4064590000000  0.6388450000000 1.0
C      1  0.5536170000000  0.4064590000000  0.3611550000000 1.0
C      1  0.4463830000000  0.5935410000000  0.3611550000000 1.0
C      1  0.5966370000000  0.5000000000000  0.7749550000000 1.0
C      1  0.5000000000000  0.7749550000000  0.5966370000000 1.0
C      1  0.7749550000000  0.5966370000000  0.5000000000000 1.0
C      1  0.4033630000000  0.5000000000000  0.7749550000000 1.0
C      1  0.5966370000000  0.5000000000000  0.2250450000000 1.0
C      1  0.4033630000000  0.5000000000000  0.2250450000000 1.0
C      1  0.5000000000000  0.2250450000000  0.5966370000000 1.0
C      1  0.5000000000000  0.2250450000000  0.4033630000000 1.0
C      1  0.5000000000000  0.7749550000000  0.4033630000000 1.0
C      1  0.2250450000000  0.4033630000000  0.5000000000000 1.0
C      1  0.7749550000000  0.4033630000000  0.5000000000000 1.0
C      1  0.2250450000000  0.5966370000000  0.5000000000000 1.0
END
