TITL C-2158988-7926-1022 -0.00265722718614804 3375 -404.091996895751 0 0 60 (D2h) n - 1
REM
REM in /scratch/bkarasulu/868
REM
REM
REM
REM
REM
REM ./C.cell (a2850807a9bf4ad07a5b6933b78d9264)
REM AIRSS Version 0.9.1 bugfix July 2018 build 013d7b7c2542+ Fri, 06 Jul 2018 19:26:36 +0100
REM compiler GCC version 9.2.1 20190827 (Red Hat 9.2.1-1)
REM options -cpp -mtune=generic -march=x86-64 -g -O0 -fpre-include=/usr/include/finclude/math-vector-fortran.h
REM seed 273228011 -757360083 1690594643 -1241950018 -131247339 921379334 38093286 -2011587334 -1712316186 -270255914 -22413914 487491458 1296947237 -1540440157 1530800841 1861391951 -1885467899 -1673420437 -1065552513 1166143900 -534386250 -2085058676 -1290631000 1885603467 -510507043 376402181 -1235323617 1433892473 59638109 -410112690 2085105409 -666716609 2117048490
REM
CELL 1.54180   15.00000   15.00000   15.00000   90.00000   90.00000   90.00000
LATT -1
SFAC C  
C      1  0.5491430000000  0.5484780000000  0.4061120000000 1.0
C      1  0.4508570000000  0.5484780000000  0.5938880000000 1.0
C      1  0.5491430000000  0.4515220000000  0.4061120000000 1.0
C      1  0.4508570000000  0.4515220000000  0.5938880000000 1.0
C      1  0.4508570000000  0.5484780000000  0.4061120000000 1.0
C      1  0.5491430000000  0.5484780000000  0.5938880000000 1.0
C      1  0.4508570000000  0.4515220000000  0.4061120000000 1.0
C      1  0.5491430000000  0.4515220000000  0.5938880000000 1.0
C      1  0.4512270000000  0.6696440000000  0.3673830000000 1.0
C      1  0.5487730000000  0.6696440000000  0.6326170000000 1.0
C      1  0.4512270000000  0.3303560000000  0.3673830000000 1.0
C      1  0.5487730000000  0.3303560000000  0.6326170000000 1.0
C      1  0.5487730000000  0.6696440000000  0.3673830000000 1.0
C      1  0.4512270000000  0.6696440000000  0.6326170000000 1.0
C      1  0.5487730000000  0.3303560000000  0.3673830000000 1.0
C      1  0.4512270000000  0.3303560000000  0.6326170000000 1.0
C      1  0.3120310000000  0.5926240000000  0.4232100000000 1.0
C      1  0.6879690000000  0.5926240000000  0.5767900000000 1.0
C      1  0.3120310000000  0.4073760000000  0.4232100000000 1.0
C      1  0.6879690000000  0.4073760000000  0.5767900000000 1.0
C      1  0.6879690000000  0.5926240000000  0.4232100000000 1.0
C      1  0.3120310000000  0.5926240000000  0.5767900000000 1.0
C      1  0.6879690000000  0.4073760000000  0.4232100000000 1.0
C      1  0.3120310000000  0.4073760000000  0.5767900000000 1.0
C      1  0.5890070000000  0.4089570000000  0.6892240000000 1.0
C      1  0.4109930000000  0.4089570000000  0.3107760000000 1.0
C      1  0.5890070000000  0.5910430000000  0.6892240000000 1.0
C      1  0.4109930000000  0.5910430000000  0.3107760000000 1.0
C      1  0.4109930000000  0.4089570000000  0.6892240000000 1.0
C      1  0.5890070000000  0.4089570000000  0.3107760000000 1.0
C      1  0.4109930000000  0.5910430000000  0.6892240000000 1.0
C      1  0.5890070000000  0.5910430000000  0.3107760000000 1.0
C      1  0.3257000000000  0.4518510000000  0.3406200000000 1.0
C      1  0.6743000000000  0.4518510000000  0.6593800000000 1.0
C      1  0.3257000000000  0.5481490000000  0.3406200000000 1.0
C      1  0.6743000000000  0.5481490000000  0.6593800000000 1.0
C      1  0.6743000000000  0.4518510000000  0.3406200000000 1.0
C      1  0.3257000000000  0.4518510000000  0.6593800000000 1.0
C      1  0.6743000000000  0.5481490000000  0.3406200000000 1.0
C      1  0.3257000000000  0.5481490000000  0.6593800000000 1.0
C      1  0.5483530000000  0.5494890000000  0.2382420000000 1.0
C      1  0.4516470000000  0.5494890000000  0.7617580000000 1.0
C      1  0.5483530000000  0.4505110000000  0.2382420000000 1.0
C      1  0.4516470000000  0.4505110000000  0.7617580000000 1.0
C      1  0.4516470000000  0.5494890000000  0.2382420000000 1.0
C      1  0.5483530000000  0.5494890000000  0.7617580000000 1.0
C      1  0.4516470000000  0.4505110000000  0.2382420000000 1.0
C      1  0.5483530000000  0.4505110000000  0.7617580000000 1.0
C      1  0.3970110000000  0.3638420000000  0.4498320000000 1.0
C      1  0.6029890000000  0.3638420000000  0.5501680000000 1.0
C      1  0.3970110000000  0.6361580000000  0.4498320000000 1.0
C      1  0.6029890000000  0.6361580000000  0.5501680000000 1.0
C      1  0.6029890000000  0.3638420000000  0.4498320000000 1.0
C      1  0.3970110000000  0.3638420000000  0.5501680000000 1.0
C      1  0.6029890000000  0.6361580000000  0.4498320000000 1.0
C      1  0.3970110000000  0.6361580000000  0.5501680000000 1.0
C      1  0.7210800000000  0.4519980000000  0.5000000000000 1.0
C      1  0.2789200000000  0.4519980000000  0.5000000000000 1.0
C      1  0.7210800000000  0.5480020000000  0.5000000000000 1.0
C      1  0.2789200000000  0.5480020000000  0.5000000000000 1.0
END
