TITL C-2158988-7926-147 -0.00141570307931074 3375 -404.45101757503 0 0 60 (C5) n - 1
REM
REM in /scratch/bkarasulu/868
REM
REM
REM
REM
REM
REM ./C.cell (a2850807a9bf4ad07a5b6933b78d9264)
REM AIRSS Version 0.9.1 bugfix July 2018 build 013d7b7c2542+ Fri, 06 Jul 2018 19:26:36 +0100
REM compiler GCC version 9.2.1 20190827 (Red Hat 9.2.1-1)
REM options -cpp -mtune=generic -march=x86-64 -g -O0 -fpre-include=/usr/include/finclude/math-vector-fortran.h
REM seed 744004467 788384794 183471251 1293013820 349635535 1777211417 -547133665 -1231278663 -603901932 1214453909 286951131 1325264695 261503027 1187003667 1266044871 2013979856 -630023378 -1094972771 -496135786 -629624636 -2104473193 -1574095687 1504583865 636524680 1838286538 1522280809 -1859154398 -1371492647 1756263112 -1835512823 -1000822001 867708693 929185488
REM
CELL 1.54180   15.00000   15.00000   15.00000   90.00000   90.00000   90.00000
LATT -1
SFAC C  
C      1  0.3822080000000  0.7078560000000  0.4993070000000 1.0
C      1  0.3822070000000  0.5635700000000  0.3021040000000 1.0
C      1  0.3822090000000  0.3314330000000  0.3783890000000 1.0
C      1  0.3822100000000  0.3322490000000  0.6227360000000 1.0
C      1  0.3822100000000  0.5648900000000  0.6974690000000 1.0
C      1  0.3315530000000  0.4124190000000  0.3604300000000 1.0
C      1  0.3315540000000  0.3401950000000  0.5401650000000 1.0
C      1  0.3315540000000  0.4888160000000  0.6643960000000 1.0
C      1  0.3315530000000  0.6528920000000  0.5614380000000 1.0
C      1  0.3315520000000  0.6056760000000  0.3735770000000 1.0
C      1  0.5570170000000  0.5747640000000  0.2909980000000 1.0
C      1  0.5570180000000  0.3243320000000  0.3643100000000 1.0
C      1  0.5570200000000  0.3166680000000  0.6251390000000 1.0
C      1  0.5570200000000  0.5623630000000  0.7130300000000 1.0
C      1  0.5570180000000  0.7218760000000  0.5065190000000 1.0
C      1  0.5470300000000  0.4896310000000  0.4167700000000 1.0
C      1  0.5470310000000  0.4176400000000  0.4841420000000 1.0
C      1  0.5470320000000  0.4594690000000  0.5734290000000 1.0
C      1  0.5470310000000  0.5573110000000  0.5612390000000 1.0
C      1  0.5470300000000  0.5759520000000  0.4644180000000 1.0
C      1  0.6113180000000  0.3897520000000  0.3139950000000 1.0
C      1  0.6113200000000  0.2890310000000  0.5473730000000 1.0
C      1  0.6113210000000  0.4798630000000  0.7152820000000 1.0
C      1  0.6113200000000  0.6985240000000  0.5856760000000 1.0
C      1  0.6113190000000  0.6428310000000  0.3376680000000 1.0
C      1  0.5860980000000  0.3300860000000  0.4610030000000 1.0
C      1  0.5860990000000  0.4104070000000  0.6495470000000 1.0
C      1  0.5860990000000  0.6145430000000  0.6314210000000 1.0
C      1  0.5860970000000  0.6603850000000  0.4316740000000 1.0
C      1  0.5860970000000  0.4845820000000  0.3263510000000 1.0
C      1  0.2854050000000  0.4564470000000  0.4316660000000 1.0
C      1  0.2854060000000  0.4215500000000  0.5203050000000 1.0
C      1  0.2854060000000  0.4950670000000  0.5808860000000 1.0
C      1  0.2854060000000  0.5754000000000  0.5296870000000 1.0
C      1  0.2854050000000  0.5515320000000  0.4374640000000 1.0
C      1  0.4454460000000  0.4187630000000  0.4876370000000 1.0
C      1  0.4454460000000  0.4631370000000  0.5734410000000 1.0
C      1  0.4454460000000  0.5584550000000  0.5577530000000 1.0
C      1  0.4454450000000  0.5729900000000  0.4622530000000 1.0
C      1  0.4454450000000  0.4866550000000  0.4189180000000 1.0
C      1  0.7139060000000  0.4190540000000  0.5039620000000 1.0
C      1  0.7139070000000  0.4787560000000  0.5782080000000 1.0
C      1  0.7139060000000  0.5678170000000  0.5443710000000 1.0
C      1  0.7139060000000  0.5631570000000  0.4492130000000 1.0
C      1  0.7139050000000  0.4712170000000  0.4242400000000 1.0
C      1  0.6764830000000  0.4454770000000  0.3411440000000 1.0
C      1  0.6764850000000  0.3320710000000  0.5027650000000 1.0
C      1  0.6764850000000  0.4507390000000  0.6605640000000 1.0
C      1  0.6764850000000  0.6374840000000  0.5964670000000 1.0
C      1  0.6764830000000  0.6342310000000  0.3990550000000 1.0
C      1  0.3943790000000  0.4766450000000  0.3356020000000 1.0
C      1  0.3943800000000  0.3364300000000  0.4714100000000 1.0
C      1  0.3943810000000  0.4222620000000  0.6467290000000 1.0
C      1  0.3943800000000  0.6155240000000  0.6192750000000 1.0
C      1  0.3943780000000  0.6491360000000  0.4269880000000 1.0
C      1  0.4691510000000  0.5595670000000  0.7233970000000 1.0
C      1  0.4691500000000  0.7308700000000  0.5123810000000 1.0
C      1  0.4691480000000  0.5831180000000  0.2842550000000 1.0
C      1  0.4691500000000  0.3205000000000  0.3542820000000 1.0
C      1  0.4691510000000  0.3059450000000  0.6256850000000 1.0
END
