TITL C-2159255-4746-286 -0.00276502989040172 3375 -404.499417414695 0 0 60 (C5) n - 1
REM
REM in /scratch/bkarasulu/871
REM
REM
REM
REM
REM
REM ./C.cell (a2850807a9bf4ad07a5b6933b78d9264)
REM AIRSS Version 0.9.1 bugfix July 2018 build 013d7b7c2542+ Fri, 06 Jul 2018 19:26:36 +0100
REM compiler GCC version 9.2.1 20190827 (Red Hat 9.2.1-1)
REM options -cpp -mtune=generic -march=x86-64 -g -O0 -fpre-include=/usr/include/finclude/math-vector-fortran.h
REM seed 1547357978 698883821 -1472196267 -1083801625 1298756633 1880615349 772418999 -299718632 -306570494 690316642 -1003040224 -890777084 -405190297 -339795315 252719121 1041496258 663196855 -141921678 92338448 1464903652 505097535 1183709826 1350131379 -1270640827 1237512736 -563888541 1199342953 -1935975625 -86095548 1028239693 1004265887 -775292076 416443521
REM
CELL 1.54180   15.00000   15.00000   15.00000   90.00000   90.00000   90.00000
LATT -1
SFAC C  
C      1  0.5397900000000  0.4518700000000  0.2671200000000 1.0
C      1  0.5397930000000  0.2636440000000  0.4738130000000 1.0
C      1  0.5397900000000  0.4020560000000  0.7166970000000 1.0
C      1  0.5397890000000  0.6758200000000  0.6601140000000 1.0
C      1  0.5397870000000  0.7066080000000  0.3822650000000 1.0
C      1  0.5397900000000  0.5481300000000  0.2671200000000 1.0
C      1  0.5397930000000  0.7363560000000  0.4738130000000 1.0
C      1  0.5397900000000  0.5979440000000  0.7166970000000 1.0
C      1  0.5397890000000  0.3241800000000  0.6601140000000 1.0
C      1  0.5397870000000  0.2933920000000  0.3822650000000 1.0
C      1  0.4627430000000  0.4092280000000  0.2964020000000 1.0
C      1  0.4627450000000  0.2783150000000  0.5234150000000 1.0
C      1  0.4627400000000  0.4537620000000  0.7180730000000 1.0
C      1  0.4627370000000  0.6931100000000  0.6113640000000 1.0
C      1  0.4627360000000  0.6655860000000  0.3507550000000 1.0
C      1  0.4627430000000  0.5907720000000  0.2964020000000 1.0
C      1  0.4627450000000  0.7216850000000  0.5234150000000 1.0
C      1  0.4627400000000  0.5462380000000  0.7180730000000 1.0
C      1  0.4627370000000  0.3068900000000  0.6113640000000 1.0
C      1  0.4627360000000  0.3344140000000  0.3507550000000 1.0
C      1  0.3053060000000  0.6644730000000  0.6546150000000 1.0
C      1  0.3053100000000  0.6978880000000  0.3913620000000 1.0
C      1  0.3053320000000  0.4578170000000  0.2781890000000 1.0
C      1  0.3053320000000  0.2760130000000  0.4715890000000 1.0
C      1  0.3053150000000  0.4037710000000  0.7042150000000 1.0
C      1  0.3053060000000  0.3355270000000  0.6546150000000 1.0
C      1  0.3053100000000  0.3021120000000  0.3913620000000 1.0
C      1  0.3053320000000  0.5421830000000  0.2781890000000 1.0
C      1  0.3053320000000  0.7239870000000  0.4715890000000 1.0
C      1  0.3053150000000  0.5962290000000  0.7042150000000 1.0
C      1  0.6882660000000  0.6554950000000  0.4974780000000 1.0
C      1  0.6882640000000  0.5456490000000  0.3513370000000 1.0
C      1  0.6882620000000  0.3727180000000  0.4106480000000 1.0
C      1  0.6882640000000  0.3756870000000  0.5934440000000 1.0
C      1  0.6882650000000  0.5504520000000  0.6471090000000 1.0
C      1  0.6882660000000  0.3445050000000  0.4974780000000 1.0
C      1  0.6882640000000  0.4543510000000  0.3513370000000 1.0
C      1  0.6882620000000  0.6272820000000  0.4106480000000 1.0
C      1  0.6882640000000  0.6243130000000  0.5934440000000 1.0
C      1  0.6882650000000  0.4495480000000  0.6471090000000 1.0
C      1  0.3852140000000  0.3706710000000  0.5944520000000 1.0
C      1  0.3852200000000  0.5498670000000  0.6521870000000 1.0
C      1  0.3852230000000  0.6601490000000  0.4996000000000 1.0
C      1  0.3852130000000  0.5491110000000  0.3475590000000 1.0
C      1  0.3852060000000  0.3702010000000  0.4061840000000 1.0
C      1  0.3852140000000  0.6293290000000  0.5944520000000 1.0
C      1  0.3852200000000  0.4501330000000  0.6521870000000 1.0
C      1  0.3852230000000  0.3398510000000  0.4996000000000 1.0
C      1  0.3852130000000  0.4508890000000  0.3475590000000 1.0
C      1  0.3852060000000  0.6297990000000  0.4061840000000 1.0
C      1  0.6186750000000  0.7222990000000  0.5221590000000 1.0
C      1  0.6186710000000  0.5897660000000  0.2954300000000 1.0
C      1  0.6186690000000  0.3331810000000  0.3514150000000 1.0
C      1  0.6186710000000  0.3071350000000  0.6127410000000 1.0
C      1  0.6186720000000  0.5476220000000  0.7182690000000 1.0
C      1  0.6186750000000  0.2777010000000  0.5221590000000 1.0
C      1  0.6186710000000  0.4102340000000  0.2954300000000 1.0
C      1  0.6186690000000  0.6668190000000  0.3514150000000 1.0
C      1  0.6186710000000  0.6928650000000  0.6127410000000 1.0
C      1  0.6186720000000  0.4523780000000  0.7182690000000 1.0
END
