TITL C-2158988-7926-975 -0.00145681538831323 3375 -398.624575018209 0 0 60 (C3) n - 1
REM
REM in /scratch/bkarasulu/868
REM
REM
REM
REM
REM
REM ./C.cell (a2850807a9bf4ad07a5b6933b78d9264)
REM AIRSS Version 0.9.1 bugfix July 2018 build 013d7b7c2542+ Fri, 06 Jul 2018 19:26:36 +0100
REM compiler GCC version 9.2.1 20190827 (Red Hat 9.2.1-1)
REM options -cpp -mtune=generic -march=x86-64 -g -O0 -fpre-include=/usr/include/finclude/math-vector-fortran.h
REM seed 1107053078 -1254430624 1477090209 231210980 -166471322 -1565799928 233190861 1311559395 -1265730589 -1094772914 -447219843 -968554149 -1193789107 -1316395922 479158042 305143480 1590639433 -662147916 1426061301 -662245168 -352333764 1081910392 1110008439 1254139594 299357133 799296657 69998566 -1098654590 773357191 1964282962 2052853745 1618814422 -2137115619
REM
CELL 1.54180   15.00000   15.00000   15.00000   90.00000   90.00000   90.00000
LATT -1
SFAC C  
C      1  0.6211330000000  0.3737480000000  0.4333680000000 1.0
C      1  0.3817290000000  0.3737480000000  0.4284110000000 1.0
C      1  0.4971380000000  0.3737470000000  0.6382210000000 1.0
C      1  0.5757140000000  0.4509250000000  0.3002740000000 1.0
C      1  0.2891750000000  0.4509250000000  0.5342900000000 1.0
C      1  0.6351090000000  0.4509240000000  0.6654340000000 1.0
C      1  0.5421640000000  0.6695180000000  0.5367970000000 1.0
C      1  0.5107860000000  0.6695170000000  0.4450860000000 1.0
C      1  0.4470510000000  0.6695170000000  0.5181160000000 1.0
C      1  0.4522950000000  0.5237480000000  0.4244240000000 1.0
C      1  0.4584040000000  0.5237480000000  0.5791030000000 1.0
C      1  0.5893040000000  0.5237490000000  0.4964740000000 1.0
C      1  0.3854870000000  0.6258570000000  0.3469920000000 1.0
C      1  0.4247470000000  0.6258560000000  0.6756750000000 1.0
C      1  0.6897670000000  0.6258560000000  0.4773340000000 1.0
C      1  0.2825050000000  0.5338610000000  0.5867280000000 1.0
C      1  0.6838570000000  0.5338600000000  0.6449920000000 1.0
C      1  0.5336370000000  0.5338620000000  0.2682770000000 1.0
C      1  0.5912890000000  0.2758080000000  0.5280110000000 1.0
C      1  0.4786140000000  0.2758080000000  0.4069350000000 1.0
C      1  0.4300970000000  0.2758080000000  0.5650520000000 1.0
C      1  0.3887130000000  0.6676300000000  0.6005250000000 1.0
C      1  0.6427020000000  0.6676310000000  0.5461150000000 1.0
C      1  0.4685860000000  0.6676310000000  0.3533590000000 1.0
C      1  0.2682930000000  0.6424280000000  0.4770240000000 1.0
C      1  0.5959520000000  0.6424260000000  0.7121510000000 1.0
C      1  0.6357500000000  0.6424270000000  0.3108290000000 1.0
C      1  0.4628670000000  0.4333020000000  0.4546590000000 1.0
C      1  0.4793010000000  0.4333020000000  0.5548290000000 1.0
C      1  0.5578330000000  0.4333030000000  0.4905130000000 1.0
C      1  0.5236860000000  0.2884930000000  0.5907300000000 1.0
C      1  0.5667320000000  0.2884940000000  0.4341230000000 1.0
C      1  0.4095830000000  0.2884930000000  0.4751470000000 1.0
C      1  0.3263800000000  0.4886970000000  0.6596840000000 1.0
C      1  0.7251020000000  0.4886970000000  0.5705170000000 1.0
C      1  0.4485180000000  0.4886980000000  0.2697970000000 1.0
C      1  0.5476370000000  0.4399880000000  0.6934870000000 1.0
C      1  0.6437430000000  0.4399890000000  0.3620020000000 1.0
C      1  0.3086170000000  0.4399880000000  0.4445120000000 1.0
C      1  0.4406200000000  0.3465140000000  0.3496750000000 1.0
C      1  0.3995050000000  0.3465140000000  0.6265860000000 1.0
C      1  0.6598760000000  0.3465140000000  0.5237370000000 1.0
C      1  0.5441660000000  0.6199700000000  0.3046430000000 1.0
C      1  0.3087310000000  0.6199710000000  0.5594300000000 1.0
C      1  0.6470990000000  0.6199680000000  0.6359270000000 1.0
C      1  0.6935760000000  0.5275710000000  0.4907980000000 1.0
C      1  0.3952420000000  0.5275720000000  0.3369600000000 1.0
C      1  0.4111820000000  0.5275710000000  0.6722430000000 1.0
C      1  0.5362640000000  0.5697530000000  0.4268560000000 1.0
C      1  0.4185260000000  0.5697520000000  0.5051670000000 1.0
C      1  0.5452140000000  0.5697530000000  0.5679770000000 1.0
C      1  0.5139720000000  0.6076830000000  0.7198180000000 1.0
C      1  0.6833810000000  0.6076830000000  0.3779920000000 1.0
C      1  0.3026470000000  0.6076830000000  0.4021960000000 1.0
C      1  0.3275310000000  0.4031950000000  0.6114320000000 1.0
C      1  0.6827380000000  0.4031950000000  0.5936460000000 1.0
C      1  0.4897300000000  0.4031960000000  0.2949200000000 1.0
C      1  0.6957330000000  0.5113110000000  0.3930240000000 1.0
C      1  0.3094900000000  0.5113120000000  0.3839800000000 1.0
C      1  0.4947770000000  0.5113100000000  0.7229990000000 1.0
END
