TITL C-2159255-4746-132 -0.00150230201039658 3375 -401.836851957717 0 0 60 (C1) n - 1
REM
REM in /scratch/bkarasulu/871
REM
REM
REM
REM
REM
REM ./C.cell (a2850807a9bf4ad07a5b6933b78d9264)
REM AIRSS Version 0.9.1 bugfix July 2018 build 013d7b7c2542+ Fri, 06 Jul 2018 19:26:36 +0100
REM compiler GCC version 9.2.1 20190827 (Red Hat 9.2.1-1)
REM options -cpp -mtune=generic -march=x86-64 -g -O0 -fpre-include=/usr/include/finclude/math-vector-fortran.h
REM seed 2083253698 -1719409331 -1894101917 1012725327 -2038608898 -222021167 -457851037 -498732649 -1137922247 654356251 -458716867 -648309430 -2106124070 1873130181 -869708560 1923168949 1832368206 1166728457 -1065430819 -1104636172 -117909353 -1881938967 -2092950950 -1834776933 2013985253 -2079175087 615747616 43684344 -569011047 -1426534178 897524939 -209256319 -1224282360
REM
CELL 1.54180   15.00000   15.00000   15.00000   90.00000   90.00000   90.00000
LATT -1
SFAC C  
C      1  0.7073550000000  0.6115570000000  0.4484910000000 1.0
C      1  0.4988770000000  0.5340910000000  0.3535090000000 1.0
C      1  0.2915580000000  0.5984900000000  0.5743260000000 1.0
C      1  0.5918650000000  0.4039430000000  0.3738130000000 1.0
C      1  0.5801820000000  0.4914400000000  0.3278780000000 1.0
C      1  0.3525920000000  0.4385190000000  0.5131060000000 1.0
C      1  0.5622190000000  0.3166230000000  0.3359250000000 1.0
C      1  0.3350230000000  0.4881770000000  0.6781730000000 1.0
C      1  0.5071730000000  0.4172450000000  0.4479680000000 1.0
C      1  0.6466650000000  0.4512390000000  0.6070210000000 1.0
C      1  0.4941450000000  0.6347320000000  0.3487900000000 1.0
C      1  0.5525870000000  0.3139430000000  0.6049240000000 1.0
C      1  0.4974350000000  0.4889360000000  0.6688930000000 1.0
C      1  0.5525060000000  0.4694520000000  0.5898790000000 1.0
C      1  0.3589590000000  0.3967280000000  0.6972190000000 1.0
C      1  0.3654770000000  0.2924640000000  0.5632990000000 1.0
C      1  0.4023060000000  0.5231870000000  0.5232130000000 1.0
C      1  0.3873240000000  0.5220740000000  0.2742870000000 1.0
C      1  0.7317190000000  0.4932170000000  0.3620450000000 1.0
C      1  0.6503860000000  0.5414530000000  0.4963620000000 1.0
C      1  0.4921820000000  0.2709550000000  0.3500090000000 1.0
C      1  0.3265470000000  0.5896220000000  0.4843840000000 1.0
C      1  0.7767020000000  0.5511180000000  0.4151840000000 1.0
C      1  0.6625980000000  0.6209900000000  0.6078720000000 1.0
C      1  0.3109250000000  0.3502140000000  0.6256290000000 1.0
C      1  0.5528750000000  0.5529150000000  0.5193330000000 1.0
C      1  0.7179540000000  0.3884250000000  0.4834980000000 1.0
C      1  0.4205670000000  0.4029450000000  0.3848800000000 1.0
C      1  0.4218240000000  0.6146910000000  0.6735240000000 1.0
C      1  0.5707900000000  0.6396390000000  0.6341410000000 1.0
C      1  0.4865080000000  0.5141010000000  0.4612770000000 1.0
C      1  0.5080450000000  0.3289040000000  0.6844200000000 1.0
C      1  0.4431870000000  0.4647690000000  0.3128710000000 1.0
C      1  0.4583360000000  0.4007170000000  0.7052330000000 1.0
C      1  0.4137010000000  0.3034490000000  0.3934180000000 1.0
C      1  0.4272980000000  0.6845430000000  0.5395870000000 1.0
C      1  0.5749470000000  0.7106390000000  0.4765230000000 1.0
C      1  0.4039640000000  0.6549090000000  0.3663820000000 1.0
C      1  0.6372930000000  0.2913290000000  0.5871670000000 1.0
C      1  0.5124750000000  0.5916560000000  0.6900330000000 1.0
C      1  0.5116490000000  0.3885340000000  0.5421020000000 1.0
C      1  0.6533830000000  0.6296940000000  0.3640810000000 1.0
C      1  0.6912500000000  0.4130350000000  0.4013370000000 1.0
C      1  0.3799200000000  0.6678320000000  0.4576650000000 1.0
C      1  0.2663860000000  0.5154110000000  0.6199240000000 1.0
C      1  0.6512450000000  0.7516440000000  0.5092610000000 1.0
C      1  0.3450040000000  0.5832960000000  0.3282030000000 1.0
C      1  0.6861910000000  0.5333510000000  0.5872160000000 1.0
C      1  0.6809530000000  0.3695180000000  0.5633480000000 1.0
C      1  0.6869030000000  0.6708140000000  0.5271270000000 1.0
C      1  0.6560320000000  0.5435880000000  0.3215460000000 1.0
C      1  0.4183390000000  0.3742730000000  0.5438670000000 1.0
C      1  0.3799360000000  0.2771820000000  0.4770800000000 1.0
C      1  0.5224190000000  0.6596580000000  0.5441780000000 1.0
C      1  0.3687070000000  0.6564710000000  0.6113750000000 1.0
C      1  0.2781490000000  0.4307350000000  0.5773400000000 1.0
C      1  0.4124740000000  0.5247800000000  0.6322770000000 1.0
C      1  0.5723910000000  0.6743140000000  0.3837610000000 1.0
C      1  0.3414240000000  0.4461620000000  0.4205390000000 1.0
C      1  0.3121770000000  0.5356630000000  0.4032880000000 1.0
END
