TITL C-2159255-4746-23 -0.00300144477087277 3375 -371.58756776851 0 0 60 (C5) n - 1
REM
REM in /scratch/bkarasulu/871
REM
REM
REM
REM
REM
REM ./C.cell (a2850807a9bf4ad07a5b6933b78d9264)
REM AIRSS Version 0.9.1 bugfix July 2018 build 013d7b7c2542+ Fri, 06 Jul 2018 19:26:36 +0100
REM compiler GCC version 9.2.1 20190827 (Red Hat 9.2.1-1)
REM options -cpp -mtune=generic -march=x86-64 -g -O0 -fpre-include=/usr/include/finclude/math-vector-fortran.h
REM seed -1907325414 1433060788 -1232971416 -364281159 411194877 -1950123790 -2082715872 2068849083 -910113546 -1783294746 -1870422474 -134874157 149308174 -415112187 -1942802637 -1938570785 1992909633 819339522 446217140 1953569908 2058589176 677181098 641104562 117645654 1023269027 -1685552988 489104331 1902674396 75090809 -1056324778 -1947376459 903132735 -1148832090
REM
CELL 1.54180   15.00000   15.00000   15.00000   90.00000   90.00000   90.00000
LATT -1
SFAC C  
C      1  0.2274000000000  0.5647730000000  0.5517690000000 1.0
C      1  0.2274000000000  0.4707800000000  0.5776010000000 1.0
C      1  0.2274000000000  0.4171680000000  0.4961910000000 1.0
C      1  0.2274000000000  0.4780260000000  0.4200450000000 1.0
C      1  0.2274000000000  0.5692510000000  0.4543940000000 1.0
C      1  0.7766340000000  0.5835120000000  0.5186210000000 1.0
C      1  0.7766330000000  0.5081000000000  0.5851800000000 1.0
C      1  0.7766340000000  0.4214950000000  0.5340250000000 1.0
C      1  0.7766350000000  0.4433820000000  0.4358530000000 1.0
C      1  0.7766340000000  0.5435150000000  0.4263310000000 1.0
C      1  0.7155680000000  0.3825780000000  0.4758100000000 1.0
C      1  0.7155690000000  0.4867230000000  0.3808510000000 1.0
C      1  0.7155680000000  0.6092170000000  0.4505550000000 1.0
C      1  0.7155660000000  0.5807770000000  0.5885930000000 1.0
C      1  0.7155670000000  0.4407070000000  0.6042000000000 1.0
C      1  0.6239730000000  0.5590450000000  0.5609020000000 1.0
C      1  0.6239730000000  0.4603260000000  0.5749750000000 1.0
C      1  0.6239730000000  0.4164360000000  0.4854360000000 1.0
C      1  0.6239740000000  0.4880290000000  0.4160260000000 1.0
C      1  0.6239730000000  0.5761660000000  0.4626660000000 1.0
C      1  0.2946970000000  0.6266310000000  0.4158910000000 1.0
C      1  0.2946970000000  0.6191230000000  0.5944420000000 1.0
C      1  0.2946980000000  0.4469910000000  0.6424770000000 1.0
C      1  0.2946970000000  0.3481150000000  0.4936140000000 1.0
C      1  0.2946970000000  0.4591380000000  0.3535750000000 1.0
C      1  0.3814230000000  0.4730400000000  0.4202080000000 1.0
C      1  0.3814220000000  0.5675550000000  0.4497030000000 1.0
C      1  0.3814220000000  0.5687110000000  0.5487060000000 1.0
C      1  0.3814220000000  0.4749100000000  0.5803990000000 1.0
C      1  0.3814230000000  0.4157820000000  0.5009830000000 1.0
C      1  0.3611160000000  0.6634440000000  0.6319230000000 1.0
C      1  0.3611160000000  0.4250400000000  0.6962130000000 1.0
C      1  0.3611160000000  0.2902280000000  0.4893410000000 1.0
C      1  0.3611150000000  0.4453140000000  0.2971990000000 1.0
C      1  0.3611160000000  0.6759740000000  0.3853210000000 1.0
C      1  0.5178400000000  0.4857490000000  0.4149860000000 1.0
C      1  0.5178390000000  0.5764490000000  0.4601750000000 1.0
C      1  0.5178390000000  0.5615000000000  0.5604020000000 1.0
C      1  0.5178390000000  0.4615590000000  0.5771550000000 1.0
C      1  0.5178390000000  0.4147430000000  0.4872830000000 1.0
C      1  0.5707730000000  0.7251890000000  0.5039890000000 1.0
C      1  0.5707740000000  0.5657910000000  0.7154010000000 1.0
C      1  0.5707760000000  0.3154720000000  0.6291300000000 1.0
C      1  0.5707750000000  0.3201680000000  0.3644080000000 1.0
C      1  0.5707730000000  0.5733800000000  0.2870660000000 1.0
C      1  0.5707310000000  0.5089700000000  0.7837530000000 1.0
C      1  0.5707330000000  0.2329070000000  0.5962120000000 1.0
C      1  0.5707320000000  0.3259590000000  0.2757120000000 1.0
C      1  0.5707310000000  0.6595250000000  0.2651660000000 1.0
C      1  0.5707300000000  0.7726380000000  0.5791490000000 1.0
C      1  0.5095720000000  0.3780520000000  0.3248570000000 1.0
C      1  0.5095720000000  0.6288840000000  0.3298970000000 1.0
C      1  0.5095710000000  0.7016060000000  0.5700120000000 1.0
C      1  0.5095720000000  0.4957130000000  0.7133740000000 1.0
C      1  0.5095720000000  0.2957450000000  0.5618580000000 1.0
C      1  0.4502730000000  0.6338860000000  0.4041320000000 1.0
C      1  0.4502740000000  0.6325490000000  0.5977090000000 1.0
C      1  0.4502730000000  0.4480320000000  0.6562560000000 1.0
C      1  0.4502730000000  0.3353340000000  0.4988610000000 1.0
C      1  0.4502720000000  0.4501990000000  0.3430410000000 1.0
END
