TITL C-2158984-8299-648 -0.00361072768873466 3375 -431.419142687301 0 0 60 (C4) n - 1
REM
REM in /scratch/bkarasulu/869
REM
REM
REM
REM
REM
REM ./C.cell (a2850807a9bf4ad07a5b6933b78d9264)
REM AIRSS Version 0.9.1 bugfix July 2018 build 013d7b7c2542+ Fri, 06 Jul 2018 19:26:36 +0100
REM compiler GCC version 9.2.1 20190827 (Red Hat 9.2.1-1)
REM options -cpp -mtune=generic -march=x86-64 -g -O0 -fpre-include=/usr/include/finclude/math-vector-fortran.h
REM seed -95528372 346295245 -1069278861 1669738205 -1304235045 137356929 545720778 -2003546162 2050506198 -1094774030 1242378607 -707743494 -1955726235 238402579 -590784853 -1584041013 -1432797884 1051226988 596066950 1658255899 1086521603 -1688440019 -1903833637 1848093177 151482248 -17820972 49992499 759846184 1659087788 -2046718292 -718331490 307201553 -2030396124
REM
CELL 1.54180   15.00000   15.00000   15.00000   90.00000   90.00000   90.00000
LATT -1
SFAC C  
C      1  0.5772900000000  0.6164380000000  0.6749910000000 1.0
C      1  0.5772900000000  0.6749910000000  0.3835620000000 1.0
C      1  0.5772900000000  0.3835620000000  0.3250090000000 1.0
C      1  0.5772900000000  0.3250090000000  0.6164380000000 1.0
C      1  0.3916840000000  0.5893250000000  0.6944770000000 1.0
C      1  0.3916840000000  0.6944770000000  0.4106750000000 1.0
C      1  0.3916840000000  0.4106750000000  0.3055230000000 1.0
C      1  0.3916840000000  0.3055230000000  0.5893250000000 1.0
C      1  0.6456100000000  0.5237880000000  0.3789130000000 1.0
C      1  0.6456100000000  0.3789130000000  0.4762120000000 1.0
C      1  0.6456100000000  0.4762120000000  0.6210870000000 1.0
C      1  0.6456100000000  0.6210870000000  0.5237880000000 1.0
C      1  0.3429500000000  0.5471510000000  0.3822980000000 1.0
C      1  0.3429500000000  0.3822980000000  0.4528490000000 1.0
C      1  0.3429500000000  0.4528490000000  0.6177030000000 1.0
C      1  0.3429500000000  0.6177030000000  0.5471510000000 1.0
C      1  0.5170640000000  0.6911190000000  0.6610100000000 1.0
C      1  0.5170640000000  0.6610100000000  0.3088810000000 1.0
C      1  0.5170640000000  0.3088810000000  0.3389900000000 1.0
C      1  0.5170640000000  0.3389900000000  0.6911190000000 1.0
C      1  0.4230990000000  0.6725770000000  0.6697500000000 1.0
C      1  0.4230990000000  0.6697500000000  0.3274230000000 1.0
C      1  0.4230990000000  0.3274230000000  0.3302510000000 1.0
C      1  0.4230990000000  0.3302500000000  0.6725770000000 1.0
C      1  0.6660900000000  0.5377380000000  0.2869500000000 1.0
C      1  0.6660900000000  0.2869500000000  0.4622620000000 1.0
C      1  0.6660900000000  0.4622620000000  0.7130500000000 1.0
C      1  0.6660900000000  0.7130500000000  0.5377380000000 1.0
C      1  0.3786700000000  0.5899900000000  0.3026340000000 1.0
C      1  0.3786700000000  0.3026340000000  0.4100100000000 1.0
C      1  0.3786700000000  0.4100100000000  0.6973660000000 1.0
C      1  0.3786700000000  0.6973660000000  0.5899900000000 1.0
C      1  0.4373620000000  0.4516600000000  0.7569560000000 1.0
C      1  0.4373620000000  0.7569560000000  0.5483400000000 1.0
C      1  0.4373620000000  0.5483400000000  0.2430440000000 1.0
C      1  0.4373620000000  0.2430440000000  0.4516600000000 1.0
C      1  0.5890000000000  0.4754050000000  0.7573050000000 1.0
C      1  0.5890000000000  0.7573050000000  0.5245950000000 1.0
C      1  0.5890000000000  0.5245950000000  0.2426950000000 1.0
C      1  0.5890000000000  0.2426950000000  0.4754050000000 1.0
C      1  0.3466030000000  0.4525240000000  0.3826610000000 1.0
C      1  0.3466030000000  0.3826610000000  0.5474760000000 1.0
C      1  0.3466030000000  0.5474760000000  0.6173390000000 1.0
C      1  0.3466030000000  0.6173390000000  0.4525240000000 1.0
C      1  0.6273770000000  0.4285370000000  0.3962330000000 1.0
C      1  0.6273770000000  0.3962330000000  0.5714630000000 1.0
C      1  0.6273770000000  0.5714630000000  0.6037670000000 1.0
C      1  0.6273770000000  0.6037670000000  0.4285370000000 1.0
C      1  0.4508950000000  0.7500730000000  0.4573920000000 1.0
C      1  0.4508950000000  0.4573920000000  0.2499270000000 1.0
C      1  0.4508950000000  0.2499270000000  0.5426090000000 1.0
C      1  0.4508950000000  0.5426090000000  0.7500730000000 1.0
C      1  0.5451640000000  0.7450840000000  0.4403050000000 1.0
C      1  0.5451640000000  0.4403050000000  0.2549160000000 1.0
C      1  0.5451640000000  0.2549160000000  0.5596950000000 1.0
C      1  0.5451640000000  0.5596950000000  0.7450840000000 1.0
C      1  0.5225750000000  0.4068220000000  0.7567540000000 1.0
C      1  0.5225740000000  0.7567540000000  0.5931780000000 1.0
C      1  0.5225740000000  0.5931780000000  0.2432460000000 1.0
C      1  0.5225740000000  0.2432460000000  0.4068220000000 1.0
END
