TITL C-2158988-7926-889 -0.00156942063628359 3375 -408.209804866017 0 0 60 (C1) n - 1
REM
REM in /scratch/bkarasulu/868
REM
REM
REM
REM
REM
REM ./C.cell (a2850807a9bf4ad07a5b6933b78d9264)
REM AIRSS Version 0.9.1 bugfix July 2018 build 013d7b7c2542+ Fri, 06 Jul 2018 19:26:36 +0100
REM compiler GCC version 9.2.1 20190827 (Red Hat 9.2.1-1)
REM options -cpp -mtune=generic -march=x86-64 -g -O0 -fpre-include=/usr/include/finclude/math-vector-fortran.h
REM seed 2134758149 1493570027 1473088105 -747456604 1986170483 172945009 -401986109 1833098885 407583090 -1886994615 -1955860146 -33521423 1230259468 233079150 -502932544 949284958 -1787131600 -1024528923 -806579007 -1476292962 1832692196 -1871390287 786466274 124573073 2132630027 810490164 -850113370 1769129677 -1026409595 -124564049 1175125739 -434456252 -1078448115
REM
CELL 1.54180   15.00000   15.00000   15.00000   90.00000   90.00000   90.00000
LATT -1
SFAC C  
C      1  0.4547150000000  0.3393330000000  0.3654230000000 1.0
C      1  0.4418580000000  0.5978300000000  0.5256250000000 1.0
C      1  0.4805920000000  0.3043410000000  0.5919770000000 1.0
C      1  0.5725620000000  0.3182210000000  0.5951770000000 1.0
C      1  0.4355690000000  0.6960340000000  0.3960270000000 1.0
C      1  0.3007200000000  0.3706550000000  0.4514340000000 1.0
C      1  0.6867640000000  0.6072440000000  0.5696890000000 1.0
C      1  0.3906870000000  0.4835340000000  0.4033930000000 1.0
C      1  0.4346260000000  0.3825040000000  0.6360480000000 1.0
C      1  0.3086990000000  0.4754430000000  0.6744330000000 1.0
C      1  0.6400130000000  0.4820060000000  0.4467210000000 1.0
C      1  0.4805580000000  0.5294380000000  0.6850410000000 1.0
C      1  0.5066860000000  0.6880640000000  0.6453620000000 1.0
C      1  0.6184510000000  0.3176760000000  0.3604440000000 1.0
C      1  0.5427110000000  0.3823230000000  0.3385410000000 1.0
C      1  0.5275590000000  0.6924740000000  0.3984980000000 1.0
C      1  0.2650540000000  0.4475070000000  0.5063240000000 1.0
C      1  0.4103160000000  0.6988450000000  0.6472480000000 1.0
C      1  0.5986190000000  0.5735800000000  0.4458070000000 1.0
C      1  0.3814780000000  0.6362980000000  0.3397300000000 1.0
C      1  0.3050990000000  0.6231080000000  0.4522510000000 1.0
C      1  0.5117290000000  0.7343910000000  0.5572910000000 1.0
C      1  0.7009890000000  0.3569660000000  0.4897970000000 1.0
C      1  0.6356100000000  0.6455320000000  0.4990460000000 1.0
C      1  0.5672180000000  0.7109170000000  0.4861370000000 1.0
C      1  0.2694040000000  0.4320850000000  0.6030740000000 1.0
C      1  0.4194670000000  0.4341480000000  0.5491750000000 1.0
C      1  0.3374690000000  0.3890310000000  0.6592300000000 1.0
C      1  0.6293340000000  0.2982630000000  0.5170210000000 1.0
C      1  0.4136180000000  0.7383730000000  0.5553360000000 1.0
C      1  0.4200330000000  0.5493440000000  0.3337880000000 1.0
C      1  0.6602630000000  0.4493170000000  0.6298130000000 1.0
C      1  0.7442230000000  0.5377210000000  0.5449150000000 1.0
C      1  0.5027240000000  0.4384100000000  0.6780410000000 1.0
C      1  0.4834420000000  0.4640520000000  0.4747700000000 1.0
C      1  0.5415580000000  0.6022270000000  0.6714460000000 1.0
C      1  0.5116290000000  0.5513040000000  0.4862320000000 1.0
C      1  0.5604820000000  0.4659240000000  0.2916640000000 1.0
C      1  0.4382240000000  0.2838870000000  0.5105270000000 1.0
C      1  0.3706710000000  0.3502530000000  0.5043950000000 1.0
C      1  0.3772110000000  0.5470000000000  0.6642520000000 1.0
C      1  0.5839870000000  0.3973170000000  0.6472580000000 1.0
C      1  0.3903080000000  0.6756710000000  0.4849060000000 1.0
C      1  0.6973320000000  0.3614190000000  0.3909410000000 1.0
C      1  0.6963210000000  0.4534750000000  0.3702700000000 1.0
C      1  0.5732560000000  0.6138370000000  0.3509300000000 1.0
C      1  0.3820900000000  0.5304730000000  0.5601680000000 1.0
C      1  0.4867230000000  0.2761260000000  0.4316940000000 1.0
C      1  0.3565780000000  0.6410360000000  0.6853130000000 1.0
C      1  0.6789740000000  0.5116500000000  0.6964510000000 1.0
C      1  0.5610640000000  0.4231790000000  0.4410370000000 1.0
C      1  0.6984260000000  0.4535750000000  0.5327490000000 1.0
C      1  0.3723260000000  0.3886280000000  0.3870290000000 1.0
C      1  0.6359900000000  0.5815060000000  0.6539130000000 1.0
C      1  0.2922290000000  0.6417420000000  0.3651560000000 1.0
C      1  0.6505290000000  0.5894310000000  0.2990350000000 1.0
C      1  0.3207710000000  0.5248450000000  0.4803800000000 1.0
C      1  0.5082660000000  0.5434170000000  0.3095480000000 1.0
C      1  0.5820260000000  0.2702890000000  0.4362730000000 1.0
C      1  0.6541720000000  0.4967820000000  0.2958030000000 1.0
END
