TITL C-2158984-8299-288 -0.00510259790563623 3375 -412.354410309339 0 0 60 (C3v) n - 1
REM
REM in /scratch/bkarasulu/869
REM
REM
REM
REM
REM
REM ./C.cell (a2850807a9bf4ad07a5b6933b78d9264)
REM AIRSS Version 0.9.1 bugfix July 2018 build 013d7b7c2542+ Fri, 06 Jul 2018 19:26:36 +0100
REM compiler GCC version 9.2.1 20190827 (Red Hat 9.2.1-1)
REM options -cpp -mtune=generic -march=x86-64 -g -O0 -fpre-include=/usr/include/finclude/math-vector-fortran.h
REM seed -1975889839 -597540010 779975936 939758016 435730892 -1407116520 -901769359 -2049035266 347601719 2078925709 724425179 -544822828 440628773 1453936880 237419184 -1454432589 1106427829 134130361 -1076111910 221675882 -901499842 -1951092417 -299246026 2000009678 -1077589888 -327562040 -1450910178 -882255242 1092281369 1536325231 -1222108949 -814374757 -956484232
REM
CELL 1.54180   15.00000   15.00000   15.00000   90.00000   90.00000   90.00000
LATT -1
SFAC C  
C      1  0.6681800000000  0.3840990000000  0.5970270000000 1.0
C      1  0.3330920000000  0.3841000000000  0.5973220000000 1.0
C      1  0.5003810000000  0.3841150000000  0.3069770000000 1.0
C      1  0.3427050000000  0.6005980000000  0.5917670000000 1.0
C      1  0.6585540000000  0.6005990000000  0.5914980000000 1.0
C      1  0.5003950000000  0.6006090000000  0.3180960000000 1.0
C      1  0.3589270000000  0.3579920000000  0.5100340000000 1.0
C      1  0.5630570000000  0.3580010000000  0.3729930000000 1.0
C      1  0.5796700000000  0.3579870000000  0.6182970000000 1.0
C      1  0.6557610000000  0.6423390000000  0.5035930000000 1.0
C      1  0.4256620000000  0.6423440000000  0.3644680000000 1.0
C      1  0.4202300000000  0.6423340000000  0.6333050000000 1.0
C      1  0.4522460000000  0.2726050000000  0.6383980000000 1.0
C      1  0.4052260000000  0.2726180000000  0.3896220000000 1.0
C      1  0.6441800000000  0.2726130000000  0.4732900000000 1.0
C      1  0.5804050000000  0.7329490000000  0.6026980000000 1.0
C      1  0.5491640000000  0.7329570000000  0.3801840000000 1.0
C      1  0.3720850000000  0.7329520000000  0.5184960000000 1.0
C      1  0.3453480000000  0.6423380000000  0.5038580000000 1.0
C      1  0.5752070000000  0.6423430000000  0.3643430000000 1.0
C      1  0.5811010000000  0.6423340000000  0.6331680000000 1.0
C      1  0.6421910000000  0.3579900000000  0.5097860000000 1.0
C      1  0.4378220000000  0.3579990000000  0.3731030000000 1.0
C      1  0.4216390000000  0.3579860000000  0.6184350000000 1.0
C      1  0.5003280000000  0.4508150000000  0.2461760000000 1.0
C      1  0.7208600000000  0.4507980000000  0.6273840000000 1.0
C      1  0.2804650000000  0.4507980000000  0.6277700000000 1.0
C      1  0.5003410000000  0.5345900000000  0.2563710000000 1.0
C      1  0.2892800000000  0.5345750000000  0.6226710000000 1.0
C      1  0.7120330000000  0.5345750000000  0.6223070000000 1.0
C      1  0.3568720000000  0.2726140000000  0.4735440000000 1.0
C      1  0.5956800000000  0.2726180000000  0.3894530000000 1.0
C      1  0.5491000000000  0.2726050000000  0.6383130000000 1.0
C      1  0.6290480000000  0.7329520000000  0.5182770000000 1.0
C      1  0.4517320000000  0.7329580000000  0.3802670000000 1.0
C      1  0.4208720000000  0.7329490000000  0.6028340000000 1.0
C      1  0.3766360000000  0.5942730000000  0.4290510000000 1.0
C      1  0.6243430000000  0.5942730000000  0.4288410000000 1.0
C      1  0.5006740000000  0.5942640000000  0.6434710000000 1.0
C      1  0.5881140000000  0.4234450000000  0.4497880000000 1.0
C      1  0.4128990000000  0.4234450000000  0.4499410000000 1.0
C      1  0.5006390000000  0.4234380000000  0.6016070000000 1.0
C      1  0.5804180000000  0.2098130000000  0.4542260000000 1.0
C      1  0.5006330000000  0.2098050000000  0.5927040000000 1.0
C      1  0.4206010000000  0.2098130000000  0.4543690000000 1.0
C      1  0.4228390000000  0.7808070000000  0.4556820000000 1.0
C      1  0.5006280000000  0.7808020000000  0.5901520000000 1.0
C      1  0.5781860000000  0.7808070000000  0.4555500000000 1.0
C      1  0.7227110000000  0.4877990000000  0.3719460000000 1.0
C      1  0.2781740000000  0.4877990000000  0.3723210000000 1.0
C      1  0.5007700000000  0.4877810000000  0.7571010000000 1.0
C      1  0.7967870000000  0.4882720000000  0.3291080000000 1.0
C      1  0.2040250000000  0.4882720000000  0.3296090000000 1.0
C      1  0.5008450000000  0.4882450000000  0.8426720000000 1.0
C      1  0.5006940000000  0.4997590000000  0.6676580000000 1.0
C      1  0.6452850000000  0.4997700000000  0.4167270000000 1.0
C      1  0.3556750000000  0.4997700000000  0.4169710000000 1.0
C      1  0.5005500000000  0.1863490000000  0.5004310000000 1.0
C      1  0.5005510000000  0.8164380000000  0.5004630000000 1.0
C      1  0.5005510000000  0.4522880000000  0.5004460000000 1.0
END
