TITL C-2158988-7926-471 -0.00209870307493371 3375 -395.579060309747 0 0 60 (D2) n - 1
REM
REM in /scratch/bkarasulu/868
REM
REM
REM
REM
REM
REM ./C.cell (a2850807a9bf4ad07a5b6933b78d9264)
REM AIRSS Version 0.9.1 bugfix July 2018 build 013d7b7c2542+ Fri, 06 Jul 2018 19:26:36 +0100
REM compiler GCC version 9.2.1 20190827 (Red Hat 9.2.1-1)
REM options -cpp -mtune=generic -march=x86-64 -g -O0 -fpre-include=/usr/include/finclude/math-vector-fortran.h
REM seed 322527598 1273079010 -1610169525 -275455603 -2085274821 -613234786 -382323927 -464448546 -470880020 393213395 770457575 1755484068 767950961 -1328530494 1523168873 -1416875065 -317813476 892628314 138772711 -1571812415 -823326715 -1207394737 -1979172107 1510860559 -2111782486 -1632798976 -977099228 -91212403 -1075581270 -161778858 173924551 417615315 226236467
REM
CELL 1.54180   15.00000   15.00000   15.00000   90.00000   90.00000   90.00000
LATT -1
SFAC C  
C      1  0.6257710000000  0.6218350000000  0.5214370000000 1.0
C      1  0.6257710000000  0.3781650000000  0.4785630000000 1.0
C      1  0.3742290000000  0.6218350000000  0.4785630000000 1.0
C      1  0.3742290000000  0.3781650000000  0.5214370000000 1.0
C      1  0.4863990000000  0.4529140000000  0.2988170000000 1.0
C      1  0.4863990000000  0.5470860000000  0.7011830000000 1.0
C      1  0.5136010000000  0.4529140000000  0.7011830000000 1.0
C      1  0.5136010000000  0.5470860000000  0.2988170000000 1.0
C      1  0.3465170000000  0.3499570000000  0.3612710000000 1.0
C      1  0.3465170000000  0.6500430000000  0.6387290000000 1.0
C      1  0.6534830000000  0.3499570000000  0.6387290000000 1.0
C      1  0.6534830000000  0.6500430000000  0.3612710000000 1.0
C      1  0.4952640000000  0.6382710000000  0.2909770000000 1.0
C      1  0.4952640000000  0.3617290000000  0.7090230000000 1.0
C      1  0.5047360000000  0.6382710000000  0.7090230000000 1.0
C      1  0.5047360000000  0.3617290000000  0.2909770000000 1.0
C      1  0.5822260000000  0.6985460000000  0.5727120000000 1.0
C      1  0.5822260000000  0.3014540000000  0.4272880000000 1.0
C      1  0.4177740000000  0.6985460000000  0.4272880000000 1.0
C      1  0.4177740000000  0.3014540000000  0.5727120000000 1.0
C      1  0.7059610000000  0.4893450000000  0.5465420000000 1.0
C      1  0.7059610000000  0.5106550000000  0.4534580000000 1.0
C      1  0.2940390000000  0.4893450000000  0.4534580000000 1.0
C      1  0.2940390000000  0.5106550000000  0.5465420000000 1.0
C      1  0.5233260000000  0.4597460000000  0.6023430000000 1.0
C      1  0.5233260000000  0.5402540000000  0.3976570000000 1.0
C      1  0.4766740000000  0.4597460000000  0.3976570000000 1.0
C      1  0.4766740000000  0.5402540000000  0.6023430000000 1.0
C      1  0.5472200000000  0.2450010000000  0.5017830000000 1.0
C      1  0.5472200000000  0.7549990000000  0.4982170000000 1.0
C      1  0.4527800000000  0.2450010000000  0.4982170000000 1.0
C      1  0.4527800000000  0.7549990000000  0.5017830000000 1.0
C      1  0.4685280000000  0.3074430000000  0.4266330000000 1.0
C      1  0.4685280000000  0.6925570000000  0.5733670000000 1.0
C      1  0.5314720000000  0.3074430000000  0.5733670000000 1.0
C      1  0.5314720000000  0.6925570000000  0.4266330000000 1.0
C      1  0.4628450000000  0.3992520000000  0.4697730000000 1.0
C      1  0.4628450000000  0.6007480000000  0.5302270000000 1.0
C      1  0.5371550000000  0.3992520000000  0.5302270000000 1.0
C      1  0.5371550000000  0.6007480000000  0.4697730000000 1.0
C      1  0.3206590000000  0.4277200000000  0.5900170000000 1.0
C      1  0.3206590000000  0.5722800000000  0.4099830000000 1.0
C      1  0.6793410000000  0.4277200000000  0.4099830000000 1.0
C      1  0.6793410000000  0.5722800000000  0.5900170000000 1.0
C      1  0.5698010000000  0.6839190000000  0.3400160000000 1.0
C      1  0.5698010000000  0.3160810000000  0.6599840000000 1.0
C      1  0.4301990000000  0.6839190000000  0.6599840000000 1.0
C      1  0.4301990000000  0.3160810000000  0.3400160000000 1.0
C      1  0.3181850000000  0.6065590000000  0.5643020000000 1.0
C      1  0.3181850000000  0.3934410000000  0.4356980000000 1.0
C      1  0.6818150000000  0.6065590000000  0.4356980000000 1.0
C      1  0.6818150000000  0.3934410000000  0.5643020000000 1.0
C      1  0.5931670000000  0.6710830000000  0.6681410000000 1.0
C      1  0.5931670000000  0.3289170000000  0.3318590000000 1.0
C      1  0.4068330000000  0.6710830000000  0.3318590000000 1.0
C      1  0.4068330000000  0.3289170000000  0.6681410000000 1.0
C      1  0.6683800000000  0.6153770000000  0.6703390000000 1.0
C      1  0.6683800000000  0.3846230000000  0.3296610000000 1.0
C      1  0.3316200000000  0.6153770000000  0.3296610000000 1.0
C      1  0.3316200000000  0.3846230000000  0.6703390000000 1.0
END
