TITL C-2159255-4746-856 -0.00264558639781056 3375 -408.273885276024 0 0 60 (C4v) n - 1
REM
REM in /scratch/bkarasulu/871
REM
REM
REM
REM
REM
REM ./C.cell (a2850807a9bf4ad07a5b6933b78d9264)
REM AIRSS Version 0.9.1 bugfix July 2018 build 013d7b7c2542+ Fri, 06 Jul 2018 19:26:36 +0100
REM compiler GCC version 9.2.1 20190827 (Red Hat 9.2.1-1)
REM options -cpp -mtune=generic -march=x86-64 -g -O0 -fpre-include=/usr/include/finclude/math-vector-fortran.h
REM seed 1405692073 -1012148366 -1334681021 435192944 -1226567099 -1181465343 -203994147 1239142081 734006728 -799642163 -1164931416 1738347288 -1351788935 -620361924 -462798880 868866415 100825070 374825432 940256006 1558308972 779150372 1258203527 -1451049946 1979376526 6008179 -1713915011 1507199939 1734476119 1272811015 1892357170 -143737100 2133812788 -1472699706
REM
CELL 1.54180   15.00000   15.00000   15.00000   90.00000   90.00000   90.00000
LATT -1
SFAC C  
C      1  0.5492640000000  0.6821500000000  0.3475800000000 1.0
C      1  0.3178500000000  0.5492640000000  0.3475800000000 1.0
C      1  0.4507360000000  0.3178500000000  0.3475800000000 1.0
C      1  0.6821500000000  0.4507360000000  0.3475800000000 1.0
C      1  0.5492640000000  0.3178500000000  0.3475800000000 1.0
C      1  0.3178500000000  0.4507360000000  0.3475800000000 1.0
C      1  0.4507360000000  0.6821500000000  0.3475800000000 1.0
C      1  0.6821500000000  0.5492640000000  0.3475800000000 1.0
C      1  0.4500800000000  0.6956560000000  0.5013670000000 1.0
C      1  0.3043440000000  0.4500800000000  0.5013670000000 1.0
C      1  0.5499200000000  0.3043440000000  0.5013670000000 1.0
C      1  0.6956560000000  0.5499200000000  0.5013670000000 1.0
C      1  0.4500800000000  0.3043440000000  0.5013670000000 1.0
C      1  0.3043440000000  0.5499200000000  0.5013670000000 1.0
C      1  0.5499200000000  0.6956560000000  0.5013670000000 1.0
C      1  0.6956560000000  0.4500800000000  0.5013670000000 1.0
C      1  0.6153370000000  0.4504340000000  0.2772380000000 1.0
C      1  0.5495660000000  0.6153370000000  0.2772380000000 1.0
C      1  0.3846630000000  0.5495660000000  0.2772380000000 1.0
C      1  0.4504340000000  0.3846630000000  0.2772380000000 1.0
C      1  0.6153370000000  0.5495660000000  0.2772380000000 1.0
C      1  0.5495660000000  0.3846630000000  0.2772380000000 1.0
C      1  0.3846630000000  0.4504340000000  0.2772380000000 1.0
C      1  0.4504340000000  0.6153370000000  0.2772380000000 1.0
C      1  0.3360000000000  0.5952820000000  0.5764190000000 1.0
C      1  0.4047180000000  0.3360000000000  0.5764190000000 1.0
C      1  0.6640000000000  0.4047180000000  0.5764190000000 1.0
C      1  0.5952820000000  0.6640000000000  0.5764190000000 1.0
C      1  0.3360000000000  0.4047180000000  0.5764190000000 1.0
C      1  0.4047180000000  0.6640000000000  0.5764190000000 1.0
C      1  0.6640000000000  0.5952820000000  0.5764190000000 1.0
C      1  0.5952820000000  0.3360000000000  0.5764190000000 1.0
C      1  0.6714290000000  0.3999520000000  0.4238250000000 1.0
C      1  0.6000480000000  0.6714290000000  0.4238250000000 1.0
C      1  0.3285710000000  0.6000480000000  0.4238250000000 1.0
C      1  0.3999520000000  0.3285710000000  0.4238250000000 1.0
C      1  0.6714290000000  0.6000480000000  0.4238250000000 1.0
C      1  0.6000480000000  0.3285710000000  0.4238250000000 1.0
C      1  0.3285710000000  0.3999520000000  0.4238250000000 1.0
C      1  0.3999520000000  0.6714290000000  0.4238250000000 1.0
C      1  0.3861280000000  0.5472310000000  0.7555110000000 1.0
C      1  0.4527690000000  0.3861280000000  0.7555110000000 1.0
C      1  0.6138720000000  0.4527690000000  0.7555110000000 1.0
C      1  0.5472310000000  0.6138720000000  0.7555110000000 1.0
C      1  0.3861280000000  0.4527690000000  0.7555110000000 1.0
C      1  0.4527690000000  0.6138720000000  0.7555110000000 1.0
C      1  0.6138720000000  0.5472310000000  0.7555110000000 1.0
C      1  0.5472310000000  0.3861280000000  0.7555110000000 1.0
C      1  0.5483350000000  0.6215570000000  0.6504560000000 1.0
C      1  0.3784430000000  0.5483350000000  0.6504560000000 1.0
C      1  0.4516650000000  0.3784430000000  0.6504560000000 1.0
C      1  0.6215570000000  0.4516650000000  0.6504560000000 1.0
C      1  0.5483350000000  0.3784430000000  0.6504560000000 1.0
C      1  0.3784430000000  0.4516650000000  0.6504560000000 1.0
C      1  0.4516650000000  0.6215570000000  0.6504560000000 1.0
C      1  0.6215570000000  0.5483350000000  0.6504560000000 1.0
C      1  0.5448280000000  0.4551720000000  0.4707190000000 1.0
C      1  0.4551720000000  0.5448280000000  0.4707190000000 1.0
C      1  0.4551720000000  0.4551720000000  0.4707190000000 1.0
C      1  0.5448280000000  0.5448280000000  0.4707190000000 1.0
END
