TITL C-2159252-5904-31 -0.0014878454801748 3375 -404.175706827534 0 0 60 (C1) n - 1
REM
REM in /scratch/bkarasulu/870
REM
REM
REM
REM
REM
REM ./C.cell (a2850807a9bf4ad07a5b6933b78d9264)
REM AIRSS Version 0.9.1 bugfix July 2018 build 013d7b7c2542+ Fri, 06 Jul 2018 19:26:36 +0100
REM compiler GCC version 9.2.1 20190827 (Red Hat 9.2.1-1)
REM options -cpp -mtune=generic -march=x86-64 -g -O0 -fpre-include=/usr/include/finclude/math-vector-fortran.h
REM seed 1993437571 807493593 -1599948571 1319139951 -2051344823 -200446488 429929028 38415935 -1172210910 1313679853 -1080246757 -1793703900 -650649817 1715010066 783297562 1770633597 629435459 -558125359 1741712503 1315158250 575965290 626395615 1205651774 -428671753 13226008 174399714 -2021202130 -600642471 1351071187 -1745150068 1785052978 2007715160 1261017856
REM
CELL 1.54180   15.00000   15.00000   15.00000   90.00000   90.00000   90.00000
LATT -1
SFAC C  
C      1  0.4363770000000  0.3965170000000  0.2927110000000 1.0
C      1  0.3644800000000  0.3123080000000  0.4226790000000 1.0
C      1  0.3100000000000  0.4533740000000  0.3797770000000 1.0
C      1  0.5513700000000  0.6265130000000  0.3353570000000 1.0
C      1  0.4439200000000  0.6252630000000  0.6655380000000 1.0
C      1  0.5716630000000  0.3846510000000  0.7116050000000 1.0
C      1  0.6546260000000  0.6812280000000  0.4516570000000 1.0
C      1  0.3415940000000  0.6877900000000  0.5507800000000 1.0
C      1  0.6520740000000  0.3018070000000  0.5912160000000 1.0
C      1  0.6868880000000  0.5392150000000  0.3898920000000 1.0
C      1  0.3198330000000  0.5416350000000  0.6045290000000 1.0
C      1  0.6981630000000  0.4510400000000  0.6263500000000 1.0
C      1  0.3705870000000  0.4614550000000  0.3005700000000 1.0
C      1  0.2918560000000  0.3762590000000  0.4349080000000 1.0
C      1  0.4286500000000  0.3221560000000  0.3580530000000 1.0
C      1  0.6036050000000  0.5437800000000  0.3390510000000 1.0
C      1  0.6278830000000  0.4583510000000  0.6938730000000 1.0
C      1  0.3886630000000  0.5497120000000  0.6730070000000 1.0
C      1  0.7162330000000  0.6087070000000  0.4416710000000 1.0
C      1  0.7120520000000  0.3743380000000  0.5718520000000 1.0
C      1  0.2811440000000  0.6131000000000  0.5537580000000 1.0
C      1  0.5751520000000  0.6881090000000  0.4036330000000 1.0
C      1  0.5872730000000  0.3064620000000  0.6562380000000 1.0
C      1  0.4228090000000  0.6880630000000  0.5961400000000 1.0
C      1  0.6218740000000  0.4401960000000  0.3127830000000 1.0
C      1  0.4932460000000  0.3118640000000  0.6370820000000 1.0
C      1  0.2749190000000  0.6177230000000  0.4494380000000 1.0
C      1  0.3728420000000  0.5629960000000  0.3100760000000 1.0
C      1  0.5725610000000  0.5353640000000  0.6779980000000 1.0
C      1  0.4116810000000  0.4460370000000  0.6660670000000 1.0
C      1  0.5774840000000  0.6829940000000  0.5964430000000 1.0
C      1  0.4205190000000  0.6921080000000  0.4072070000000 1.0
C      1  0.5189540000000  0.3295790000000  0.3836140000000 1.0
C      1  0.7052250000000  0.3668420000000  0.4703230000000 1.0
C      1  0.3090120000000  0.3736920000000  0.5353270000000 1.0
C      1  0.7255220000000  0.6070480000000  0.5425290000000 1.0
C      1  0.4475440000000  0.6179560000000  0.3462920000000 1.0
C      1  0.3229040000000  0.4363200000000  0.6043380000000 1.0
C      1  0.6348790000000  0.3032980000000  0.4965930000000 1.0
C      1  0.5334040000000  0.4048870000000  0.3218120000000 1.0
C      1  0.5422150000000  0.6205650000000  0.6648690000000 1.0
C      1  0.4726110000000  0.3808180000000  0.7045820000000 1.0
C      1  0.6967140000000  0.5265440000000  0.5700110000000 1.0
C      1  0.6725560000000  0.4357610000000  0.4040380000000 1.0
C      1  0.2997630000000  0.5548050000000  0.3852440000000 1.0
C      1  0.3403090000000  0.6914780000000  0.4538060000000 1.0
C      1  0.3848330000000  0.3165590000000  0.5161830000000 1.0
C      1  0.6571110000000  0.6790250000000  0.5485090000000 1.0
C      1  0.5338160000000  0.4886790000000  0.3909770000000 1.0
C      1  0.3753930000000  0.5027450000000  0.4421620000000 1.0
C      1  0.5016100000000  0.7160160000000  0.5487500000000 1.0
C      1  0.5890720000000  0.4469470000000  0.4608610000000 1.0
C      1  0.3759930000000  0.4910960000000  0.5355490000000 1.0
C      1  0.6045510000000  0.5148120000000  0.5262250000000 1.0
C      1  0.4995410000000  0.7191840000000  0.4535570000000 1.0
C      1  0.5382050000000  0.5075390000000  0.5878100000000 1.0
C      1  0.4728110000000  0.3478090000000  0.5468660000000 1.0
C      1  0.4553180000000  0.5390260000000  0.4077970000000 1.0
C      1  0.4591360000000  0.4534860000000  0.5741630000000 1.0
C      1  0.5489770000000  0.3463710000000  0.4752730000000 1.0
END
