TITL C-2158988-7926-192 -0.0037761360507697 3375 -413.513780312337 0 0 60 (C1) n - 1
REM
REM in /scratch/bkarasulu/868
REM
REM
REM
REM
REM
REM ./C.cell (a2850807a9bf4ad07a5b6933b78d9264)
REM AIRSS Version 0.9.1 bugfix July 2018 build 013d7b7c2542+ Fri, 06 Jul 2018 19:26:36 +0100
REM compiler GCC version 9.2.1 20190827 (Red Hat 9.2.1-1)
REM options -cpp -mtune=generic -march=x86-64 -g -O0 -fpre-include=/usr/include/finclude/math-vector-fortran.h
REM seed 1511692653 -358321461 524562860 -1251826665 -2027282716 -173937029 -559394013 -185641840 -552212986 -111886136 -1825259225 -1946712493 371575407 -545819218 1491355829 1268541417 -1053796846 -899439852 1580870162 -2024795098 -1464178498 -1970520060 1673289807 764871731 17482636 -1913452154 759997004 113017905 735882878 -648233710 -1263402966 -826341792 2065351034
REM
CELL 1.54180   15.00000   15.00000   15.00000   90.00000   90.00000   90.00000
LATT -1
SFAC C  
C      1  0.6888830000000  0.3322570000000  0.4841350000000 1.0
C      1  0.6942970000000  0.3669300000000  0.3939690000000 1.0
C      1  0.6894250000000  0.4459560000000  0.3387980000000 1.0
C      1  0.6949190000000  0.5418100000000  0.3318970000000 1.0
C      1  0.6895220000000  0.6248860000000  0.3802080000000 1.0
C      1  0.6945130000000  0.6708940000000  0.4645610000000 1.0
C      1  0.6895290000000  0.6612200000000  0.5601560000000 1.0
C      1  0.6949280000000  0.6033970000000  0.6369150000000 1.0
C      1  0.6894370000000  0.5123750000000  0.6677500000000 1.0
C      1  0.6943060000000  0.4181340000000  0.6475630000000 1.0
C      1  0.6888840000000  0.3511930000000  0.5779130000000 1.0
C      1  0.5818640000000  0.3414050000000  0.2791380000000 1.0
C      1  0.5828480000000  0.4902810000000  0.2258110000000 1.0
C      1  0.5823600000000  0.6348440000000  0.2600730000000 1.0
C      1  0.5816690000000  0.7447060000000  0.3737670000000 1.0
C      1  0.5816740000000  0.7741570000000  0.5196100000000 1.0
C      1  0.5823730000000  0.7170130000000  0.6670200000000 1.0
C      1  0.5828660000000  0.5970680000000  0.7546900000000 1.0
C      1  0.5818810000000  0.4391640000000  0.7633140000000 1.0
C      1  0.5822510000000  0.3089070000000  0.6912980000000 1.0
C      1  0.5753670000000  0.2363460000000  0.5523040000000 1.0
C      1  0.5822420000000  0.2492900000000  0.3960480000000 1.0
C      1  0.4371150000000  0.6765210000000  0.5169720000000 1.0
C      1  0.4374760000000  0.6431090000000  0.6040790000000 1.0
C      1  0.4374860000000  0.5586360000000  0.6660560000000 1.0
C      1  0.4368420000000  0.4648890000000  0.6706180000000 1.0
C      1  0.4369090000000  0.3721270000000  0.6195310000000 1.0
C      1  0.4408150000000  0.3239570000000  0.5346220000000 1.0
C      1  0.4369030000000  0.3354070000000  0.4376760000000 1.0
C      1  0.4368320000000  0.4010820000000  0.3545980000000 1.0
C      1  0.4374760000000  0.4892530000000  0.3224250000000 1.0
C      1  0.4374700000000  0.5911540000000  0.3467700000000 1.0
C      1  0.4371120000000  0.6557460000000  0.4140890000000 1.0
C      1  0.4831040000000  0.2377610000000  0.5520210000000 1.0
C      1  0.4911200000000  0.2755140000000  0.3847500000000 1.0
C      1  0.4911820000000  0.3350140000000  0.3073230000000 1.0
C      1  0.4914300000000  0.5123060000000  0.2433450000000 1.0
C      1  0.4913270000000  0.6065970000000  0.2659560000000 1.0
C      1  0.4906820000000  0.7371810000000  0.4017470000000 1.0
C      1  0.4906850000000  0.7563650000000  0.4967490000000 1.0
C      1  0.4913410000000  0.6886960000000  0.6725630000000 1.0
C      1  0.4914470000000  0.6105650000000  0.7299880000000 1.0
C      1  0.4911960000000  0.4223400000000  0.7398230000000 1.0
C      1  0.4911300000000  0.3374610000000  0.6915460000000 1.0
C      1  0.6261220000000  0.5173370000000  0.7465270000000 1.0
C      1  0.6375480000000  0.3782710000000  0.7200240000000 1.0
C      1  0.6248990000000  0.2820160000000  0.6152070000000 1.0
C      1  0.6248980000000  0.2540270000000  0.4766080000000 1.0
C      1  0.6375350000000  0.3020760000000  0.3426570000000 1.0
C      1  0.6261050000000  0.4199660000000  0.2642720000000 1.0
C      1  0.6382590000000  0.5608260000000  0.2507910000000 1.0
C      1  0.6255230000000  0.6809280000000  0.3256760000000 1.0
C      1  0.6372690000000  0.7520740000000  0.4481720000000 1.0
C      1  0.6255340000000  0.7340340000000  0.5886750000000 1.0
C      1  0.6382720000000  0.6523930000000  0.7042910000000 1.0
C      1  0.3068960000000  0.4997420000000  0.4991310000000 1.0
C      1  0.3943250000000  0.5000280000000  0.4990710000000 1.0
C      1  0.5650630000000  0.5023290000000  0.4986010000000 1.0
C      1  0.2232100000000  0.4993130000000  0.4992210000000 1.0
C      1  0.4806940000000  0.4995630000000  0.4991630000000 1.0
END
