TITL C-2159255-4746-1165 -0.00295366482847262 3375 -425.164091246684 0 0 60 (C1) n - 1
REM
REM in /scratch/bkarasulu/871
REM
REM
REM
REM
REM
REM ./C.cell (a2850807a9bf4ad07a5b6933b78d9264)
REM AIRSS Version 0.9.1 bugfix July 2018 build 013d7b7c2542+ Fri, 06 Jul 2018 19:26:36 +0100
REM compiler GCC version 9.2.1 20190827 (Red Hat 9.2.1-1)
REM options -cpp -mtune=generic -march=x86-64 -g -O0 -fpre-include=/usr/include/finclude/math-vector-fortran.h
REM seed 716363430 205131830 1094370301 1221194714 781888020 -708812983 -982954054 1345867850 1254977553 -1978879071 -953297147 -1916930688 1452799223 1982262156 -268481215 -53833100 784639196 -1665032078 1039123430 2104735682 37093535 56829938 -1814912170 -223374626 208882898 1847406568 -1362530533 1342615637 2018137407 966775417 -279125119 1400258044 -1001104374
REM
CELL 1.54180   15.00000   15.00000   15.00000   90.00000   90.00000   90.00000
LATT -1
SFAC C  
C      1  0.5766860000000  0.4120530000000  0.7256250000000 1.0
C      1  0.5821750000000  0.5055560000000  0.7419880000000 1.0
C      1  0.5865390000000  0.6651170000000  0.6683370000000 1.0
C      1  0.5827850000000  0.7159230000000  0.5880310000000 1.0
C      1  0.5673570000000  0.7110310000000  0.4151880000000 1.0
C      1  0.5676470000000  0.6612130000000  0.3356850000000 1.0
C      1  0.5825340000000  0.5057570000000  0.2571850000000 1.0
C      1  0.5886520000000  0.4116380000000  0.2723980000000 1.0
C      1  0.5950330000000  0.2839840000000  0.3876790000000 1.0
C      1  0.6088920000000  0.2489500000000  0.4723260000000 1.0
C      1  0.5631560000000  0.2874060000000  0.6058500000000 1.0
C      1  0.6389380000000  0.3484030000000  0.5891690000000 1.0
C      1  0.6417330000000  0.4180960000000  0.6515070000000 1.0
C      1  0.6488380000000  0.5167150000000  0.6672740000000 1.0
C      1  0.6512090000000  0.6006220000000  0.6286490000000 1.0
C      1  0.6495820000000  0.6575090000000  0.5438490000000 1.0
C      1  0.6452860000000  0.6600900000000  0.4520420000000 1.0
C      1  0.6460570000000  0.6070350000000  0.3660560000000 1.0
C      1  0.6510270000000  0.5242040000000  0.3272920000000 1.0
C      1  0.6571590000000  0.4262990000000  0.3439610000000 1.0
C      1  0.6627490000000  0.3592890000000  0.4053700000000 1.0
C      1  0.6666400000000  0.3285420000000  0.4985520000000 1.0
C      1  0.5010980000000  0.7482880000000  0.5526470000000 1.0
C      1  0.4891990000000  0.7362190000000  0.4586070000000 1.0
C      1  0.4892620000000  0.6313020000000  0.2952030000000 1.0
C      1  0.4996230000000  0.5496080000000  0.2461980000000 1.0
C      1  0.5097300000000  0.3591730000000  0.2840630000000 1.0
C      1  0.5074690000000  0.3025980000000  0.3591200000000 1.0
C      1  0.5377330000000  0.2405570000000  0.5283080000000 1.0
C      1  0.4842160000000  0.3110200000000  0.6484940000000 1.0
C      1  0.4921090000000  0.3687340000000  0.7204810000000 1.0
C      1  0.5057480000000  0.5577510000000  0.7559760000000 1.0
C      1  0.5098980000000  0.6455510000000  0.7190630000000 1.0
C      1  0.3423930000000  0.5788250000000  0.3539740000000 1.0
C      1  0.3496160000000  0.5031770000000  0.3030450000000 1.0
C      1  0.3576380000000  0.4093550000000  0.3296120000000 1.0
C      1  0.3607340000000  0.3683250000000  0.4138000000000 1.0
C      1  0.3217990000000  0.4133950000000  0.4923670000000 1.0
C      1  0.3489760000000  0.3805730000000  0.5801040000000 1.0
C      1  0.3516590000000  0.4362960000000  0.6561170000000 1.0
C      1  0.3521470000000  0.5327200000000  0.6794600000000 1.0
C      1  0.3538840000000  0.6206420000000  0.6513310000000 1.0
C      1  0.3506450000000  0.6776110000000  0.5711120000000 1.0
C      1  0.3409200000000  0.6618020000000  0.4817490000000 1.0
C      1  0.4092240000000  0.6471390000000  0.3446860000000 1.0
C      1  0.4252330000000  0.4936460000000  0.2426720000000 1.0
C      1  0.4299930000000  0.4006270000000  0.2644830000000 1.0
C      1  0.4312370000000  0.3023530000000  0.4209150000000 1.0
C      1  0.4481350000000  0.2672920000000  0.5067620000000 1.0
C      1  0.4125100000000  0.3097490000000  0.5845050000000 1.0
C      1  0.4162830000000  0.4217420000000  0.7272670000000 1.0
C      1  0.4223920000000  0.5136220000000  0.7480560000000 1.0
C      1  0.4296630000000  0.6774460000000  0.6834570000000 1.0
C      1  0.4260630000000  0.7299210000000  0.6042980000000 1.0
C      1  0.4087380000000  0.6983180000000  0.4237110000000 1.0
C      1  0.6545640000000  0.5086590000000  0.4888470000000 1.0
C      1  0.3088560000000  0.5769400000000  0.4449420000000 1.0
C      1  0.5668050000000  0.5008450000000  0.4947460000000 1.0
C      1  0.2892310000000  0.4995620000000  0.4879810000000 1.0
C      1  0.4845150000000  0.5019140000000  0.5047930000000 1.0
END
