TITL C-2158984-8299-929 -0.00167006796879477 3375 -405.923577779955 0 0 60 (Ci) n - 1
REM
REM in /scratch/bkarasulu/869
REM
REM
REM
REM
REM
REM ./C.cell (a2850807a9bf4ad07a5b6933b78d9264)
REM AIRSS Version 0.9.1 bugfix July 2018 build 013d7b7c2542+ Fri, 06 Jul 2018 19:26:36 +0100
REM compiler GCC version 9.2.1 20190827 (Red Hat 9.2.1-1)
REM options -cpp -mtune=generic -march=x86-64 -g -O0 -fpre-include=/usr/include/finclude/math-vector-fortran.h
REM seed -1588408830 -1134479503 -866235373 -2129316627 -568241842 -1615456838 -992035336 -197885619 -1310498859 -417926113 1885859984 -1478844858 -1717497205 -472652828 738327151 -1376494443 -1772768643 811486155 121851884 -1822001631 -1441584267 -1049744647 -50654614 -1157696812 1371420314 -1411605484 -115863106 -458694333 927627261 -2054926408 -607452368 -300684963 1577974323
REM
CELL 1.54180   15.00000   15.00000   15.00000   90.00000   90.00000   90.00000
LATT -1
SFAC C  
C      1  0.6223610000000  0.5533320000000  0.5902380000000 1.0
C      1  0.3776390000000  0.4466680000000  0.4097620000000 1.0
C      1  0.4741680000000  0.6643930000000  0.3436390000000 1.0
C      1  0.5258320000000  0.3356070000000  0.6563610000000 1.0
C      1  0.5651230000000  0.3267000000000  0.3582410000000 1.0
C      1  0.4348770000000  0.6733000000000  0.6417590000000 1.0
C      1  0.4956750000000  0.4225630000000  0.2554710000000 1.0
C      1  0.5043250000000  0.5774370000000  0.7445290000000 1.0
C      1  0.3203590000000  0.4689260000000  0.6518940000000 1.0
C      1  0.6796410000000  0.5310740000000  0.3481060000000 1.0
C      1  0.5023220000000  0.7161720000000  0.4191470000000 1.0
C      1  0.4976780000000  0.2838280000000  0.5808530000000 1.0
C      1  0.4337660000000  0.7139070000000  0.4817090000000 1.0
C      1  0.5662340000000  0.2860930000000  0.5182910000000 1.0
C      1  0.2534240000000  0.3684470000000  0.5481460000000 1.0
C      1  0.7465760000000  0.6315530000000  0.4518540000000 1.0
C      1  0.4125800000000  0.4352030000000  0.6563200000000 1.0
C      1  0.5874200000000  0.5647970000000  0.3436800000000 1.0
C      1  0.7465500000000  0.4384560000000  0.4381150000000 1.0
C      1  0.2534500000000  0.5615440000000  0.5618850000000 1.0
C      1  0.4025460000000  0.5629070000000  0.5189130000000 1.0
C      1  0.5974540000000  0.4370930000000  0.4810870000000 1.0
C      1  0.4441000000000  0.5125080000000  0.3839800000000 1.0
C      1  0.5559000000000  0.4874920000000  0.6160200000000 1.0
C      1  0.3653530000000  0.6360240000000  0.4593730000000 1.0
C      1  0.6346470000000  0.3639760000000  0.5406270000000 1.0
C      1  0.3116980000000  0.5599580000000  0.6421860000000 1.0
C      1  0.6883020000000  0.4400420000000  0.3578140000000 1.0
C      1  0.3940600000000  0.3633550000000  0.3735300000000 1.0
C      1  0.6059400000000  0.6366450000000  0.6264700000000 1.0
C      1  0.5883190000000  0.6842410000000  0.4678620000000 1.0
C      1  0.4116810000000  0.3157590000000  0.5321380000000 1.0
C      1  0.5492970000000  0.6396970000000  0.3009700000000 1.0
C      1  0.4507030000000  0.3603030000000  0.6990300000000 1.0
C      1  0.4339410000000  0.3040760000000  0.4367520000000 1.0
C      1  0.5660590000000  0.6959240000000  0.5632480000000 1.0
C      1  0.5932010000000  0.3956820000000  0.6289490000000 1.0
C      1  0.4067990000000  0.6043180000000  0.3710510000000 1.0
C      1  0.3162240000000  0.3095160000000  0.5504180000000 1.0
C      1  0.6837760000000  0.6904840000000  0.4495820000000 1.0
C      1  0.5140270000000  0.3314310000000  0.2775980000000 1.0
C      1  0.4859730000000  0.6685690000000  0.7224020000000 1.0
C      1  0.5720150000000  0.6380040000000  0.7173310000000 1.0
C      1  0.4279850000000  0.3619960000000  0.2826690000000 1.0
C      1  0.5945010000000  0.4168390000000  0.3836460000000 1.0
C      1  0.4054990000000  0.5831610000000  0.6163540000000 1.0
C      1  0.3611010000000  0.4697190000000  0.5044100000000 1.0
C      1  0.6388990000000  0.5302810000000  0.4955900000000 1.0
C      1  0.2778600000000  0.6175270000000  0.4945010000000 1.0
C      1  0.7221400000000  0.3824730000000  0.5054990000000 1.0
C      1  0.5276980000000  0.4810910000000  0.3342390000000 1.0
C      1  0.4723020000000  0.5189090000000  0.6657610000000 1.0
C      1  0.5130420000000  0.4605870000000  0.5267040000000 1.0
C      1  0.4869580000000  0.5394130000000  0.4732960000000 1.0
C      1  0.4741710000000  0.7163050000000  0.5689630000000 1.0
C      1  0.5258290000000  0.2836950000000  0.4310370000000 1.0
C      1  0.2783090000000  0.4609030000000  0.5588750000000 1.0
C      1  0.7216910000000  0.5390970000000  0.4411250000000 1.0
C      1  0.4278170000000  0.4156870000000  0.5533040000000 1.0
C      1  0.5721830000000  0.5843130000000  0.4466960000000 1.0
END
