TITL C-2159255-4746-356 -0.00330212901312185 3375 -428.811783102473 0 0 60 (D5h) n - 1
REM
REM in /scratch/bkarasulu/871
REM
REM
REM
REM
REM
REM ./C.cell (a2850807a9bf4ad07a5b6933b78d9264)
REM AIRSS Version 0.9.1 bugfix July 2018 build 013d7b7c2542+ Fri, 06 Jul 2018 19:26:36 +0100
REM compiler GCC version 9.2.1 20190827 (Red Hat 9.2.1-1)
REM options -cpp -mtune=generic -march=x86-64 -g -O0 -fpre-include=/usr/include/finclude/math-vector-fortran.h
REM seed -1421256353 1385999136 333196105 1800354498 -1584633285 -1398475200 813506211 739176356 1570417369 678865126 1831396690 994518982 1226847460 388507106 -1628282873 -1911011460 1616740274 -407995454 1932730583 -1211267041 -769933045 546071750 1759144469 -158150077 613796120 -1531833683 1974936094 1818733699 983907693 -1982227804 1661104972 1939827 -1643837188
REM
CELL 1.54180   15.00000   15.00000   15.00000   90.00000   90.00000   90.00000
LATT -1
SFAC C  
C      1  0.2828460000000  0.5973890000000  0.4057430000000 1.0
C      1  0.3402740000000  0.3235700000000  0.4057440000000 1.0
C      1  0.6184360000000  0.2935700000000  0.4057440000000 1.0
C      1  0.7329270000000  0.5488490000000  0.4057440000000 1.0
C      1  0.5255180000000  0.7366230000000  0.4057430000000 1.0
C      1  0.2828460000000  0.5973890000000  0.5942570000000 1.0
C      1  0.3402740000000  0.3235700000000  0.5942560000000 1.0
C      1  0.6184360000000  0.2935700000000  0.5942560000000 1.0
C      1  0.7329270000000  0.5488500000000  0.5942560000000 1.0
C      1  0.5255180000000  0.7366230000000  0.5942570000000 1.0
C      1  0.4282790000000  0.4565570000000  0.6644410000000 1.0
C      1  0.5191540000000  0.4183640000000  0.6644410000000 1.0
C      1  0.5835600000000  0.4929890000000  0.6644400000000 1.0
C      1  0.5324890000000  0.5773030000000  0.6644410000000 1.0
C      1  0.4365200000000  0.5547870000000  0.6644410000000 1.0
C      1  0.4282790000000  0.4565570000000  0.3355590000000 1.0
C      1  0.5191540000000  0.4183640000000  0.3355590000000 1.0
C      1  0.5835600000000  0.4929890000000  0.3355600000000 1.0
C      1  0.5324890000000  0.5773030000000  0.3355590000000 1.0
C      1  0.4365200000000  0.5547870000000  0.3355590000000 1.0
C      1  0.7769920000000  0.4767610000000  0.5469750000000 1.0
C      1  0.6076950000000  0.7562520000000  0.5469750000000 1.0
C      1  0.2895720000000  0.6816090000000  0.5469750000000 1.0
C      1  0.2622530000000  0.3559920000000  0.5469750000000 1.0
C      1  0.5634920000000  0.2293840000000  0.5469750000000 1.0
C      1  0.7769920000000  0.4767610000000  0.4530250000000 1.0
C      1  0.6076950000000  0.7562520000000  0.4530250000000 1.0
C      1  0.2895720000000  0.6816090000000  0.4530250000000 1.0
C      1  0.2622520000000  0.3559920000000  0.4530250000000 1.0
C      1  0.5634920000000  0.2293840000000  0.4530250000000 1.0
C      1  0.3671220000000  0.6146810000000  0.3586480000000 1.0
C      1  0.3498700000000  0.4090640000000  0.3586480000000 1.0
C      1  0.5400930000000  0.3291160000000  0.3586480000000 1.0
C      1  0.6749100000000  0.4853250000000  0.3586490000000 1.0
C      1  0.5680060000000  0.6618150000000  0.3586480000000 1.0
C      1  0.3671220000000  0.6146810000000  0.6413520000000 1.0
C      1  0.3498700000000  0.4090640000000  0.6413520000000 1.0
C      1  0.5400930000000  0.3291160000000  0.6413520000000 1.0
C      1  0.6749100000000  0.4853250000000  0.6413510000000 1.0
C      1  0.5680060000000  0.6618150000000  0.6413520000000 1.0
C      1  0.4052660000000  0.2745900000000  0.4503010000000 1.0
C      1  0.6851000000000  0.3402480000000  0.4503020000000 1.0
C      1  0.7091320000000  0.6266750000000  0.4503020000000 1.0
C      1  0.4441490000000  0.7380460000000  0.4503010000000 1.0
C      1  0.2563460000000  0.5204420000000  0.4503010000000 1.0
C      1  0.4052660000000  0.2745900000000  0.5496990000000 1.0
C      1  0.6851000000000  0.3402480000000  0.5496980000000 1.0
C      1  0.7091320000000  0.6266750000000  0.5496980000000 1.0
C      1  0.4441490000000  0.7380460000000  0.5496990000000 1.0
C      1  0.2563460000000  0.5204420000000  0.5496990000000 1.0
C      1  0.6511770000000  0.6838090000000  0.4057450000000 1.0
C      1  0.3719040000000  0.7005780000000  0.4057440000000 1.0
C      1  0.2696540000000  0.4401560000000  0.4057430000000 1.0
C      1  0.4857350000000  0.2624330000000  0.4057430000000 1.0
C      1  0.7215300000000  0.4130220000000  0.4057440000000 1.0
C      1  0.6511770000000  0.6838090000000  0.5942560000000 1.0
C      1  0.3719040000000  0.7005780000000  0.5942560000000 1.0
C      1  0.2696540000000  0.4401560000000  0.5942570000000 1.0
C      1  0.4857350000000  0.2624330000000  0.5942570000000 1.0
C      1  0.7215300000000  0.4130220000000  0.5942560000000 1.0
END
