TITL C-2159255-4746-90 -0.00182422421601061 3375 -391.4253979821 0 0 60 (C3) n - 1
REM
REM in /scratch/bkarasulu/871
REM
REM
REM
REM
REM
REM ./C.cell (a2850807a9bf4ad07a5b6933b78d9264)
REM AIRSS Version 0.9.1 bugfix July 2018 build 013d7b7c2542+ Fri, 06 Jul 2018 19:26:36 +0100
REM compiler GCC version 9.2.1 20190827 (Red Hat 9.2.1-1)
REM options -cpp -mtune=generic -march=x86-64 -g -O0 -fpre-include=/usr/include/finclude/math-vector-fortran.h
REM seed 710981089 -532866112 1418496417 1288349502 776908319 -1896293028 -347143705 -233612206 -1573683226 996558621 915477224 -891732725 2142686922 -806711434 -944785694 -1102619652 1542454846 2001866808 922453851 747964913 -1699804748 1434981375 1606635708 -1317619425 -1285735171 775043134 935330721 -1760888056 2142742507 -96372677 -704573835 1501584966 530675330
REM
CELL 1.54180   15.00000   15.00000   15.00000   90.00000   90.00000   90.00000
LATT -1
SFAC C  
C      1  0.4115450000000  0.5831990000000  0.3133390000000 1.0
C      1  0.4115480000000  0.6200540000000  0.6653840000000 1.0
C      1  0.4115450000000  0.2967470000000  0.5212800000000 1.0
C      1  0.6504340000000  0.6238140000000  0.4397470000000 1.0
C      1  0.6504350000000  0.4902710000000  0.6373520000000 1.0
C      1  0.6504330000000  0.3859120000000  0.4228980000000 1.0
C      1  0.3962350000000  0.6664640000000  0.3466780000000 1.0
C      1  0.3962360000000  0.5495510000000  0.7208260000000 1.0
C      1  0.3962320000000  0.2839860000000  0.4325010000000 1.0
C      1  0.4548870000000  0.3433190000000  0.6650370000000 1.0
C      1  0.4548850000000  0.4354150000000  0.2817900000000 1.0
C      1  0.4548870000000  0.7212680000000  0.5531720000000 1.0
C      1  0.6205910000000  0.4019980000000  0.6772910000000 1.0
C      1  0.6205880000000  0.3954610000000  0.3264810000000 1.0
C      1  0.6205900000000  0.7025400000000  0.4962250000000 1.0
C      1  0.2258830000000  0.4490040000000  0.4776930000000 1.0
C      1  0.2258830000000  0.5448200000000  0.4669910000000 1.0
C      1  0.2258840000000  0.5061800000000  0.5553220000000 1.0
C      1  0.6294200000000  0.6092170000000  0.3430040000000 1.0
C      1  0.6294220000000  0.5813530000000  0.6730820000000 1.0
C      1  0.6294190000000  0.3094280000000  0.4839110000000 1.0
C      1  0.7060900000000  0.5452780000000  0.3257220000000 1.0
C      1  0.7060920000000  0.6282880000000  0.6263490000000 1.0
C      1  0.7060900000000  0.3264280000000  0.5479240000000 1.0
C      1  0.3730100000000  0.6820530000000  0.5192350000000 1.0
C      1  0.3730100000000  0.3923180000000  0.6480470000000 1.0
C      1  0.3730080000000  0.4256310000000  0.3327210000000 1.0
C      1  0.6416030000000  0.4804150000000  0.2926230000000 1.0
C      1  0.6416050000000  0.6893850000000  0.5867260000000 1.0
C      1  0.6416040000000  0.3301980000000  0.6206470000000 1.0
C      1  0.3654100000000  0.3840870000000  0.5474380000000 1.0
C      1  0.3654090000000  0.5168760000000  0.3758980000000 1.0
C      1  0.3654110000000  0.5990380000000  0.5766670000000 1.0
C      1  0.4779760000000  0.5338200000000  0.2703540000000 1.0
C      1  0.4779790000000  0.6819680000000  0.6441120000000 1.0
C      1  0.4779760000000  0.2842120000000  0.5855340000000 1.0
C      1  0.6043770000000  0.4675590000000  0.4535250000000 1.0
C      1  0.6043780000000  0.5564680000000  0.4951430000000 1.0
C      1  0.6043790000000  0.4759720000000  0.5513310000000 1.0
C      1  0.5644150000000  0.6401750000000  0.6291160000000 1.0
C      1  0.5644130000000  0.3180940000000  0.5568360000000 1.0
C      1  0.5644130000000  0.5417300000000  0.3140460000000 1.0
C      1  0.4445320000000  0.5482120000000  0.5298950000000 1.0
C      1  0.4445310000000  0.4500040000000  0.5268050000000 1.0
C      1  0.4445310000000  0.5017850000000  0.4433000000000 1.0
C      1  0.3002020000000  0.5302800000000  0.6055170000000 1.0
C      1  0.3002010000000  0.3934830000000  0.4734660000000 1.0
C      1  0.3002010000000  0.5762410000000  0.4210210000000 1.0
C      1  0.3505740000000  0.4810500000000  0.6763210000000 1.0
C      1  0.3505720000000  0.3567790000000  0.3954300000000 1.0
C      1  0.3505740000000  0.6621730000000  0.4282530000000 1.0
C      1  0.7286330000000  0.3918840000000  0.4863340000000 1.0
C      1  0.7286340000000  0.5658890000000  0.4132030000000 1.0
C      1  0.7286350000000  0.5422220000000  0.6004590000000 1.0
C      1  0.5247780000000  0.6935860000000  0.4984210000000 1.0
C      1  0.5247790000000  0.4045750000000  0.6684390000000 1.0
C      1  0.5247760000000  0.4018400000000  0.3331390000000 1.0
C      1  0.5294060000000  0.4201380000000  0.5645280000000 1.0
C      1  0.5294050000000  0.4840480000000  0.3985730000000 1.0
C      1  0.5294060000000  0.5958140000000  0.5368980000000 1.0
END
