TITL C-2158988-7926-954 -0.00349157582397805 3375 -409.108044659351 0 0 60 (C1) n - 1
REM
REM in /scratch/bkarasulu/868
REM
REM
REM
REM
REM
REM ./C.cell (a2850807a9bf4ad07a5b6933b78d9264)
REM AIRSS Version 0.9.1 bugfix July 2018 build 013d7b7c2542+ Fri, 06 Jul 2018 19:26:36 +0100
REM compiler GCC version 9.2.1 20190827 (Red Hat 9.2.1-1)
REM options -cpp -mtune=generic -march=x86-64 -g -O0 -fpre-include=/usr/include/finclude/math-vector-fortran.h
REM seed -694419514 -1022329809 -1776943913 1646520555 -213257815 264951999 770828584 -162101568 -507240894 1867417617 1603635573 1348242331 1372196781 1836133762 588948068 -23870434 -182883906 -1978590756 -1207080501 1438494304 472815891 -900487206 115487940 -117203578 1066601437 -857735495 -1901763778 1034151131 -876046993 331408934 -502787794 473041205 -682657925
REM
CELL 1.54180   15.00000   15.00000   15.00000   90.00000   90.00000   90.00000
LATT -1
SFAC C  
C      1  0.5660850000000  0.6286720000000  0.3391180000000 1.0
C      1  0.6413340000000  0.6285260000000  0.4010080000000 1.0
C      1  0.6725320000000  0.6333450000000  0.4946490000000 1.0
C      1  0.6458860000000  0.6289550000000  0.5892780000000 1.0
C      1  0.5743220000000  0.6338830000000  0.6563840000000 1.0
C      1  0.4773250000000  0.6293030000000  0.6715940000000 1.0
C      1  0.3865380000000  0.6341830000000  0.6344140000000 1.0
C      1  0.3323850000000  0.6293430000000  0.5525190000000 1.0
C      1  0.3284100000000  0.6343650000000  0.4544500000000 1.0
C      1  0.3804410000000  0.6292560000000  0.3711930000000 1.0
C      1  0.4681920000000  0.6339640000000  0.3266370000000 1.0
C      1  0.4326750000000  0.3759870000000  0.6569730000000 1.0
C      1  0.3554660000000  0.3763770000000  0.5933580000000 1.0
C      1  0.3277320000000  0.3763670000000  0.5056340000000 1.0
C      1  0.3540820000000  0.3766840000000  0.4089310000000 1.0
C      1  0.4230440000000  0.3766030000000  0.3471350000000 1.0
C      1  0.5216860000000  0.3778080000000  0.3282590000000 1.0
C      1  0.6109750000000  0.3789350000000  0.3610060000000 1.0
C      1  0.6600570000000  0.3769650000000  0.4424700000000 1.0
C      1  0.6614180000000  0.3751060000000  0.5432470000000 1.0
C      1  0.6143450000000  0.3750680000000  0.6231320000000 1.0
C      1  0.5241470000000  0.3753940000000  0.6673860000000 1.0
C      1  0.4538460000000  0.5755540000000  0.2463510000000 1.0
C      1  0.5950660000000  0.5628530000000  0.2688580000000 1.0
C      1  0.7044940000000  0.5625970000000  0.3589090000000 1.0
C      1  0.7541930000000  0.5750750000000  0.4932010000000 1.0
C      1  0.7103260000000  0.5628490000000  0.6287240000000 1.0
C      1  0.6100010000000  0.5748190000000  0.7296780000000 1.0
C      1  0.4685970000000  0.5627340000000  0.7461650000000 1.0
C      1  0.3349390000000  0.5750640000000  0.6972990000000 1.0
C      1  0.2612340000000  0.5625030000000  0.5754350000000 1.0
C      1  0.2498560000000  0.5749600000000  0.4337280000000 1.0
C      1  0.3295620000000  0.5629010000000  0.3159020000000 1.0
C      1  0.2247360000000  0.5185460000000  0.5039890000000 1.0
C      1  0.2626620000000  0.5189080000000  0.3600410000000 1.0
C      1  0.3797480000000  0.5188240000000  0.2530340000000 1.0
C      1  0.5263330000000  0.5198060000000  0.2262330000000 1.0
C      1  0.6707290000000  0.5132810000000  0.2884020000000 1.0
C      1  0.7595150000000  0.5193280000000  0.4180960000000 1.0
C      1  0.7618780000000  0.5182540000000  0.5673080000000 1.0
C      1  0.6797650000000  0.5185510000000  0.7026690000000 1.0
C      1  0.5457390000000  0.5184950000000  0.7678690000000 1.0
C      1  0.3884700000000  0.5187780000000  0.7495670000000 1.0
C      1  0.2733460000000  0.5188630000000  0.6549190000000 1.0
C      1  0.6501910000000  0.4267320000000  0.7004650000000 1.0
C      1  0.5627350000000  0.4269210000000  0.7429130000000 1.0
C      1  0.3771880000000  0.4269260000000  0.7224660000000 1.0
C      1  0.3020850000000  0.4269680000000  0.6608080000000 1.0
C      1  0.2446760000000  0.4266280000000  0.4820240000000 1.0
C      1  0.2695910000000  0.4266630000000  0.3882430000000 1.0
C      1  0.4083450000000  0.4274650000000  0.2624920000000 1.0
C      1  0.5043590000000  0.4276220000000  0.2452720000000 1.0
C      1  0.6685790000000  0.4202750000000  0.2909260000000 1.0
C      1  0.7439830000000  0.4274650000000  0.4434530000000 1.0
C      1  0.7459550000000  0.4271260000000  0.5411420000000 1.0
C      1  0.4999590000000  0.4692160000000  0.4992680000000 1.0
C      1  0.4964280000000  0.5536680000000  0.4987670000000 1.0
C      1  0.4972770000000  0.6431210000000  0.4986520000000 1.0
C      1  0.4979060000000  0.7259560000000  0.4988730000000 1.0
C      1  0.5069200000000  0.3797610000000  0.5036850000000 1.0
END
