TITL C-2159252-5904-11 -0.00241510691639632 3375 -396.847054330022 0 0 60 (C2) n - 1
REM
REM in /scratch/bkarasulu/870
REM
REM
REM
REM
REM
REM ./C.cell (a2850807a9bf4ad07a5b6933b78d9264)
REM AIRSS Version 0.9.1 bugfix July 2018 build 013d7b7c2542+ Fri, 06 Jul 2018 19:26:36 +0100
REM compiler GCC version 9.2.1 20190827 (Red Hat 9.2.1-1)
REM options -cpp -mtune=generic -march=x86-64 -g -O0 -fpre-include=/usr/include/finclude/math-vector-fortran.h
REM seed -762356724 -269705857 -2027165455 -2104747529 -141171085 233494851 -954298018 -1599345079 -571614833 -1024743303 494490109 1615708902 552764938 1536541865 1529669219 -226948265 488629575 2115225328 1842270472 478675595 1666662132 1175958161 -1224953879 254099283 -2057699744 1349153121 1961655818 267465637 -983527338 -263376238 866755400 1173864047 -1144769375
REM
CELL 1.54180   15.00000   15.00000   15.00000   90.00000   90.00000   90.00000
LATT -1
SFAC C  
C      1  0.5821370000000  0.3007450000000  0.4701790000000 1.0
C      1  0.3206990000000  0.5315460000000  0.4670150000000 1.0
C      1  0.6233490000000  0.6599860000000  0.4529920000000 1.0
C      1  0.5821390000000  0.6992530000000  0.5298200000000 1.0
C      1  0.3206990000000  0.4684540000000  0.5329850000000 1.0
C      1  0.6233490000000  0.3400120000000  0.5470070000000 1.0
C      1  0.4397740000000  0.3487940000000  0.5655230000000 1.0
C      1  0.4180760000000  0.6175950000000  0.5773880000000 1.0
C      1  0.6199390000000  0.5207230000000  0.5669220000000 1.0
C      1  0.4397740000000  0.6512060000000  0.4344770000000 1.0
C      1  0.4180760000000  0.3824050000000  0.4226120000000 1.0
C      1  0.6199420000000  0.4792750000000  0.4330770000000 1.0
C      1  0.6969780000000  0.4506040000000  0.6839410000000 1.0
C      1  0.3219020000000  0.3194350000000  0.6678270000000 1.0
C      1  0.4565450000000  0.7293890000000  0.6841460000000 1.0
C      1  0.6969790000000  0.5493960000000  0.3160590000000 1.0
C      1  0.3219030000000  0.6805660000000  0.3321740000000 1.0
C      1  0.4565420000000  0.2706100000000  0.3158530000000 1.0
C      1  0.6049150000000  0.3185530000000  0.3815630000000 1.0
C      1  0.3346770000000  0.5144910000000  0.3706160000000 1.0
C      1  0.5909330000000  0.6652590000000  0.3658060000000 1.0
C      1  0.6049170000000  0.6814450000000  0.6184370000000 1.0
C      1  0.3346770000000  0.4855090000000  0.6293840000000 1.0
C      1  0.5909330000000  0.3347400000000  0.6341930000000 1.0
C      1  0.4064070000000  0.4548280000000  0.3526870000000 1.0
C      1  0.4986220000000  0.6384390000000  0.3554820000000 1.0
C      1  0.6160840000000  0.4118070000000  0.3569050000000 1.0
C      1  0.4064070000000  0.5451720000000  0.6473140000000 1.0
C      1  0.4986210000000  0.3615600000000  0.6445170000000 1.0
C      1  0.6160840000000  0.5881910000000  0.6430940000000 1.0
C      1  0.5027240000000  0.6316880000000  0.5135460000000 1.0
C      1  0.5852160000000  0.4332040000000  0.5161420000000 1.0
C      1  0.3719550000000  0.3981660000000  0.5075710000000 1.0
C      1  0.5027240000000  0.3683140000000  0.4864540000000 1.0
C      1  0.5852140000000  0.5667950000000  0.4838570000000 1.0
C      1  0.3719560000000  0.6018330000000  0.4924290000000 1.0
C      1  0.3624370000000  0.2233520000000  0.4483090000000 1.0
C      1  0.3443430000000  0.7870950000000  0.4686500000000 1.0
C      1  0.7877710000000  0.5091340000000  0.4580680000000 1.0
C      1  0.3624380000000  0.7766480000000  0.5516920000000 1.0
C      1  0.3443410000000  0.2129040000000  0.5313510000000 1.0
C      1  0.7877720000000  0.4908780000000  0.5419360000000 1.0
C      1  0.3685490000000  0.7208200000000  0.4057700000000 1.0
C      1  0.7162050000000  0.5128370000000  0.4009570000000 1.0
C      1  0.4028360000000  0.2839620000000  0.3904160000000 1.0
C      1  0.3685480000000  0.2791800000000  0.5942300000000 1.0
C      1  0.7162040000000  0.4871670000000  0.5990440000000 1.0
C      1  0.4028360000000  0.7160380000000  0.6095840000000 1.0
C      1  0.4829850000000  0.4769120000000  0.3002060000000 1.0
C      1  0.5231290000000  0.5634290000000  0.2996720000000 1.0
C      1  0.5480860000000  0.4070260000000  0.2914280000000 1.0
C      1  0.4829850000000  0.5230870000000  0.6997940000000 1.0
C      1  0.5231290000000  0.4365700000000  0.7003280000000 1.0
C      1  0.5480860000000  0.5929730000000  0.7085720000000 1.0
C      1  0.5342710000000  0.6859440000000  0.6864350000000 1.0
C      1  0.6175030000000  0.4108660000000  0.6929040000000 1.0
C      1  0.3209540000000  0.4046450000000  0.6717150000000 1.0
C      1  0.5342680000000  0.3140550000000  0.3135640000000 1.0
C      1  0.6175030000000  0.5891330000000  0.3070960000000 1.0
C      1  0.3209540000000  0.5953560000000  0.3282850000000 1.0
END
