TITL C-2158988-7926-191 -0.00304462865744548 3375 -424.591743560953 0 0 60 (Cs) n - 1
REM
REM in /scratch/bkarasulu/868
REM
REM
REM
REM
REM
REM ./C.cell (a2850807a9bf4ad07a5b6933b78d9264)
REM AIRSS Version 0.9.1 bugfix July 2018 build 013d7b7c2542+ Fri, 06 Jul 2018 19:26:36 +0100
REM compiler GCC version 9.2.1 20190827 (Red Hat 9.2.1-1)
REM options -cpp -mtune=generic -march=x86-64 -g -O0 -fpre-include=/usr/include/finclude/math-vector-fortran.h
REM seed 1399628278 1014308779 1023195423 -105395523 667340659 1391177009 -1369534510 -1224041966 1003446246 -820952226 -1729956862 -725636796 2025195530 -1859140665 -226839014 1300199822 827158587 -714163621 495316522 6946596 -1944978692 -666553179 -1989757648 -2045474439 520155222 1587226468 -240878179 -1528280749 -892915021 1746969192 -1067824277 -2024137979 -906728004
REM
CELL 1.54180   15.00000   15.00000   15.00000   90.00000   90.00000   90.00000
LATT -1
SFAC C  
C      1  0.2875610000000  0.4821700000000  0.6855670000000 1.0
C      1  0.4204260000000  0.5085780000000  0.7442170000000 1.0
C      1  0.5837000000000  0.5045640000000  0.7469410000000 1.0
C      1  0.7162040000000  0.4761750000000  0.6878050000000 1.0
C      1  0.7562850000000  0.5046420000000  0.5483670000000 1.0
C      1  0.7308280000000  0.5087180000000  0.3870680000000 1.0
C      1  0.6542430000000  0.4823360000000  0.2636620000000 1.0
C      1  0.5099390000000  0.5061100000000  0.2423280000000 1.0
C      1  0.3530480000000  0.4991630000000  0.2736860000000 1.0
C      1  0.2555000000000  0.4991190000000  0.3859240000000 1.0
C      1  0.2463110000000  0.5059910000000  0.5456560000000 1.0
C      1  0.3275250000000  0.3876110000000  0.4759920000000 1.0
C      1  0.3378220000000  0.3769260000000  0.5740550000000 1.0
C      1  0.4056580000000  0.3769340000000  0.6524470000000 1.0
C      1  0.5008630000000  0.3878890000000  0.6750410000000 1.0
C      1  0.5958370000000  0.3745370000000  0.6525190000000 1.0
C      1  0.6645260000000  0.3745670000000  0.5734870000000 1.0
C      1  0.6735860000000  0.3879670000000  0.4763070000000 1.0
C      1  0.6379470000000  0.3770400000000  0.3851750000000 1.0
C      1  0.5508650000000  0.3770220000000  0.3289290000000 1.0
C      1  0.4523190000000  0.3876680000000  0.3324050000000 1.0
C      1  0.3672400000000  0.3832550000000  0.3844830000000 1.0
C      1  0.3079850000000  0.4429860000000  0.3330080000000 1.0
C      1  0.2588350000000  0.4590430000000  0.4679300000000 1.0
C      1  0.2669680000000  0.4375810000000  0.6079970000000 1.0
C      1  0.3621080000000  0.4388340000000  0.7175730000000 1.0
C      1  0.5013670000000  0.4659730000000  0.7388410000000 1.0
C      1  0.6406030000000  0.4338170000000  0.7188780000000 1.0
C      1  0.7364540000000  0.4338600000000  0.6085930000000 1.0
C      1  0.7368030000000  0.4660790000000  0.4679490000000 1.0
C      1  0.6963420000000  0.4389850000000  0.3330010000000 1.0
C      1  0.5745770000000  0.4377200000000  0.2540620000000 1.0
C      1  0.4347350000000  0.4591230000000  0.2655420000000 1.0
C      1  0.4062030000000  0.6416470000000  0.3536360000000 1.0
C      1  0.3420240000000  0.6416180000000  0.4274810000000 1.0
C      1  0.3493950000000  0.6449910000000  0.5206150000000 1.0
C      1  0.4321000000000  0.6751280000000  0.5599610000000 1.0
C      1  0.4566810000000  0.6464580000000  0.6495110000000 1.0
C      1  0.5529850000000  0.6473450000000  0.6572050000000 1.0
C      1  0.5862160000000  0.6810950000000  0.5749140000000 1.0
C      1  0.6630860000000  0.6473940000000  0.5305230000000 1.0
C      1  0.6420450000000  0.6465420000000  0.4362300000000 1.0
C      1  0.5499320000000  0.6751810000000  0.4243830000000 1.0
C      1  0.4994540000000  0.6450600000000  0.3479550000000 1.0
C      1  0.3092270000000  0.5762610000000  0.6649480000000 1.0
C      1  0.3959040000000  0.5935630000000  0.7006680000000 1.0
C      1  0.6111520000000  0.5904020000000  0.7079570000000 1.0
C      1  0.6977920000000  0.5722490000000  0.6718420000000 1.0
C      1  0.7214730000000  0.5904520000000  0.5810220000000 1.0
C      1  0.6842520000000  0.5936930000000  0.3688930000000 1.0
C      1  0.6368080000000  0.5764100000000  0.2880320000000 1.0
C      1  0.5434640000000  0.5912380000000  0.2799860000000 1.0
C      1  0.3439350000000  0.5908340000000  0.2990940000000 1.0
C      1  0.2793540000000  0.5908050000000  0.3734010000000 1.0
C      1  0.2882440000000  0.5911220000000  0.5736430000000 1.0
C      1  0.5148340000000  0.6961710000000  0.5128810000000 1.0
C      1  0.5003060000000  0.4007100000000  0.5001380000000 1.0
C      1  0.5006610000000  0.4910160000000  0.5004820000000 1.0
C      1  0.5004970000000  0.3159730000000  0.5002710000000 1.0
C      1  0.4996350000000  0.2291830000000  0.4994880000000 1.0
END
