TITL C-2159252-5904-297 -0.0017843063327996 3375 -405.549766217878 0 0 60 (C1) n - 1
REM
REM in /scratch/bkarasulu/870
REM
REM
REM
REM
REM
REM ./C.cell (a2850807a9bf4ad07a5b6933b78d9264)
REM AIRSS Version 0.9.1 bugfix July 2018 build 013d7b7c2542+ Fri, 06 Jul 2018 19:26:36 +0100
REM compiler GCC version 9.2.1 20190827 (Red Hat 9.2.1-1)
REM options -cpp -mtune=generic -march=x86-64 -g -O0 -fpre-include=/usr/include/finclude/math-vector-fortran.h
REM seed 1470452930 -1282471658 1551749357 -1529471449 -463244575 232160043 14657570 1244248356 629954900 2058166118 1228882335 1081989711 1247312866 -26686564 603729530 -1204544808 683926720 1680589286 1529530295 677126450 1492844864 -1286451355 -1297628288 1484971551 -1526199905 1966720578 -1499396616 -17472302 1915615517 -725442350 1230101673 -2140811498 1716289165
REM
CELL 1.54180   15.00000   15.00000   15.00000   90.00000   90.00000   90.00000
LATT -1
SFAC C  
C      1  0.5736810000000  0.4640750000000  0.5419290000000 1.0
C      1  0.4659290000000  0.3146770000000  0.5844620000000 1.0
C      1  0.4729750000000  0.6551020000000  0.6045890000000 1.0
C      1  0.3240490000000  0.5066890000000  0.5736240000000 1.0
C      1  0.5366750000000  0.2765160000000  0.4078390000000 1.0
C      1  0.2686810000000  0.4552710000000  0.4195550000000 1.0
C      1  0.3033470000000  0.4369220000000  0.5069970000000 1.0
C      1  0.6023640000000  0.3788590000000  0.6727760000000 1.0
C      1  0.6479780000000  0.5609070000000  0.3370550000000 1.0
C      1  0.7117750000000  0.4236590000000  0.5605120000000 1.0
C      1  0.4413070000000  0.3829840000000  0.6465570000000 1.0
C      1  0.3777110000000  0.5195870000000  0.3380380000000 1.0
C      1  0.6885320000000  0.3648580000000  0.4869030000000 1.0
C      1  0.4244940000000  0.5331530000000  0.7027610000000 1.0
C      1  0.7329360000000  0.4973700000000  0.4986710000000 1.0
C      1  0.3815540000000  0.6824130000000  0.4032530000000 1.0
C      1  0.6410460000000  0.4527130000000  0.6193970000000 1.0
C      1  0.4681190000000  0.4045960000000  0.2966720000000 1.0
C      1  0.5343530000000  0.7302880000000  0.5735190000000 1.0
C      1  0.6207700000000  0.2917290000000  0.6485990000000 1.0
C      1  0.4076300000000  0.7252370000000  0.4842360000000 1.0
C      1  0.5894360000000  0.4228310000000  0.3585380000000 1.0
C      1  0.3792250000000  0.3830140000000  0.4680200000000 1.0
C      1  0.6750730000000  0.4659210000000  0.3511980000000 1.0
C      1  0.6787960000000  0.5734230000000  0.4980350000000 1.0
C      1  0.5253730000000  0.5840270000000  0.5394070000000 1.0
C      1  0.4205050000000  0.2981480000000  0.5032590000000 1.0
C      1  0.4687300000000  0.5253880000000  0.3910090000000 1.0
C      1  0.3298890000000  0.5326150000000  0.7313730000000 1.0
C      1  0.2768770000000  0.5163750000000  0.6657200000000 1.0
C      1  0.2960850000000  0.5383110000000  0.3818040000000 1.0
C      1  0.5308880000000  0.3440470000000  0.3351560000000 1.0
C      1  0.6345120000000  0.5472330000000  0.6537460000000 1.0
C      1  0.5977720000000  0.3214040000000  0.4837070000000 1.0
C      1  0.4984050000000  0.7509560000000  0.4867590000000 1.0
C      1  0.5063230000000  0.4887270000000  0.7401960000000 1.0
C      1  0.7188190000000  0.4361850000000  0.4282350000000 1.0
C      1  0.3884140000000  0.6675710000000  0.5581010000000 1.0
C      1  0.4146050000000  0.4766420000000  0.6183050000000 1.0
C      1  0.4620060000000  0.2384020000000  0.4434940000000 1.0
C      1  0.3777010000000  0.4270070000000  0.3091250000000 1.0
C      1  0.5616100000000  0.5607690000000  0.7091620000000 1.0
C      1  0.5653180000000  0.5687100000000  0.2806710000000 1.0
C      1  0.6258850000000  0.5906770000000  0.4219030000000 1.0
C      1  0.3290210000000  0.3889250000000  0.3798890000000 1.0
C      1  0.3230350000000  0.6112100000000  0.4333310000000 1.0
C      1  0.5301300000000  0.5992230000000  0.4425960000000 1.0
C      1  0.4616440000000  0.4532550000000  0.4591620000000 1.0
C      1  0.3345310000000  0.5967170000000  0.5276960000000 1.0
C      1  0.5242650000000  0.4864530000000  0.3149230000000 1.0
C      1  0.6304180000000  0.6073290000000  0.5770870000000 1.0
C      1  0.6182500000000  0.7013690000000  0.5866260000000 1.0
C      1  0.4833650000000  0.4971740000000  0.5479780000000 1.0
C      1  0.5612400000000  0.4124230000000  0.4599780000000 1.0
C      1  0.4815470000000  0.6128240000000  0.6888430000000 1.0
C      1  0.5236950000000  0.6918350000000  0.4174050000000 1.0
C      1  0.4620170000000  0.6845060000000  0.3414520000000 1.0
C      1  0.5654620000000  0.2970090000000  0.5760570000000 1.0
C      1  0.5155230000000  0.4041950000000  0.7050170000000 1.0
C      1  0.5077040000000  0.6395670000000  0.2770910000000 1.0
END
