TITL C-2159252-5904-381 -0.00191397347706437 3375 -389.994077621177 0 0 60 (C5) n - 1
REM
REM in /scratch/bkarasulu/870
REM
REM
REM
REM
REM
REM ./C.cell (a2850807a9bf4ad07a5b6933b78d9264)
REM AIRSS Version 0.9.1 bugfix July 2018 build 013d7b7c2542+ Fri, 06 Jul 2018 19:26:36 +0100
REM compiler GCC version 9.2.1 20190827 (Red Hat 9.2.1-1)
REM options -cpp -mtune=generic -march=x86-64 -g -O0 -fpre-include=/usr/include/finclude/math-vector-fortran.h
REM seed 1474271545 -852605270 1567541066 -571652692 450029389 349757519 1217449699 -2094501247 674358856 1785520611 -1919958363 710676204 -229584180 1237438455 -1656111033 1297181241 -1394583442 1370967583 1028679156 219401848 1484632606 -1152956698 -288521373 -1537162145 623639817 1245280271 -1772812517 -1791206528 1668785673 359674501 -1160674106 763113185 599178056
REM
CELL 1.54180   15.00000   15.00000   15.00000   90.00000   90.00000   90.00000
LATT -1
SFAC C  
C      1  0.6205500000000  0.3892280000000  0.3289200000000 1.0
C      1  0.4318990000000  0.3511230000000  0.3289180000000 1.0
C      1  0.3373630000000  0.5187670000000  0.3289200000000 1.0
C      1  0.4675890000000  0.6604800000000  0.3289240000000 1.0
C      1  0.6426080000000  0.5804200000000  0.3289240000000 1.0
C      1  0.5373810000000  0.5730640000000  0.5394550000000 1.0
C      1  0.5810390000000  0.4870260000000  0.5394540000000 1.0
C      1  0.5127020000000  0.4189170000000  0.5394510000000 1.0
C      1  0.4268100000000  0.4628620000000  0.5394510000000 1.0
C      1  0.4420620000000  0.5581300000000  0.5394530000000 1.0
C      1  0.5143590000000  0.4200860000000  0.6850520000000 1.0
C      1  0.4284370000000  0.4616440000000  0.6850520000000 1.0
C      1  0.4414090000000  0.5562020000000  0.6850550000000 1.0
C      1  0.5353490000000  0.5730850000000  0.6850570000000 1.0
C      1  0.5804340000000  0.4889600000000  0.6850550000000 1.0
C      1  0.4263750000000  0.4630400000000  0.4325640000000 1.0
C      1  0.4420970000000  0.5586020000000  0.4325660000000 1.0
C      1  0.5378390000000  0.5731800000000  0.4325680000000 1.0
C      1  0.5812900000000  0.4866290000000  0.4325680000000 1.0
C      1  0.5124020000000  0.4185580000000  0.4325650000000 1.0
C      1  0.3619740000000  0.6869760000000  0.4672780000000 1.0
C      1  0.6351690000000  0.6890510000000  0.4672800000000 1.0
C      1  0.7215690000000  0.4298680000000  0.4672760000000 1.0
C      1  0.5017680000000  0.2676030000000  0.4672720000000 1.0
C      1  0.2795220000000  0.4265070000000  0.4672730000000 1.0
C      1  0.3989640000000  0.5935030000000  0.3345260000000 1.0
C      1  0.5577030000000  0.6249900000000  0.3345270000000 1.0
C      1  0.6367010000000  0.4837500000000  0.3345250000000 1.0
C      1  0.5267860000000  0.3649720000000  0.3345220000000 1.0
C      1  0.3798560000000  0.4328030000000  0.3345230000000 1.0
C      1  0.6835000000000  0.6060800000000  0.4168570000000 1.0
C      1  0.6575920000000  0.3582650000000  0.4168520000000 1.0
C      1  0.4138990000000  0.3063240000000  0.4168490000000 1.0
C      1  0.2891950000000  0.5220410000000  0.4168520000000 1.0
C      1  0.4558190000000  0.7073010000000  0.4168570000000 1.0
C      1  0.3014700000000  0.5976370000000  0.4780390000000 1.0
C      1  0.5315090000000  0.7189870000000  0.4780440000000 1.0
C      1  0.7180040000000  0.5377050000000  0.4780410000000 1.0
C      1  0.6032260000000  0.3043190000000  0.4780350000000 1.0
C      1  0.3457940000000  0.3413570000000  0.4780340000000 1.0
C      1  0.3714660000000  0.3366930000000  0.5723180000000 1.0
C      1  0.3049680000000  0.5717790000000  0.5723230000000 1.0
C      1  0.5080000000000  0.7076650000000  0.5723300000000 1.0
C      1  0.6999730000000  0.5565620000000  0.5723270000000 1.0
C      1  0.6155920000000  0.3272920000000  0.5723210000000 1.0
C      1  0.5662460000000  0.6385720000000  0.6161910000000 1.0
C      1  0.6522620000000  0.4798150000000  0.6161880000000 1.0
C      1  0.5278560000000  0.3489490000000  0.6161830000000 1.0
C      1  0.3649510000000  0.4268270000000  0.6161830000000 1.0
C      1  0.3886780000000  0.6058240000000  0.6161880000000 1.0
C      1  0.4770200000000  0.2200820000000  0.5392940000000 1.0
C      1  0.2266800000000  0.4353610000000  0.5392950000000 1.0
C      1  0.3540700000000  0.7399630000000  0.5393030000000 1.0
C      1  0.6831200000000  0.7129410000000  0.5393050000000 1.0
C      1  0.7591110000000  0.3916470000000  0.5393000000000 1.0
C      1  0.4154070000000  0.6968860000000  0.5895080000000 1.0
C      1  0.6611090000000  0.6412910000000  0.5895090000000 1.0
C      1  0.6841650000000  0.3904370000000  0.5895020000000 1.0
C      1  0.4527110000000  0.2909870000000  0.5894970000000 1.0
C      1  0.2866050000000  0.4803860000000  0.5894990000000 1.0
END
