TITL C-2159255-4746-217 -0.00316786817032737 3375 -402.061538140634 0 0 60 (Cs) n - 1
REM
REM in /scratch/bkarasulu/871
REM
REM
REM
REM
REM
REM ./C.cell (a2850807a9bf4ad07a5b6933b78d9264)
REM AIRSS Version 0.9.1 bugfix July 2018 build 013d7b7c2542+ Fri, 06 Jul 2018 19:26:36 +0100
REM compiler GCC version 9.2.1 20190827 (Red Hat 9.2.1-1)
REM options -cpp -mtune=generic -march=x86-64 -g -O0 -fpre-include=/usr/include/finclude/math-vector-fortran.h
REM seed -696809965 -735698500 468689672 647388731 -322681340 700916414 1544966602 1556539279 -821172288 1771168264 1496047355 -2058329234 -691898211 -1097336237 -598424197 -160874379 -587568327 -1767705579 -1571232091 149883097 1304749362 1123131611 -1572080109 -217405234 1312246091 -290473028 1702589105 -721548090 -532507149 560352990 1721072993 1629683052 -1065310952
REM
CELL 1.54180   15.00000   15.00000   15.00000   90.00000   90.00000   90.00000
LATT -1
SFAC C  
C      1  0.6491880000000  0.6500510000000  0.5507820000000 1.0
C      1  0.6491880000000  0.6500510000000  0.4492180000000 1.0
C      1  0.5210520000000  0.4742350000000  0.6811140000000 1.0
C      1  0.5210510000000  0.4742350000000  0.3188860000000 1.0
C      1  0.3415960000000  0.3214100000000  0.3850420000000 1.0
C      1  0.3415970000000  0.3214090000000  0.6149570000000 1.0
C      1  0.3338270000000  0.5531920000000  0.5936470000000 1.0
C      1  0.3338270000000  0.5531920000000  0.4063530000000 1.0
C      1  0.5261900000000  0.7327430000000  0.5492230000000 1.0
C      1  0.5261900000000  0.7327440000000  0.4507780000000 1.0
C      1  0.3520960000000  0.4631380000000  0.5892200000000 1.0
C      1  0.3520960000000  0.4631390000000  0.4107800000000 1.0
C      1  0.4986670000000  0.5742450000000  0.5538890000000 1.0
C      1  0.4986670000000  0.5742450000000  0.4461120000000 1.0
C      1  0.1805450000000  0.5073290000000  0.4499380000000 1.0
C      1  0.1805450000000  0.5073290000000  0.5500630000000 1.0
C      1  0.5412250000000  0.3803560000000  0.2916250000000 1.0
C      1  0.5412260000000  0.3803550000000  0.7083750000000 1.0
C      1  0.4092630000000  0.6985800000000  0.4020930000000 1.0
C      1  0.4092630000000  0.6985800000000  0.5979080000000 1.0
C      1  0.5965840000000  0.3375370000000  0.3988820000000 1.0
C      1  0.5965840000000  0.3375370000000  0.6011180000000 1.0
C      1  0.4291780000000  0.3320870000000  0.4044850000000 1.0
C      1  0.4291780000000  0.3320870000000  0.5955150000000 1.0
C      1  0.2081310000000  0.4142370000000  0.5507870000000 1.0
C      1  0.2081300000000  0.4142380000000  0.4492130000000 1.0
C      1  0.5532680000000  0.5346070000000  0.2591330000000 1.0
C      1  0.5532680000000  0.5346060000000  0.7408670000000 1.0
C      1  0.6076680000000  0.4274870000000  0.5504130000000 1.0
C      1  0.6076680000000  0.4274870000000  0.4495870000000 1.0
C      1  0.5098730000000  0.3209680000000  0.3656310000000 1.0
C      1  0.5098730000000  0.3209670000000  0.6343690000000 1.0
C      1  0.6972290000000  0.4291280000000  0.6806230000000 1.0
C      1  0.6972280000000  0.4291280000000  0.3193760000000 1.0
C      1  0.7515550000000  0.5128710000000  0.5493470000000 1.0
C      1  0.7515550000000  0.5128710000000  0.4506520000000 1.0
C      1  0.6955680000000  0.4536030000000  0.5910750000000 1.0
C      1  0.6955680000000  0.4536040000000  0.4089240000000 1.0
C      1  0.5171750000000  0.4811750000000  0.5842170000000 1.0
C      1  0.5171750000000  0.4811750000000  0.4157830000000 1.0
C      1  0.7286250000000  0.6053140000000  0.4456590000000 1.0
C      1  0.7286250000000  0.6053140000000  0.5543400000000 1.0
C      1  0.4363440000000  0.4280800000000  0.5518380000000 1.0
C      1  0.4363440000000  0.4280800000000  0.4481620000000 1.0
C      1  0.4370340000000  0.7687950000000  0.5524190000000 1.0
C      1  0.4370340000000  0.7687950000000  0.4475830000000 1.0
C      1  0.4089580000000  0.6090680000000  0.4096580000000 1.0
C      1  0.4089590000000  0.6090680000000  0.5903420000000 1.0
C      1  0.6334800000000  0.3593330000000  0.3132220000000 1.0
C      1  0.6334810000000  0.3593320000000  0.6867780000000 1.0
C      1  0.7039690000000  0.4849590000000  0.7551790000000 1.0
C      1  0.7039680000000  0.4849600000000  0.2448200000000 1.0
C      1  0.5615700000000  0.6503830000000  0.5817330000000 1.0
C      1  0.5615690000000  0.6503830000000  0.4182670000000 1.0
C      1  0.6328060000000  0.5297710000000  0.2263230000000 1.0
C      1  0.6328070000000  0.5297710000000  0.7736770000000 1.0
C      1  0.2874300000000  0.3937640000000  0.4024310000000 1.0
C      1  0.2874310000000  0.3937640000000  0.5975690000000 1.0
C      1  0.2499050000000  0.5715540000000  0.4490920000000 1.0
C      1  0.2499050000000  0.5715540000000  0.5509080000000 1.0
END
