TITL C-2158984-8299-826 -0.00662938234589516 3375 -400.074633720139 0 0 60 (C2v) n - 1
REM
REM in /scratch/bkarasulu/869
REM
REM
REM
REM
REM
REM ./C.cell (a2850807a9bf4ad07a5b6933b78d9264)
REM AIRSS Version 0.9.1 bugfix July 2018 build 013d7b7c2542+ Fri, 06 Jul 2018 19:26:36 +0100
REM compiler GCC version 9.2.1 20190827 (Red Hat 9.2.1-1)
REM options -cpp -mtune=generic -march=x86-64 -g -O0 -fpre-include=/usr/include/finclude/math-vector-fortran.h
REM seed 1661008767 -1788728315 136142565 1260419574 -1588064705 -728624671 -345547391 -1705635952 -67623706 4700374 -2026663270 228010152 105683936 1245118917 -1992808548 1401946360 1428976998 334819268 614539441 473734619 1870203508 -255849533 -690412541 -1548992771 -675248707 1430724301 303096323 675927638 1889338591 568033077 1058613766 -310978256 486362038
REM
CELL 1.54180   15.00000   15.00000   15.00000   90.00000   90.00000   90.00000
LATT -1
SFAC C  
C      1  0.5420510000000  0.4826870000000  0.7314300000000 1.0
C      1  0.5419280000000  0.2893780000000  0.5873650000000 1.0
C      1  0.5419910000000  0.3599840000000  0.3083250000000 1.0
C      1  0.5419280000000  0.6472800000000  0.3259230000000 1.0
C      1  0.5420510000000  0.7257350000000  0.5538840000000 1.0
C      1  0.4579490000000  0.4826870000000  0.7314300000000 1.0
C      1  0.4580720000000  0.2893780000000  0.5873650000000 1.0
C      1  0.4580090000000  0.3599840000000  0.3083250000000 1.0
C      1  0.4580720000000  0.6472800000000  0.3259230000000 1.0
C      1  0.4579490000000  0.7257350000000  0.5538840000000 1.0
C      1  0.8091870000000  0.5848880000000  0.6162080000000 1.0
C      1  0.8081030000000  0.4148840000000  0.6167310000000 1.0
C      1  0.8078070000000  0.3620430000000  0.4551490000000 1.0
C      1  0.8078070000000  0.4992260000000  0.3549380000000 1.0
C      1  0.8081040000000  0.6370860000000  0.4544150000000 1.0
C      1  0.1908130000000  0.5848880000000  0.6162080000000 1.0
C      1  0.1918970000000  0.4148840000000  0.6167310000000 1.0
C      1  0.1921930000000  0.3620430000000  0.4551490000000 1.0
C      1  0.1921930000000  0.4992260000000  0.3549380000000 1.0
C      1  0.1918960000000  0.6370860000000  0.4544150000000 1.0
C      1  0.4554440000000  0.6117030000000  0.4664830000000 1.0
C      1  0.4539470000000  0.5898660000000  0.6230200000000 1.0
C      1  0.4554440000000  0.4341000000000  0.5962200000000 1.0
C      1  0.4545890000000  0.3639800000000  0.4533390000000 1.0
C      1  0.4545890000000  0.4969140000000  0.3562330000000 1.0
C      1  0.5445560000000  0.6117030000000  0.4664830000000 1.0
C      1  0.5460530000000  0.5898660000000  0.6230200000000 1.0
C      1  0.5445560000000  0.4341000000000  0.5962200000000 1.0
C      1  0.5454110000000  0.3639800000000  0.4533390000000 1.0
C      1  0.5454110000000  0.4969140000000  0.3562330000000 1.0
C      1  0.7714900000000  0.4226840000000  0.3941590000000 1.0
C      1  0.7718370000000  0.5759640000000  0.3940160000000 1.0
C      1  0.7725500000000  0.6240290000000  0.5397840000000 1.0
C      1  0.7725490000000  0.5001810000000  0.6302540000000 1.0
C      1  0.7718360000000  0.3759340000000  0.5401360000000 1.0
C      1  0.2285100000000  0.4226840000000  0.3941590000000 1.0
C      1  0.2281630000000  0.5759640000000  0.3940160000000 1.0
C      1  0.2274500000000  0.6240290000000  0.5397840000000 1.0
C      1  0.2274510000000  0.5001810000000  0.6302540000000 1.0
C      1  0.2281640000000  0.3759340000000  0.5401360000000 1.0
C      1  0.3230460000000  0.5851700000000  0.5281310000000 1.0
C      1  0.3230470000000  0.5008980000000  0.5896910000000 1.0
C      1  0.3237340000000  0.4158810000000  0.5273220000000 1.0
C      1  0.3244680000000  0.4469360000000  0.4273570000000 1.0
C      1  0.3237330000000  0.5516090000000  0.4281740000000 1.0
C      1  0.6769540000000  0.5851700000000  0.5281310000000 1.0
C      1  0.6769530000000  0.5008980000000  0.5896910000000 1.0
C      1  0.6762660000000  0.4158810000000  0.5273220000000 1.0
C      1  0.6755320000000  0.4469360000000  0.4273570000000 1.0
C      1  0.6762670000000  0.5516090000000  0.4281740000000 1.0
C      1  0.5872680000000  0.3704350000000  0.5401940000000 1.0
C      1  0.5884600000000  0.4143710000000  0.3827780000000 1.0
C      1  0.5872690000000  0.5776920000000  0.3887950000000 1.0
C      1  0.5888770000000  0.6336580000000  0.5477110000000 1.0
C      1  0.5888770000000  0.5048050000000  0.6418370000000 1.0
C      1  0.4127320000000  0.3704350000000  0.5401940000000 1.0
C      1  0.4115400000000  0.4143710000000  0.3827780000000 1.0
C      1  0.4127310000000  0.5776920000000  0.3887950000000 1.0
C      1  0.4111230000000  0.6336580000000  0.5477110000000 1.0
C      1  0.4111230000000  0.5048050000000  0.6418370000000 1.0
END
