TITL C-2159255-4746-496 -0.00188811545368087 3375 -404.743157227755 0 0 60 (C4v) n - 1
REM
REM in /scratch/bkarasulu/871
REM
REM
REM
REM
REM
REM ./C.cell (a2850807a9bf4ad07a5b6933b78d9264)
REM AIRSS Version 0.9.1 bugfix July 2018 build 013d7b7c2542+ Fri, 06 Jul 2018 19:26:36 +0100
REM compiler GCC version 9.2.1 20190827 (Red Hat 9.2.1-1)
REM options -cpp -mtune=generic -march=x86-64 -g -O0 -fpre-include=/usr/include/finclude/math-vector-fortran.h
REM seed 1399266288 1324540476 592046383 -1339179205 -1940440835 -502032794 -2022922886 195981235 -1691182823 1868755400 -2080757536 1050402439 -1235526423 2014444700 -372188389 1777704351 51383239 1148247752 473622645 148017854 490113661 1378692308 -105162611 -262320663 -202563522 1993724729 -159926038 -1154596850 2130802211 1152531811 -801175213 -1648717199 -1549521012
REM
CELL 1.54180   15.00000   15.00000   15.00000   90.00000   90.00000   90.00000
LATT -1
SFAC C  
C      1  0.4559310000000  0.4725590000000  0.6092060000000 1.0
C      1  0.3907940000000  0.4725590000000  0.4559310000000 1.0
C      1  0.5440690000000  0.4725590000000  0.3907940000000 1.0
C      1  0.6092060000000  0.4725590000000  0.5440690000000 1.0
C      1  0.4559310000000  0.4725590000000  0.3907940000000 1.0
C      1  0.3907940000000  0.4725590000000  0.5440690000000 1.0
C      1  0.5440690000000  0.4725590000000  0.6092060000000 1.0
C      1  0.6092060000000  0.4725590000000  0.4559310000000 1.0
C      1  0.6156040000000  0.6551140000000  0.4512170000000 1.0
C      1  0.5487830000000  0.6551140000000  0.6156040000000 1.0
C      1  0.3843960000000  0.6551140000000  0.5487830000000 1.0
C      1  0.4512170000000  0.6551140000000  0.3843960000000 1.0
C      1  0.6156040000000  0.6551140000000  0.5487830000000 1.0
C      1  0.5487830000000  0.6551140000000  0.3843960000000 1.0
C      1  0.3843960000000  0.6551140000000  0.4512170000000 1.0
C      1  0.4512170000000  0.6551140000000  0.6156040000000 1.0
C      1  0.4523030000000  0.3086490000000  0.6185170000000 1.0
C      1  0.3814830000000  0.3086490000000  0.4523030000000 1.0
C      1  0.5476970000000  0.3086490000000  0.3814830000000 1.0
C      1  0.6185170000000  0.3086490000000  0.5476970000000 1.0
C      1  0.4523030000000  0.3086490000000  0.3814830000000 1.0
C      1  0.3814830000000  0.3086490000000  0.5476970000000 1.0
C      1  0.5476970000000  0.3086490000000  0.6185170000000 1.0
C      1  0.6185170000000  0.3086490000000  0.4523030000000 1.0
C      1  0.3940520000000  0.3670530000000  0.3243890000000 1.0
C      1  0.6756110000000  0.3670530000000  0.3940520000000 1.0
C      1  0.6059480000000  0.3670530000000  0.6756110000000 1.0
C      1  0.3243890000000  0.3670530000000  0.6059480000000 1.0
C      1  0.3940520000000  0.3670530000000  0.6756110000000 1.0
C      1  0.6756110000000  0.3670530000000  0.6059480000000 1.0
C      1  0.6059480000000  0.3670530000000  0.3243890000000 1.0
C      1  0.3243890000000  0.3670530000000  0.3940520000000 1.0
C      1  0.4160960000000  0.4551450000000  0.6975130000000 1.0
C      1  0.3024870000000  0.4551450000000  0.4160960000000 1.0
C      1  0.5839040000000  0.4551450000000  0.3024870000000 1.0
C      1  0.6975130000000  0.4551450000000  0.5839040000000 1.0
C      1  0.4160960000000  0.4551450000000  0.3024870000000 1.0
C      1  0.3024870000000  0.4551450000000  0.5839040000000 1.0
C      1  0.5839040000000  0.4551450000000  0.6975130000000 1.0
C      1  0.6975130000000  0.4551450000000  0.4160960000000 1.0
C      1  0.3632720000000  0.5362540000000  0.7020320000000 1.0
C      1  0.2979680000000  0.5362540000000  0.3632720000000 1.0
C      1  0.6367280000000  0.5362540000000  0.2979680000000 1.0
C      1  0.7020320000000  0.5362540000000  0.6367280000000 1.0
C      1  0.3632720000000  0.5362540000000  0.2979680000000 1.0
C      1  0.2979680000000  0.5362540000000  0.6367280000000 1.0
C      1  0.6367280000000  0.5362540000000  0.7020320000000 1.0
C      1  0.7020320000000  0.5362540000000  0.3632720000000 1.0
C      1  0.7034260000000  0.6129180000000  0.5754120000000 1.0
C      1  0.4245880000000  0.6129180000000  0.7034260000000 1.0
C      1  0.2965740000000  0.6129180000000  0.4245880000000 1.0
C      1  0.5754120000000  0.6129180000000  0.2965740000000 1.0
C      1  0.7034260000000  0.6129180000000  0.4245880000000 1.0
C      1  0.4245880000000  0.6129180000000  0.2965740000000 1.0
C      1  0.2965740000000  0.6129180000000  0.5754120000000 1.0
C      1  0.5754120000000  0.6129180000000  0.7034260000000 1.0
C      1  0.2454450000000  0.6039690000000  0.5000000000000 1.0
C      1  0.7545550000000  0.6039690000000  0.5000000000000 1.0
C      1  0.5000000000000  0.6039690000000  0.2454450000000 1.0
C      1  0.5000000000000  0.6039690000000  0.7545550000000 1.0
END
