TITL C-2159255-4746-1067 -0.00248195223941659 3375 -408.302435940752 0 0 60 (C2) n - 1
REM
REM in /scratch/bkarasulu/871
REM
REM
REM
REM
REM
REM ./C.cell (a2850807a9bf4ad07a5b6933b78d9264)
REM AIRSS Version 0.9.1 bugfix July 2018 build 013d7b7c2542+ Fri, 06 Jul 2018 19:26:36 +0100
REM compiler GCC version 9.2.1 20190827 (Red Hat 9.2.1-1)
REM options -cpp -mtune=generic -march=x86-64 -g -O0 -fpre-include=/usr/include/finclude/math-vector-fortran.h
REM seed 23909579 562493847 361184051 46168567 -1561362651 1341529681 1799819258 -598150857 -114766078 236973456 -255032775 735521413 707504085 -512619779 509184430 -1863195679 -1158268674 -1062366645 339314185 1607424634 -886599780 639175859 -1160206101 256632268 1692368169 -1614897884 -490331486 1724618326 127490476 -838378725 1716597277 -475608620 -2128694566
REM
CELL 1.54180   15.00000   15.00000   15.00000   90.00000   90.00000   90.00000
LATT -1
SFAC C  
C      1  0.5056260000000  0.6923020000000  0.3414070000000 1.0
C      1  0.6414170000000  0.4105730000000  0.3447590000000 1.0
C      1  0.3281530000000  0.4373450000000  0.3822440000000 1.0
C      1  0.5056270000000  0.3076990000000  0.6585910000000 1.0
C      1  0.6414170000000  0.5894280000000  0.6552460000000 1.0
C      1  0.3281540000000  0.5626540000000  0.6177560000000 1.0
C      1  0.6409980000000  0.5075140000000  0.7174140000000 1.0
C      1  0.4204280000000  0.3403350000000  0.6868720000000 1.0
C      1  0.3953400000000  0.6223670000000  0.6551340000000 1.0
C      1  0.6409990000000  0.4924850000000  0.2825880000000 1.0
C      1  0.4204270000000  0.6596640000000  0.3131270000000 1.0
C      1  0.3953400000000  0.3776320000000  0.3448660000000 1.0
C      1  0.5379990000000  0.3937270000000  0.5498950000000 1.0
C      1  0.4474790000000  0.5203110000000  0.5430100000000 1.0
C      1  0.6006550000000  0.5332260000000  0.5803240000000 1.0
C      1  0.5379990000000  0.6062750000000  0.4501050000000 1.0
C      1  0.4474790000000  0.4796900000000  0.4569890000000 1.0
C      1  0.6006550000000  0.4667770000000  0.4196790000000 1.0
C      1  0.4201650000000  0.5743760000000  0.7323410000000 1.0
C      1  0.5622120000000  0.5100520000000  0.7680150000000 1.0
C      1  0.4311560000000  0.4090910000000  0.7554850000000 1.0
C      1  0.4201650000000  0.4256230000000  0.2676600000000 1.0
C      1  0.5622120000000  0.4899470000000  0.2319870000000 1.0
C      1  0.4311560000000  0.5909080000000  0.2445150000000 1.0
C      1  0.3810820000000  0.5138910000000  0.2648970000000 1.0
C      1  0.5219890000000  0.5780500000000  0.2306960000000 1.0
C      1  0.5127270000000  0.4120720000000  0.2559350000000 1.0
C      1  0.3810820000000  0.4861080000000  0.7351030000000 1.0
C      1  0.5219890000000  0.4219490000000  0.7693040000000 1.0
C      1  0.5127260000000  0.5879270000000  0.7440680000000 1.0
C      1  0.3315890000000  0.4729450000000  0.6555410000000 1.0
C      1  0.5534970000000  0.6412370000000  0.6760360000000 1.0
C      1  0.5685220000000  0.3649520000000  0.7072260000000 1.0
C      1  0.3315890000000  0.5270550000000  0.3444590000000 1.0
C      1  0.5534970000000  0.3587630000000  0.3239670000000 1.0
C      1  0.5685210000000  0.6350490000000  0.2927730000000 1.0
C      1  0.4831090000000  0.3450300000000  0.3955270000000 1.0
C      1  0.3773260000000  0.6101210000000  0.3852690000000 1.0
C      1  0.6383820000000  0.5807280000000  0.3276120000000 1.0
C      1  0.4831100000000  0.6549700000000  0.6044740000000 1.0
C      1  0.3773260000000  0.3898800000000  0.6147310000000 1.0
C      1  0.6383820000000  0.4192730000000  0.6723860000000 1.0
C      1  0.3582290000000  0.5744050000000  0.5334030000000 1.0
C      1  0.6981280000000  0.5976530000000  0.5793750000000 1.0
C      1  0.5127640000000  0.2999020000000  0.5645630000000 1.0
C      1  0.3582290000000  0.4255960000000  0.4665970000000 1.0
C      1  0.6981370000000  0.4023370000000  0.4206220000000 1.0
C      1  0.5127620000000  0.7001000000000  0.4354360000000 1.0
C      1  0.6904180000000  0.4480510000000  0.5002190000000 1.0
C      1  0.3767720000000  0.3544940000000  0.5227680000000 1.0
C      1  0.4505490000000  0.6988860000000  0.5089530000000 1.0
C      1  0.6904260000000  0.5519510000000  0.4997720000000 1.0
C      1  0.3767720000000  0.6455060000000  0.4772320000000 1.0
C      1  0.4505500000000  0.3011150000000  0.4910460000000 1.0
C      1  0.4662030000000  0.4474400000000  0.6034490000000 1.0
C      1  0.5218720000000  0.5800480000000  0.5444570000000 1.0
C      1  0.6252040000000  0.4341110000000  0.5774140000000 1.0
C      1  0.4662050000000  0.5525610000000  0.3965510000000 1.0
C      1  0.5218720000000  0.4199530000000  0.4555430000000 1.0
C      1  0.6252050000000  0.5658920000000  0.4225840000000 1.0
END
