TITL C-2158988-7926-531 -0.00344343387416664 3375 -408.365747205646 0 0 60 (D5h) n - 1
REM
REM in /scratch/bkarasulu/868
REM
REM
REM
REM
REM
REM ./C.cell (a2850807a9bf4ad07a5b6933b78d9264)
REM AIRSS Version 0.9.1 bugfix July 2018 build 013d7b7c2542+ Fri, 06 Jul 2018 19:26:36 +0100
REM compiler GCC version 9.2.1 20190827 (Red Hat 9.2.1-1)
REM options -cpp -mtune=generic -march=x86-64 -g -O0 -fpre-include=/usr/include/finclude/math-vector-fortran.h
REM seed -846405618 -444903675 2067267634 964579347 -128745751 1011126119 -1712979236 -1746193652 -156144213 201322557 888733939 1153349195 -782671377 138423947 -392130055 -1211950145 -1525460906 -1797392810 -711762441 -408579150 -156457815 1042193640 596669063 -188466565 349064900 1190222769 -1830784489 1426933230 -665759579 -1466414275 -1234804163 350715697 304017632
REM
CELL 1.54180   15.00000   15.00000   15.00000   90.00000   90.00000   90.00000
LATT -1
SFAC C  
C      1  0.4555840000000  0.2443570000000  0.6220160000000 1.0
C      1  0.4555840000000  0.5370700000000  0.7808440000000 1.0
C      1  0.4555840000000  0.7785650000000  0.5514720000000 1.0
C      1  0.4555840000000  0.6350090000000  0.2509740000000 1.0
C      1  0.4555840000000  0.3049190000000  0.2946210000000 1.0
C      1  0.5444160000000  0.2443570000000  0.6220160000000 1.0
C      1  0.5444160000000  0.5370700000000  0.7808440000000 1.0
C      1  0.5444160000000  0.7785650000000  0.5514720000000 1.0
C      1  0.5444160000000  0.6350090000000  0.2509740000000 1.0
C      1  0.5444160000000  0.3049190000000  0.2946210000000 1.0
C      1  0.6944340000000  0.6176070000000  0.4438460000000 1.0
C      1  0.6944370000000  0.4829360000000  0.3708050000000 1.0
C      1  0.6944370000000  0.3718550000000  0.4763110000000 1.0
C      1  0.6944340000000  0.4378700000000  0.6145620000000 1.0
C      1  0.6944330000000  0.5897560000000  0.5944990000000 1.0
C      1  0.3055660000000  0.6176070000000  0.4438460000000 1.0
C      1  0.3055630000000  0.4829360000000  0.3708050000000 1.0
C      1  0.3055630000000  0.3718550000000  0.4763110000000 1.0
C      1  0.3055660000000  0.4378700000000  0.6145620000000 1.0
C      1  0.3055670000000  0.5897560000000  0.5944990000000 1.0
C      1  0.3880200000000  0.3385580000000  0.3300300000000 1.0
C      1  0.3880210000000  0.2884500000000  0.6010030000000 1.0
C      1  0.3880240000000  0.5306950000000  0.7324140000000 1.0
C      1  0.3880240000000  0.7305280000000  0.5426110000000 1.0
C      1  0.3880210000000  0.6117550000000  0.2939270000000 1.0
C      1  0.6119800000000  0.3385580000000  0.3300300000000 1.0
C      1  0.6119790000000  0.2884500000000  0.6010030000000 1.0
C      1  0.6119760000000  0.5306950000000  0.7324140000000 1.0
C      1  0.6119760000000  0.7305280000000  0.5426110000000 1.0
C      1  0.6119790000000  0.6117550000000  0.2939270000000 1.0
C      1  0.4493300000000  0.4226990000000  0.5369180000000 1.0
C      1  0.4493310000000  0.5112230000000  0.5849320000000 1.0
C      1  0.4493310000000  0.5842430000000  0.5155780000000 1.0
C      1  0.4493300000000  0.5408470000000  0.4247000000000 1.0
C      1  0.4493300000000  0.4410080000000  0.4378900000000 1.0
C      1  0.5506700000000  0.4226990000000  0.5369180000000 1.0
C      1  0.5506690000000  0.5112230000000  0.5849320000000 1.0
C      1  0.5506690000000  0.5842430000000  0.5155780000000 1.0
C      1  0.5506700000000  0.5408470000000  0.4247000000000 1.0
C      1  0.5506700000000  0.4410080000000  0.4378900000000 1.0
C      1  0.6396950000000  0.5685730000000  0.3735800000000 1.0
C      1  0.6396960000000  0.4009580000000  0.3957230000000 1.0
C      1  0.6396950000000  0.3702190000000  0.5619770000000 1.0
C      1  0.6396930000000  0.5188390000000  0.6425880000000 1.0
C      1  0.6396930000000  0.6414310000000  0.5261500000000 1.0
C      1  0.3603050000000  0.5685730000000  0.3735800000000 1.0
C      1  0.3603040000000  0.4009580000000  0.3957230000000 1.0
C      1  0.3603050000000  0.3702190000000  0.5619770000000 1.0
C      1  0.3603070000000  0.5188390000000  0.6425880000000 1.0
C      1  0.3603070000000  0.6414310000000  0.5261500000000 1.0
C      1  0.2247170000000  0.4892220000000  0.4183700000000 1.0
C      1  0.2247170000000  0.4190330000000  0.4850350000000 1.0
C      1  0.2247180000000  0.4607460000000  0.5723900000000 1.0
C      1  0.2247190000000  0.5567160000000  0.5597120000000 1.0
C      1  0.2247180000000  0.5743140000000  0.4645220000000 1.0
C      1  0.7752830000000  0.4892220000000  0.4183700000000 1.0
C      1  0.7752830000000  0.4190330000000  0.4850350000000 1.0
C      1  0.7752820000000  0.4607460000000  0.5723900000000 1.0
C      1  0.7752810000000  0.5567160000000  0.5597120000000 1.0
C      1  0.7752820000000  0.5743140000000  0.4645220000000 1.0
END
