TITL C-2158984-8299-974 -0.00248171261053843 3375 -412.971018903334 0 0 60 (D3) n - 1
REM
REM in /scratch/bkarasulu/869
REM
REM
REM
REM
REM
REM ./C.cell (a2850807a9bf4ad07a5b6933b78d9264)
REM AIRSS Version 0.9.1 bugfix July 2018 build 013d7b7c2542+ Fri, 06 Jul 2018 19:26:36 +0100
REM compiler GCC version 9.2.1 20190827 (Red Hat 9.2.1-1)
REM options -cpp -mtune=generic -march=x86-64 -g -O0 -fpre-include=/usr/include/finclude/math-vector-fortran.h
REM seed -1671121847 256374625 -913448802 1555185730 -204359440 138846035 397173893 1855781760 527850135 -1832061370 -639638820 -2006020291 -259342968 787482687 1201914707 789484860 776567951 -766070983 -743201827 -7611432 -1420649162 -59867759 -1083986773 -1625395184 432385532 -1314703068 -2048169867 -249312509 -42519216 12440535 -352667673 -68833132 -652470402
REM
CELL 1.54180   15.00000   15.00000   15.00000   90.00000   90.00000   90.00000
LATT -1
SFAC C  
C      1  0.2494210000000  0.5170410000000  0.5443090000000 1.0
C      1  0.6636600000000  0.5170410000000  0.6948510000000 1.0
C      1  0.5869160000000  0.5170420000000  0.2608380000000 1.0
C      1  0.2494210000000  0.4829590000000  0.4556910000000 1.0
C      1  0.6636600000000  0.4829590000000  0.3051490000000 1.0
C      1  0.5869160000000  0.4829580000000  0.7391620000000 1.0
C      1  0.5477960000000  0.7118170000000  0.4757670000000 1.0
C      1  0.4551130000000  0.7118160000000  0.4707300000000 1.0
C      1  0.4970920000000  0.7118190000000  0.5535150000000 1.0
C      1  0.5477960000000  0.2881830000000  0.5242330000000 1.0
C      1  0.4551130000000  0.2881840000000  0.5292700000000 1.0
C      1  0.4970920000000  0.2881810000000  0.4464850000000 1.0
C      1  0.4843580000000  0.3220190000000  0.3566470000000 1.0
C      1  0.3836780000000  0.3220200000000  0.5852190000000 1.0
C      1  0.6319650000000  0.3220200000000  0.5581260000000 1.0
C      1  0.4843580000000  0.6779810000000  0.6433530000000 1.0
C      1  0.3836780000000  0.6779800000000  0.4147810000000 1.0
C      1  0.6319650000000  0.6779800000000  0.4418740000000 1.0
C      1  0.3962970000000  0.3383070000000  0.3344960000000 1.0
C      1  0.4085250000000  0.3383060000000  0.6725580000000 1.0
C      1  0.6951810000000  0.3383060000000  0.4929410000000 1.0
C      1  0.3962970000000  0.6616930000000  0.6655040000000 1.0
C      1  0.4085250000000  0.6616940000000  0.3274420000000 1.0
C      1  0.6951810000000  0.6616940000000  0.5070590000000 1.0
C      1  0.6993900000000  0.3971760000000  0.4255450000000 1.0
C      1  0.3358260000000  0.3971760000000  0.3645510000000 1.0
C      1  0.4647850000000  0.3971750000000  0.7099030000000 1.0
C      1  0.6993900000000  0.6028240000000  0.5744550000000 1.0
C      1  0.3358260000000  0.6028240000000  0.6354490000000 1.0
C      1  0.4647850000000  0.6028250000000  0.2900970000000 1.0
C      1  0.4997280000000  0.5007670000000  0.4107830000000 1.0
C      1  0.4228710000000  0.5007730000000  0.5448430000000 1.0
C      1  0.5773990000000  0.5007760000000  0.5443730000000 1.0
C      1  0.4997280000000  0.4992330000000  0.5892170000000 1.0
C      1  0.4228710000000  0.4992270000000  0.4551570000000 1.0
C      1  0.5773990000000  0.4992240000000  0.4556270000000 1.0
C      1  0.5664000000000  0.6013780000000  0.2941690000000 1.0
C      1  0.2885440000000  0.6013770000000  0.5454120000000 1.0
C      1  0.6450550000000  0.6013770000000  0.6604200000000 1.0
C      1  0.5664000000000  0.3986220000000  0.7058310000000 1.0
C      1  0.2885440000000  0.3986230000000  0.4545880000000 1.0
C      1  0.6450550000000  0.3986230000000  0.3395800000000 1.0
C      1  0.7244430000000  0.4887920000000  0.4517860000000 1.0
C      1  0.3460250000000  0.4887930000000  0.3297350000000 1.0
C      1  0.4295340000000  0.4887920000000  0.7184800000000 1.0
C      1  0.7244430000000  0.5112080000000  0.5482140000000 1.0
C      1  0.3460250000000  0.5112070000000  0.6702650000000 1.0
C      1  0.4295340000000  0.5112080000000  0.2815200000000 1.0
C      1  0.3130810000000  0.6229510000000  0.4500540000000 1.0
C      1  0.5502050000000  0.6229510000000  0.6868530000000 1.0
C      1  0.6367140000000  0.6229510000000  0.3630990000000 1.0
C      1  0.3130810000000  0.3770490000000  0.5499460000000 1.0
C      1  0.5502050000000  0.3770490000000  0.3131470000000 1.0
C      1  0.6367140000000  0.3770490000000  0.6369010000000 1.0
C      1  0.2913230000000  0.5433100000000  0.3936780000000 1.0
C      1  0.5122600000000  0.5433090000000  0.7338820000000 1.0
C      1  0.6964160000000  0.5433100000000  0.3724440000000 1.0
C      1  0.2913230000000  0.4566900000000  0.6063220000000 1.0
C      1  0.5122600000000  0.4566910000000  0.2661180000000 1.0
C      1  0.6964160000000  0.4566900000000  0.6275560000000 1.0
END
