TITL C-2159252-5904-428 -0.00148717403218164 3375 -389.498557482274 0 0 60 (Td) n - 1
REM
REM in /scratch/bkarasulu/870
REM
REM
REM
REM
REM
REM ./C.cell (a2850807a9bf4ad07a5b6933b78d9264)
REM AIRSS Version 0.9.1 bugfix July 2018 build 013d7b7c2542+ Fri, 06 Jul 2018 19:26:36 +0100
REM compiler GCC version 9.2.1 20190827 (Red Hat 9.2.1-1)
REM options -cpp -mtune=generic -march=x86-64 -g -O0 -fpre-include=/usr/include/finclude/math-vector-fortran.h
REM seed -1476503375 -836729319 98555769 1611414535 1992766038 1834781975 982868065 1849386249 -1670855400 -20210095 1055375839 -900149004 -1510911176 -248593903 1422310171 546534991 138494983 834709200 -179255994 -649142029 -623591895 -969859775 1363435714 -1037197891 -1646353808 1013128131 353667020 763409133 2036829776 1856631477 573371755 1045772531 569093592
REM
CELL 1.54180   15.00000   15.00000   15.00000   90.00000   90.00000   90.00000
LATT -1
SFAC C  
C      1  0.3904220000000  0.4582190000000  0.3177370000000 1.0
C      1  0.3177370000000  0.3904220000000  0.4582190000000 1.0
C      1  0.4582190000000  0.3177370000000  0.3904220000000 1.0
C      1  0.6095780000000  0.4582190000000  0.6822630000000 1.0
C      1  0.3904220000000  0.5417810000000  0.6822630000000 1.0
C      1  0.6095780000000  0.5417810000000  0.3177370000000 1.0
C      1  0.6822630000000  0.3904220000000  0.5417810000000 1.0
C      1  0.3177370000000  0.6095780000000  0.5417810000000 1.0
C      1  0.6822630000000  0.6095780000000  0.4582190000000 1.0
C      1  0.5417810000000  0.3177370000000  0.6095780000000 1.0
C      1  0.4582190000000  0.6822630000000  0.6095780000000 1.0
C      1  0.5417810000000  0.6822630000000  0.3904220000000 1.0
C      1  0.3177370000000  0.4582190000000  0.3904220000000 1.0
C      1  0.4582190000000  0.3904220000000  0.3177370000000 1.0
C      1  0.3904220000000  0.3177370000000  0.4582190000000 1.0
C      1  0.6822630000000  0.4582190000000  0.6095780000000 1.0
C      1  0.6822630000000  0.5417810000000  0.3904220000000 1.0
C      1  0.3177370000000  0.5417810000000  0.6095780000000 1.0
C      1  0.5417810000000  0.3904220000000  0.6822630000000 1.0
C      1  0.5417810000000  0.6095780000000  0.3177370000000 1.0
C      1  0.4582190000000  0.6095780000000  0.6822630000000 1.0
C      1  0.6095780000000  0.3177370000000  0.5417810000000 1.0
C      1  0.6095780000000  0.6822630000000  0.4582190000000 1.0
C      1  0.3904220000000  0.6822630000000  0.5417810000000 1.0
C      1  0.3764810000000  0.3078960000000  0.5576040000000 1.0
C      1  0.5576040000000  0.3764810000000  0.3078960000000 1.0
C      1  0.3078960000000  0.5576040000000  0.3764810000000 1.0
C      1  0.6235190000000  0.3078960000000  0.4423960000000 1.0
C      1  0.3764810000000  0.6921040000000  0.4423960000000 1.0
C      1  0.6235190000000  0.6921040000000  0.5576040000000 1.0
C      1  0.4423960000000  0.3764810000000  0.6921040000000 1.0
C      1  0.5576040000000  0.6235190000000  0.6921040000000 1.0
C      1  0.4423960000000  0.6235190000000  0.3078960000000 1.0
C      1  0.6921040000000  0.5576040000000  0.6235190000000 1.0
C      1  0.3078960000000  0.4423960000000  0.6235190000000 1.0
C      1  0.6921040000000  0.4423960000000  0.3764810000000 1.0
C      1  0.5576040000000  0.3078960000000  0.3764810000000 1.0
C      1  0.3078960000000  0.3764810000000  0.5576040000000 1.0
C      1  0.3764810000000  0.5576040000000  0.3078960000000 1.0
C      1  0.4423960000000  0.3078960000000  0.6235190000000 1.0
C      1  0.4423960000000  0.6921040000000  0.3764810000000 1.0
C      1  0.5576040000000  0.6921040000000  0.6235190000000 1.0
C      1  0.6921040000000  0.3764810000000  0.4423960000000 1.0
C      1  0.6921040000000  0.6235190000000  0.5576040000000 1.0
C      1  0.3078960000000  0.6235190000000  0.4423960000000 1.0
C      1  0.6235190000000  0.5576040000000  0.6921040000000 1.0
C      1  0.6235190000000  0.4423960000000  0.3078960000000 1.0
C      1  0.3764810000000  0.4423960000000  0.6921040000000 1.0
C      1  0.4656760000000  0.3937500000000  0.4656760000000 1.0
C      1  0.4656760000000  0.4656760000000  0.3937500000000 1.0
C      1  0.3937500000000  0.4656760000000  0.4656760000000 1.0
C      1  0.5343240000000  0.3937500000000  0.5343240000000 1.0
C      1  0.4656760000000  0.6062500000000  0.5343240000000 1.0
C      1  0.5343240000000  0.6062500000000  0.4656760000000 1.0
C      1  0.5343240000000  0.4656760000000  0.6062500000000 1.0
C      1  0.4656760000000  0.5343240000000  0.6062500000000 1.0
C      1  0.5343240000000  0.5343240000000  0.3937500000000 1.0
C      1  0.6062500000000  0.4656760000000  0.5343240000000 1.0
C      1  0.3937500000000  0.5343240000000  0.5343240000000 1.0
C      1  0.6062500000000  0.5343240000000  0.4656760000000 1.0
END
