TITL C-2158988-7926-5 -0.00125126595386379 3375 -402.068146150126 0 0 60 (C2h) n - 1
REM
REM in /scratch/bkarasulu/868
REM
REM
REM
REM
REM
REM ./C.cell (a2850807a9bf4ad07a5b6933b78d9264)
REM AIRSS Version 0.9.1 bugfix July 2018 build 013d7b7c2542+ Fri, 06 Jul 2018 19:26:36 +0100
REM compiler GCC version 9.2.1 20190827 (Red Hat 9.2.1-1)
REM options -cpp -mtune=generic -march=x86-64 -g -O0 -fpre-include=/usr/include/finclude/math-vector-fortran.h
REM seed 1316112966 914435601 -1208045303 -940550045 839401834 -1766743577 -1216686801 -1823915459 -1285607826 1106895123 1680650617 135665546 -77165286 639096820 -1802631502 -891092265 -1698636076 1504050150 98475501 683000267 -1445769342 -1994258298 -617553765 -2090590918 193971265 2046430803 -2032570041 -1709718195 -2124061748 67691028 1781963125 -839001160 742622215
REM
CELL 1.54180   15.00000   15.00000   15.00000   90.00000   90.00000   90.00000
LATT -1
SFAC C  
C      1  0.5463240000000  0.3398410000000  0.3230660000000 1.0
C      1  0.4536760000000  0.6601590000000  0.3230660000000 1.0
C      1  0.5463240000000  0.3398410000000  0.6769340000000 1.0
C      1  0.4536760000000  0.6601590000000  0.6769340000000 1.0
C      1  0.5389270000000  0.6228330000000  0.3171450000000 1.0
C      1  0.4610730000000  0.3771670000000  0.3171450000000 1.0
C      1  0.5389270000000  0.6228330000000  0.6828550000000 1.0
C      1  0.4610730000000  0.3771670000000  0.6828550000000 1.0
C      1  0.6927880000000  0.5994030000000  0.5939270000000 1.0
C      1  0.3072120000000  0.4005970000000  0.5939270000000 1.0
C      1  0.6927880000000  0.5994030000000  0.4060730000000 1.0
C      1  0.3072120000000  0.4005970000000  0.4060730000000 1.0
C      1  0.3169080000000  0.4902770000000  0.4497470000000 1.0
C      1  0.6830920000000  0.5097230000000  0.4497470000000 1.0
C      1  0.3169080000000  0.4902770000000  0.5502530000000 1.0
C      1  0.6830920000000  0.5097230000000  0.5502530000000 1.0
C      1  0.4068850000000  0.5096990000000  0.5839930000000 1.0
C      1  0.5931150000000  0.4903010000000  0.5839930000000 1.0
C      1  0.4068850000000  0.5096990000000  0.4160070000000 1.0
C      1  0.5931150000000  0.4903010000000  0.4160070000000 1.0
C      1  0.7159100000000  0.4147390000000  0.4513070000000 1.0
C      1  0.2840900000000  0.5852610000000  0.4513070000000 1.0
C      1  0.7159100000000  0.4147390000000  0.5486930000000 1.0
C      1  0.2840900000000  0.5852610000000  0.5486930000000 1.0
C      1  0.6083810000000  0.4795180000000  0.6803650000000 1.0
C      1  0.3916190000000  0.5204820000000  0.6803650000000 1.0
C      1  0.6083810000000  0.4795180000000  0.3196350000000 1.0
C      1  0.3916190000000  0.5204820000000  0.3196350000000 1.0
C      1  0.3246270000000  0.6415510000000  0.3887040000000 1.0
C      1  0.6753730000000  0.3584490000000  0.3887040000000 1.0
C      1  0.3246270000000  0.6415510000000  0.6112960000000 1.0
C      1  0.6753730000000  0.3584490000000  0.6112960000000 1.0
C      1  0.3998230000000  0.3607620000000  0.3955120000000 1.0
C      1  0.6001770000000  0.6392380000000  0.3955120000000 1.0
C      1  0.3998230000000  0.3607620000000  0.6044880000000 1.0
C      1  0.6001770000000  0.6392380000000  0.6044880000000 1.0
C      1  0.5868250000000  0.3276940000000  0.5905670000000 1.0
C      1  0.4131750000000  0.6723060000000  0.5905670000000 1.0
C      1  0.5868250000000  0.3276940000000  0.4094330000000 1.0
C      1  0.4131750000000  0.6723060000000  0.4094330000000 1.0
C      1  0.4608620000000  0.4716140000000  0.2848730000000 1.0
C      1  0.5391380000000  0.5283860000000  0.2848730000000 1.0
C      1  0.4608620000000  0.4716140000000  0.7151270000000 1.0
C      1  0.5391380000000  0.5283860000000  0.7151270000000 1.0
C      1  0.6275900000000  0.3893070000000  0.6914830000000 1.0
C      1  0.3724100000000  0.6106930000000  0.6914830000000 1.0
C      1  0.6275900000000  0.3893070000000  0.3085170000000 1.0
C      1  0.3724100000000  0.6106930000000  0.3085170000000 1.0
C      1  0.4500400000000  0.5902780000000  0.5482850000000 1.0
C      1  0.5499600000000  0.4097220000000  0.5482850000000 1.0
C      1  0.4500400000000  0.5902780000000  0.4517150000000 1.0
C      1  0.5499600000000  0.4097220000000  0.4517150000000 1.0
C      1  0.6717620000000  0.6744410000000  0.4523170000000 1.0
C      1  0.3282380000000  0.3255590000000  0.4523170000000 1.0
C      1  0.6717620000000  0.6744410000000  0.5476830000000 1.0
C      1  0.3282380000000  0.3255590000000  0.5476830000000 1.0
C      1  0.4508350000000  0.4251680000000  0.4485210000000 1.0
C      1  0.5491650000000  0.5748320000000  0.4485210000000 1.0
C      1  0.4508350000000  0.4251680000000  0.5514790000000 1.0
C      1  0.5491650000000  0.5748320000000  0.5514790000000 1.0
END
