TITL C-2159255-4746-165 -0.00350632451996848 3375 -409.107968602833 0 0 60 (C1) n - 1
REM
REM in /scratch/bkarasulu/871
REM
REM
REM
REM
REM
REM ./C.cell (a2850807a9bf4ad07a5b6933b78d9264)
REM AIRSS Version 0.9.1 bugfix July 2018 build 013d7b7c2542+ Fri, 06 Jul 2018 19:26:36 +0100
REM compiler GCC version 9.2.1 20190827 (Red Hat 9.2.1-1)
REM options -cpp -mtune=generic -march=x86-64 -g -O0 -fpre-include=/usr/include/finclude/math-vector-fortran.h
REM seed -1966472099 -58682179 1849542081 -483265513 1697198056 860374218 956945481 -1064222707 -1991240759 253967410 2066146453 -773770005 -303468492 -1947387553 -369859689 -398420960 1616400208 -1219075441 -356589154 1261003660 -1734599122 2066134025 -1254899853 1349978500 656700327 542214466 -1376195119 1962530739 1143578683 1817481437 560752648 1924931336 -1434995670
REM
CELL 1.54180   15.00000   15.00000   15.00000   90.00000   90.00000   90.00000
LATT -1
SFAC C  
C      1  0.5273550000000  0.3343820000000  0.6661390000000 1.0
C      1  0.4281790000000  0.3347680000000  0.6530220000000 1.0
C      1  0.3582240000000  0.3347510000000  0.5932630000000 1.0
C      1  0.3294060000000  0.3350590000000  0.4972660000000 1.0
C      1  0.3552170000000  0.3349750000000  0.4083380000000 1.0
C      1  0.4289240000000  0.3361790000000  0.3401180000000 1.0
C      1  0.5220130000000  0.3373100000000  0.3206460000000 1.0
C      1  0.6067690000000  0.3353430000000  0.3637950000000 1.0
C      1  0.6612560000000  0.3334890000000  0.4485850000000 1.0
C      1  0.6635910000000  0.3334560000000  0.5412780000000 1.0
C      1  0.6104770000000  0.3337870000000  0.6265600000000 1.0
C      1  0.6782520000000  0.4777060000000  0.2904760000000 1.0
C      1  0.7592250000000  0.4766380000000  0.4158310000000 1.0
C      1  0.7611900000000  0.4769430000000  0.5741340000000 1.0
C      1  0.6819700000000  0.4768920000000  0.7003820000000 1.0
C      1  0.5388450000000  0.4771770000000  0.7680890000000 1.0
C      1  0.3910780000000  0.4772560000000  0.7487070000000 1.0
C      1  0.2699600000000  0.4769280000000  0.6463630000000 1.0
C      1  0.2259530000000  0.4772780000000  0.5041550000000 1.0
C      1  0.2686740000000  0.4771880000000  0.3514010000000 1.0
C      1  0.3788690000000  0.4781710000000  0.2510860000000 1.0
C      1  0.5342860000000  0.4716530000000  0.2274120000000 1.0
C      1  0.2752550000000  0.3850090000000  0.6171790000000 1.0
C      1  0.2467630000000  0.3850350000000  0.5244220000000 1.0
C      1  0.2979490000000  0.3858310000000  0.3442980000000 1.0
C      1  0.3703030000000  0.3859890000000  0.2788750000000 1.0
C      1  0.5338010000000  0.3786460000000  0.2306950000000 1.0
C      1  0.6784960000000  0.3858450000000  0.3202150000000 1.0
C      1  0.7318680000000  0.3855100000000  0.4020600000000 1.0
C      1  0.7349310000000  0.3851240000000  0.5879190000000 1.0
C      1  0.6831880000000  0.3853170000000  0.6702180000000 1.0
C      1  0.5149340000000  0.3853220000000  0.7510740000000 1.0
C      1  0.4185800000000  0.3853600000000  0.7385040000000 1.0
C      1  0.5689320000000  0.5869030000000  0.3385120000000 1.0
C      1  0.6449590000000  0.5917260000000  0.4014560000000 1.0
C      1  0.6724310000000  0.5873430000000  0.4958490000000 1.0
C      1  0.6472220000000  0.5922740000000  0.5906590000000 1.0
C      1  0.5729690000000  0.5876950000000  0.6548970000000 1.0
C      1  0.4762630000000  0.5925750000000  0.6713970000000 1.0
C      1  0.3869750000000  0.5877270000000  0.6305690000000 1.0
C      1  0.3317010000000  0.5927430000000  0.5494600000000 1.0
C      1  0.3317880000000  0.5876300000000  0.4512830000000 1.0
C      1  0.3826650000000  0.5923330000000  0.3670400000000 1.0
C      1  0.4723320000000  0.5870450000000  0.3258230000000 1.0
C      1  0.7134820000000  0.5334540000000  0.3570170000000 1.0
C      1  0.7479870000000  0.5212400000000  0.4952200000000 1.0
C      1  0.7162850000000  0.5332130000000  0.6339670000000 1.0
C      1  0.6050280000000  0.5211290000000  0.7227910000000 1.0
C      1  0.4657630000000  0.5334610000000  0.7520680000000 1.0
C      1  0.3387370000000  0.5208870000000  0.6876670000000 1.0
C      1  0.2540850000000  0.5333350000000  0.5734510000000 1.0
C      1  0.2593570000000  0.5212710000000  0.4312980000000 1.0
C      1  0.3280080000000  0.5339170000000  0.3065140000000 1.0
C      1  0.4597430000000  0.5212230000000  0.2508720000000 1.0
C      1  0.6002450000000  0.5209730000000  0.2693670000000 1.0
C      1  0.5092310000000  0.3381420000000  0.4967690000000 1.0
C      1  0.5009840000000  0.4275970000000  0.4967080000000 1.0
C      1  0.4983750000000  0.6015020000000  0.4976000000000 1.0
C      1  0.4990220000000  0.6843370000000  0.4974490000000 1.0
C      1  0.4977180000000  0.5120500000000  0.4981530000000 1.0
END
