TITL C-2158984-8299-888 -0.00197982778237629 3375 -401.310252191111 0 0 60 (C2) n - 1
REM
REM in /scratch/bkarasulu/869
REM
REM
REM
REM
REM
REM ./C.cell (a2850807a9bf4ad07a5b6933b78d9264)
REM AIRSS Version 0.9.1 bugfix July 2018 build 013d7b7c2542+ Fri, 06 Jul 2018 19:26:36 +0100
REM compiler GCC version 9.2.1 20190827 (Red Hat 9.2.1-1)
REM options -cpp -mtune=generic -march=x86-64 -g -O0 -fpre-include=/usr/include/finclude/math-vector-fortran.h
REM seed 1142959064 2082058667 1580297137 -657899302 -476412892 1998468401 -1534196886 -2136007156 414911233 1931563528 -1358351199 -1496819840 273268438 910795947 -1215590900 1508614313 922213762 -1793759623 -1348993836 -215337997 -217528520 -768538653 2016855045 -1221181603 -504734080 1966328210 1783286341 -600196951 -1703749649 -941839331 -2062589608 192407194 -1670135270
REM
CELL 1.54180   15.00000   15.00000   15.00000   90.00000   90.00000   90.00000
LATT -1
SFAC C  
C      1  0.7631920000000  0.6062460000000  0.4371360000000 1.0
C      1  0.7631920000000  0.3937540000000  0.5628640000000 1.0
C      1  0.4350420000000  0.6640370000000  0.6163180000000 1.0
C      1  0.4350420000000  0.3359630000000  0.3836820000000 1.0
C      1  0.5229520000000  0.2760360000000  0.5121300000000 1.0
C      1  0.5229520000000  0.7239640000000  0.4878700000000 1.0
C      1  0.2746200000000  0.4183290000000  0.5833090000000 1.0
C      1  0.2746200000000  0.5816710000000  0.4166910000000 1.0
C      1  0.5916420000000  0.3234790000000  0.3622350000000 1.0
C      1  0.5916420000000  0.6765210000000  0.6377650000000 1.0
C      1  0.3018090000000  0.4273960000000  0.4255500000000 1.0
C      1  0.3018090000000  0.5726040000000  0.5744500000000 1.0
C      1  0.5170990000000  0.6229200000000  0.2726190000000 1.0
C      1  0.5170990000000  0.3770800000000  0.7273810000000 1.0
C      1  0.5552560000000  0.4601190000000  0.4635970000000 1.0
C      1  0.5552560000000  0.5398810000000  0.5364030000000 1.0
C      1  0.5030800000000  0.5405950000000  0.2394940000000 1.0
C      1  0.5030800000000  0.4594050000000  0.7605060000000 1.0
C      1  0.6176310000000  0.4172270000000  0.5239300000000 1.0
C      1  0.6176310000000  0.5827730000000  0.4760700000000 1.0
C      1  0.5805580000000  0.4228330000000  0.6139010000000 1.0
C      1  0.5805580000000  0.5771670000000  0.3860990000000 1.0
C      1  0.4781210000000  0.6092070000000  0.3755150000000 1.0
C      1  0.4781210000000  0.3907930000000  0.6244850000000 1.0
C      1  0.4435430000000  0.3895260000000  0.3109550000000 1.0
C      1  0.4435430000000  0.6104740000000  0.6890450000000 1.0
C      1  0.4546790000000  0.6817470000000  0.4357960000000 1.0
C      1  0.4546790000000  0.3182530000000  0.5642040000000 1.0
C      1  0.5190230000000  0.2952190000000  0.4148000000000 1.0
C      1  0.5190230000000  0.7047810000000  0.5852000000000 1.0
C      1  0.4571360000000  0.4740950000000  0.4611260000000 1.0
C      1  0.4571360000000  0.5259050000000  0.5388740000000 1.0
C      1  0.3642570000000  0.3206850000000  0.5314610000000 1.0
C      1  0.3642570000000  0.6793150000000  0.4685390000000 1.0
C      1  0.4849630000000  0.5265960000000  0.6892690000000 1.0
C      1  0.4849630000000  0.4734040000000  0.3107310000000 1.0
C      1  0.5745960000000  0.5234350000000  0.6322620000000 1.0
C      1  0.5745960000000  0.4765650000000  0.3677380000000 1.0
C      1  0.4270490000000  0.4775720000000  0.6201760000000 1.0
C      1  0.4270490000000  0.5224280000000  0.3798240000000 1.0
C      1  0.3288770000000  0.5085550000000  0.3818840000000 1.0
C      1  0.3288770000000  0.4914450000000  0.6181160000000 1.0
C      1  0.5956460000000  0.7388710000000  0.4370110000000 1.0
C      1  0.5956460000000  0.2611290000000  0.5629890000000 1.0
C      1  0.7081870000000  0.4549180000000  0.5193350000000 1.0
C      1  0.7081870000000  0.5450820000000  0.4806650000000 1.0
C      1  0.6040370000000  0.3571730000000  0.6834220000000 1.0
C      1  0.6040370000000  0.6428270000000  0.3165780000000 1.0
C      1  0.2459890000000  0.5480830000000  0.5027050000000 1.0
C      1  0.2459890000000  0.4519170000000  0.4972950000000 1.0
C      1  0.3579760000000  0.6500720000000  0.5606180000000 1.0
C      1  0.3579760000000  0.3499280000000  0.4393820000000 1.0
C      1  0.2926290000000  0.3300180000000  0.5886570000000 1.0
C      1  0.2926290000000  0.6699820000000  0.4113430000000 1.0
C      1  0.7239990000000  0.6711460000000  0.4003830000000 1.0
C      1  0.7239990000000  0.3288540000000  0.5996170000000 1.0
C      1  0.6286320000000  0.3958570000000  0.3361210000000 1.0
C      1  0.6286320000000  0.6041430000000  0.6638790000000 1.0
C      1  0.6477820000000  0.2870900000000  0.6323190000000 1.0
C      1  0.6477820000000  0.7129100000000  0.3676810000000 1.0
END
