TITL C-2158988-7926-499 -0.00337589451387996 3375 -417.396468955854 0 0 60 (D6h) n - 1
REM
REM in /scratch/bkarasulu/868
REM
REM
REM
REM
REM
REM ./C.cell (a2850807a9bf4ad07a5b6933b78d9264)
REM AIRSS Version 0.9.1 bugfix July 2018 build 013d7b7c2542+ Fri, 06 Jul 2018 19:26:36 +0100
REM compiler GCC version 9.2.1 20190827 (Red Hat 9.2.1-1)
REM options -cpp -mtune=generic -march=x86-64 -g -O0 -fpre-include=/usr/include/finclude/math-vector-fortran.h
REM seed 1364000601 122827834 -305390666 1867867373 -657339561 327761850 1343340134 364795744 1458452490 1718599053 -1403065039 -1905209830 2018700073 -1296608785 -772301478 1549672061 1472960164 -834438867 -1081741602 -1871115123 14918384 1165430025 -2013044464 -174975631 -1928135283 -132109707 902570474 2134751564 -1686275345 639313676 -1416101853 1300451078 913099519
REM
CELL 1.54180   15.00000   15.00000   15.00000   90.00000   90.00000   90.00000
LATT -1
SFAC C  
C      1  0.3265640000000  0.6722610000000  0.5466460000000 1.0
C      1  0.5624650000000  0.7363360000000  0.5466470000000 1.0
C      1  0.7359060000000  0.5640700000000  0.5466470000000 1.0
C      1  0.6734360000000  0.3277390000000  0.5466460000000 1.0
C      1  0.4375350000000  0.2636640000000  0.5466470000000 1.0
C      1  0.2640940000000  0.4359300000000  0.5466470000000 1.0
C      1  0.3265640000000  0.6722610000000  0.4533540000000 1.0
C      1  0.5624650000000  0.7363360000000  0.4533530000000 1.0
C      1  0.7359060000000  0.5640700000000  0.4533530000000 1.0
C      1  0.6734360000000  0.3277390000000  0.4533540000000 1.0
C      1  0.4375350000000  0.2636640000000  0.4533530000000 1.0
C      1  0.2640940000000  0.4359300000000  0.4533530000000 1.0
C      1  0.5918240000000  0.3441380000000  0.6838000000000 1.0
C      1  0.4109320000000  0.3425450000000  0.6838000000000 1.0
C      1  0.3191030000000  0.4984080000000  0.6838020000000 1.0
C      1  0.4081760000000  0.6558620000000  0.6838000000000 1.0
C      1  0.5890680000000  0.6574550000000  0.6838000000000 1.0
C      1  0.6808970000000  0.5015920000000  0.6838020000000 1.0
C      1  0.5918240000000  0.3441380000000  0.3162000000000 1.0
C      1  0.4109320000000  0.3425450000000  0.3162000000000 1.0
C      1  0.3191030000000  0.4984080000000  0.3161980000000 1.0
C      1  0.4081760000000  0.6558620000000  0.3162000000000 1.0
C      1  0.5890680000000  0.6574550000000  0.3162000000000 1.0
C      1  0.6808970000000  0.5015920000000  0.3161980000000 1.0
C      1  0.4996370000000  0.3190970000000  0.3161980000000 1.0
C      1  0.3431540000000  0.4098630000000  0.3161990000000 1.0
C      1  0.3435170000000  0.5907630000000  0.3162000000000 1.0
C      1  0.5003630000000  0.6809030000000  0.3161980000000 1.0
C      1  0.6568460000000  0.5901370000000  0.3161990000000 1.0
C      1  0.6564830000000  0.4092370000000  0.3162000000000 1.0
C      1  0.4996370000000  0.3190970000000  0.6838020000000 1.0
C      1  0.3431540000000  0.4098630000000  0.6838010000000 1.0
C      1  0.3435170000000  0.5907630000000  0.6838000000000 1.0
C      1  0.5003630000000  0.6809030000000  0.6838020000000 1.0
C      1  0.6568460000000  0.5901370000000  0.6838010000000 1.0
C      1  0.6564830000000  0.4092370000000  0.6838000000000 1.0
C      1  0.3945920000000  0.7094980000000  0.6004530000000 1.0
C      1  0.6287260000000  0.6960360000000  0.6004520000000 1.0
C      1  0.7341390000000  0.4865380000000  0.6004540000000 1.0
C      1  0.6054080000000  0.2905020000000  0.6004530000000 1.0
C      1  0.3712740000000  0.3039640000000  0.6004520000000 1.0
C      1  0.2658610000000  0.5134620000000  0.6004540000000 1.0
C      1  0.3945920000000  0.7094980000000  0.3995470000000 1.0
C      1  0.6287260000000  0.6960360000000  0.3995480000000 1.0
C      1  0.7341390000000  0.4865380000000  0.3995460000000 1.0
C      1  0.6054080000000  0.2905020000000  0.3995470000000 1.0
C      1  0.3712740000000  0.3039640000000  0.3995480000000 1.0
C      1  0.2658610000000  0.5134620000000  0.3995460000000 1.0
C      1  0.3048430000000  0.3699450000000  0.3995480000000 1.0
C      1  0.2897900000000  0.6039810000000  0.3995470000000 1.0
C      1  0.4849470000000  0.7340420000000  0.3995460000000 1.0
C      1  0.6951570000000  0.6300550000000  0.3995480000000 1.0
C      1  0.7102100000000  0.3960190000000  0.3995470000000 1.0
C      1  0.5150530000000  0.2659580000000  0.3995460000000 1.0
C      1  0.3048430000000  0.3699450000000  0.6004520000000 1.0
C      1  0.2897900000000  0.6039810000000  0.6004530000000 1.0
C      1  0.4849470000000  0.7340420000000  0.6004540000000 1.0
C      1  0.6951570000000  0.6300550000000  0.6004520000000 1.0
C      1  0.7102100000000  0.3960190000000  0.6004530000000 1.0
C      1  0.5150530000000  0.2659580000000  0.6004540000000 1.0
END
