TITL C-2158988-7926-880 -0.00223024446775706 3375 -421.533067868997 0 0 60 (Cs) n - 1
REM
REM in /scratch/bkarasulu/868
REM
REM
REM
REM
REM
REM ./C.cell (a2850807a9bf4ad07a5b6933b78d9264)
REM AIRSS Version 0.9.1 bugfix July 2018 build 013d7b7c2542+ Fri, 06 Jul 2018 19:26:36 +0100
REM compiler GCC version 9.2.1 20190827 (Red Hat 9.2.1-1)
REM options -cpp -mtune=generic -march=x86-64 -g -O0 -fpre-include=/usr/include/finclude/math-vector-fortran.h
REM seed -1202217094 -1623865570 1986209066 1203896871 -1629408874 -1897918467 -1059945341 -912079525 -664416196 924664207 780175295 -2065281360 -92540526 2096941528 818174391 -841607782 -963411025 325480742 2116681243 -2128346880 520442621 -2066166154 485843959 -1247917995 1275433746 -162349236 2060862230 -698543518 -1844550624 -1345151073 -646639508 -105930480 1763948780
REM
CELL 1.54180   15.00000   15.00000   15.00000   90.00000   90.00000   90.00000
LATT -1
SFAC C  
C      1  0.4350880000000  0.5457790000000  0.2962300000000 1.0
C      1  0.4380630000000  0.7042390000000  0.4818820000000 1.0
C      1  0.4384570000000  0.5787620000000  0.6894860000000 1.0
C      1  0.4357140000000  0.3414350000000  0.6361520000000 1.0
C      1  0.4339330000000  0.3194290000000  0.3916920000000 1.0
C      1  0.3363530000000  0.5489120000000  0.4291080000000 1.0
C      1  0.3358530000000  0.5812830000000  0.5255660000000 1.0
C      1  0.3363840000000  0.4995710000000  0.5861900000000 1.0
C      1  0.3367720000000  0.4163020000000  0.5273260000000 1.0
C      1  0.3367530000000  0.4469410000000  0.4297860000000 1.0
C      1  0.3937220000000  0.5001670000000  0.6672780000000 1.0
C      1  0.3924440000000  0.3386410000000  0.5535250000000 1.0
C      1  0.3924070000000  0.3982150000000  0.3638660000000 1.0
C      1  0.3936650000000  0.5957720000000  0.3629060000000 1.0
C      1  0.3946310000000  0.6576830000000  0.5495520000000 1.0
C      1  0.6087620000000  0.4562240000000  0.6985900000000 1.0
C      1  0.6066150000000  0.2995570000000  0.5183880000000 1.0
C      1  0.6083120000000  0.4217220000000  0.3139910000000 1.0
C      1  0.6116210000000  0.6551300000000  0.3659660000000 1.0
C      1  0.6122300000000  0.6772590000000  0.6052500000000 1.0
C      1  0.5280950000000  0.3288360000000  0.6569640000000 1.0
C      1  0.5268670000000  0.2978880000000  0.3849950000000 1.0
C      1  0.5281000000000  0.5475680000000  0.2728240000000 1.0
C      1  0.5302230000000  0.7303360000000  0.4748300000000 1.0
C      1  0.5300690000000  0.5958970000000  0.7112440000000 1.0
C      1  0.5300040000000  0.6994670000000  0.3815190000000 1.0
C      1  0.5302570000000  0.6745770000000  0.6523430000000 1.0
C      1  0.5281860000000  0.4091290000000  0.7135620000000 1.0
C      1  0.5268860000000  0.2684300000000  0.4787720000000 1.0
C      1  0.5280200000000  0.4493330000000  0.2733450000000 1.0
C      1  0.4380900000000  0.6571890000000  0.6316740000000 1.0
C      1  0.4351650000000  0.4210320000000  0.6933760000000 1.0
C      1  0.4339520000000  0.2899210000000  0.4856320000000 1.0
C      1  0.4356480000000  0.4477580000000  0.2976610000000 1.0
C      1  0.4383990000000  0.6729550000000  0.3896090000000 1.0
C      1  0.5154970000000  0.4550850000000  0.5629160000000 1.0
C      1  0.5089620000000  0.4257950000000  0.4766900000000 1.0
C      1  0.5154830000000  0.4991290000000  0.4226970000000 1.0
C      1  0.5334560000000  0.5708620000000  0.4751190000000 1.0
C      1  0.5334620000000  0.5439120000000  0.5609200000000 1.0
C      1  0.6554920000000  0.3482510000000  0.4523020000000 1.0
C      1  0.6583940000000  0.5001170000000  0.3383700000000 1.0
C      1  0.6630560000000  0.6578300000000  0.4480640000000 1.0
C      1  0.6630900000000  0.5998040000000  0.6327910000000 1.0
C      1  0.6584470000000  0.4076970000000  0.6326040000000 1.0
C      1  0.6065840000000  0.3460860000000  0.3702610000000 1.0
C      1  0.6086880000000  0.5776540000000  0.3120030000000 1.0
C      1  0.6122140000000  0.7056190000000  0.5149660000000 1.0
C      1  0.6116860000000  0.5506410000000  0.6986190000000 1.0
C      1  0.6083690000000  0.3294350000000  0.6077990000000 1.0
C      1  0.2333700000000  0.4993010000000  0.5840930000000 1.0
C      1  0.2341820000000  0.4194450000000  0.5262050000000 1.0
C      1  0.2341630000000  0.4488670000000  0.4325380000000 1.0
C      1  0.2333390000000  0.5474810000000  0.4307090000000 1.0
C      1  0.2325000000000  0.5797820000000  0.5251150000000 1.0
C      1  0.7059190000000  0.4557250000000  0.5667930000000 1.0
C      1  0.7042460000000  0.4254340000000  0.4765350000000 1.0
C      1  0.7058930000000  0.5018940000000  0.4198070000000 1.0
C      1  0.7088760000000  0.5797340000000  0.4748880000000 1.0
C      1  0.7088930000000  0.5510790000000  0.5661120000000 1.0
END
