TITL C-2159252-5904-484 -0.00129853679426987 3375 -380.821709138514 0 0 60 (Td) n - 1
REM
REM in /scratch/bkarasulu/870
REM
REM
REM
REM
REM
REM ./C.cell (a2850807a9bf4ad07a5b6933b78d9264)
REM AIRSS Version 0.9.1 bugfix July 2018 build 013d7b7c2542+ Fri, 06 Jul 2018 19:26:36 +0100
REM compiler GCC version 9.2.1 20190827 (Red Hat 9.2.1-1)
REM options -cpp -mtune=generic -march=x86-64 -g -O0 -fpre-include=/usr/include/finclude/math-vector-fortran.h
REM seed 573488544 -1774094824 -2076405468 -837120397 424609644 -425278005 1987903062 -2048136980 1499800435 -1425653938 566918702 833219292 516354016 1841967822 -1770532119 1863811227 1483200518 -503211739 299809968 -1314107438 -582145514 1459436587 -678558100 -190112543 -1515679550 1130856810 746957656 -1934180872 1503567476 -2031377062 -962926418 -1559013831 -354557890
REM
CELL 1.54180   15.00000   15.00000   15.00000   90.00000   90.00000   90.00000
LATT -1
SFAC C  
C      1  0.5249000000000  0.5928520000000  0.7034880000000 1.0
C      1  0.7034880000000  0.5249000000000  0.5928520000000 1.0
C      1  0.5928520000000  0.7034880000000  0.5249000000000 1.0
C      1  0.4751000000000  0.5928520000000  0.2965120000000 1.0
C      1  0.5249000000000  0.4071480000000  0.2965120000000 1.0
C      1  0.4751000000000  0.4071480000000  0.7034880000000 1.0
C      1  0.2965120000000  0.5249000000000  0.4071480000000 1.0
C      1  0.7034880000000  0.4751000000000  0.4071480000000 1.0
C      1  0.2965120000000  0.4751000000000  0.5928520000000 1.0
C      1  0.4071480000000  0.7034880000000  0.4751000000000 1.0
C      1  0.5928520000000  0.2965120000000  0.4751000000000 1.0
C      1  0.4071480000000  0.2965120000000  0.5249000000000 1.0
C      1  0.7034880000000  0.5928520000000  0.5249000000000 1.0
C      1  0.5928520000000  0.5249000000000  0.7034880000000 1.0
C      1  0.5249000000000  0.7034880000000  0.5928520000000 1.0
C      1  0.2965120000000  0.5928520000000  0.4751000000000 1.0
C      1  0.2965120000000  0.4071480000000  0.5249000000000 1.0
C      1  0.7034880000000  0.4071480000000  0.4751000000000 1.0
C      1  0.4071480000000  0.5249000000000  0.2965120000000 1.0
C      1  0.4071480000000  0.4751000000000  0.7034880000000 1.0
C      1  0.5928520000000  0.4751000000000  0.2965120000000 1.0
C      1  0.4751000000000  0.7034880000000  0.4071480000000 1.0
C      1  0.4751000000000  0.2965120000000  0.5928520000000 1.0
C      1  0.5249000000000  0.2965120000000  0.4071480000000 1.0
C      1  0.4341380000000  0.7053360000000  0.6322100000000 1.0
C      1  0.6322100000000  0.4341380000000  0.7053360000000 1.0
C      1  0.7053360000000  0.6322100000000  0.4341380000000 1.0
C      1  0.5658620000000  0.7053360000000  0.3677900000000 1.0
C      1  0.4341380000000  0.2946640000000  0.3677900000000 1.0
C      1  0.5658620000000  0.2946640000000  0.6322100000000 1.0
C      1  0.3677900000000  0.4341380000000  0.2946640000000 1.0
C      1  0.6322100000000  0.5658620000000  0.2946640000000 1.0
C      1  0.3677900000000  0.5658620000000  0.7053360000000 1.0
C      1  0.2946640000000  0.6322100000000  0.5658620000000 1.0
C      1  0.7053360000000  0.3677900000000  0.5658620000000 1.0
C      1  0.2946640000000  0.3677900000000  0.4341380000000 1.0
C      1  0.6322100000000  0.7053360000000  0.4341380000000 1.0
C      1  0.7053360000000  0.4341380000000  0.6322100000000 1.0
C      1  0.4341380000000  0.6322100000000  0.7053360000000 1.0
C      1  0.3677900000000  0.7053360000000  0.5658620000000 1.0
C      1  0.3677900000000  0.2946640000000  0.4341380000000 1.0
C      1  0.6322100000000  0.2946640000000  0.5658620000000 1.0
C      1  0.2946640000000  0.4341380000000  0.3677900000000 1.0
C      1  0.2946640000000  0.5658620000000  0.6322100000000 1.0
C      1  0.7053360000000  0.5658620000000  0.3677900000000 1.0
C      1  0.5658620000000  0.6322100000000  0.2946640000000 1.0
C      1  0.5658620000000  0.3677900000000  0.7053360000000 1.0
C      1  0.4341380000000  0.3677900000000  0.2946640000000 1.0
C      1  0.6043690000000  0.4668480000000  0.3956310000000 1.0
C      1  0.6043690000000  0.3956310000000  0.4668480000000 1.0
C      1  0.5331520000000  0.3956310000000  0.3956310000000 1.0
C      1  0.4668480000000  0.6043690000000  0.3956310000000 1.0
C      1  0.3956310000000  0.4668480000000  0.6043690000000 1.0
C      1  0.4668480000000  0.3956310000000  0.6043690000000 1.0
C      1  0.3956310000000  0.5331520000000  0.3956310000000 1.0
C      1  0.3956310000000  0.3956310000000  0.5331520000000 1.0
C      1  0.6043690000000  0.6043690000000  0.5331520000000 1.0
C      1  0.3956310000000  0.6043690000000  0.4668480000000 1.0
C      1  0.5331520000000  0.6043690000000  0.6043690000000 1.0
C      1  0.6043690000000  0.5331520000000  0.6043690000000 1.0
END
