TITL C-2158988-7926-489 -0.00300912838377408 3375 -421.666710421504 0 0 60 (Td) n - 1
REM
REM in /scratch/bkarasulu/868
REM
REM
REM
REM
REM
REM ./C.cell (a2850807a9bf4ad07a5b6933b78d9264)
REM AIRSS Version 0.9.1 bugfix July 2018 build 013d7b7c2542+ Fri, 06 Jul 2018 19:26:36 +0100
REM compiler GCC version 9.2.1 20190827 (Red Hat 9.2.1-1)
REM options -cpp -mtune=generic -march=x86-64 -g -O0 -fpre-include=/usr/include/finclude/math-vector-fortran.h
REM seed 527268918 1047142008 -816106616 -1097960735 1335336641 330611708 1225030098 -1905388167 397286234 1348202849 -1776400286 919726218 284676434 -841827175 1020176695 -1551412874 2028698151 -1181472539 2062997577 -349723249 -586569062 853464278 -772594776 1548381760 -866364054 -345626332 -766033837 777004294 1699158196 747889842 931830778 -1911273826 2129662589
REM
CELL 1.54180   15.00000   15.00000   15.00000   90.00000   90.00000   90.00000
LATT -1
SFAC C  
C      1  0.4582780000000  0.6078300000000  0.2838800000000 1.0
C      1  0.2838800000000  0.4582780000000  0.6078300000000 1.0
C      1  0.6078300000000  0.2838800000000  0.4582780000000 1.0
C      1  0.5417220000000  0.6078300000000  0.7161200000000 1.0
C      1  0.4582780000000  0.3921700000000  0.7161200000000 1.0
C      1  0.5417220000000  0.3921700000000  0.2838800000000 1.0
C      1  0.7161200000000  0.4582780000000  0.3921700000000 1.0
C      1  0.2838800000000  0.5417220000000  0.3921700000000 1.0
C      1  0.7161200000000  0.5417220000000  0.6078300000000 1.0
C      1  0.3921700000000  0.2838800000000  0.5417220000000 1.0
C      1  0.6078300000000  0.7161200000000  0.5417220000000 1.0
C      1  0.3921700000000  0.7161200000000  0.4582780000000 1.0
C      1  0.2838800000000  0.6078300000000  0.4582780000000 1.0
C      1  0.6078300000000  0.4582780000000  0.2838800000000 1.0
C      1  0.4582780000000  0.2838800000000  0.6078300000000 1.0
C      1  0.7161200000000  0.6078300000000  0.5417220000000 1.0
C      1  0.7161200000000  0.3921700000000  0.4582780000000 1.0
C      1  0.2838800000000  0.3921700000000  0.5417220000000 1.0
C      1  0.3921700000000  0.4582780000000  0.7161200000000 1.0
C      1  0.3921700000000  0.5417220000000  0.2838800000000 1.0
C      1  0.6078300000000  0.5417220000000  0.7161200000000 1.0
C      1  0.5417220000000  0.2838800000000  0.3921700000000 1.0
C      1  0.5417220000000  0.7161200000000  0.6078300000000 1.0
C      1  0.4582780000000  0.7161200000000  0.3921700000000 1.0
C      1  0.4549450000000  0.6106810000000  0.6787780000000 1.0
C      1  0.6787780000000  0.4549450000000  0.6106810000000 1.0
C      1  0.6106810000000  0.6787780000000  0.4549450000000 1.0
C      1  0.5450550000000  0.6106810000000  0.3212220000000 1.0
C      1  0.4549450000000  0.3893190000000  0.3212220000000 1.0
C      1  0.5450550000000  0.3893190000000  0.6787780000000 1.0
C      1  0.3212220000000  0.4549450000000  0.3893190000000 1.0
C      1  0.6787780000000  0.5450550000000  0.3893190000000 1.0
C      1  0.3212220000000  0.5450550000000  0.6106810000000 1.0
C      1  0.3893190000000  0.6787780000000  0.5450550000000 1.0
C      1  0.6106810000000  0.3212220000000  0.5450550000000 1.0
C      1  0.3893190000000  0.3212220000000  0.4549450000000 1.0
C      1  0.6787780000000  0.6106810000000  0.4549450000000 1.0
C      1  0.6106810000000  0.4549450000000  0.6787780000000 1.0
C      1  0.4549450000000  0.6787780000000  0.6106810000000 1.0
C      1  0.3212220000000  0.6106810000000  0.5450550000000 1.0
C      1  0.3212220000000  0.3893190000000  0.4549450000000 1.0
C      1  0.6787780000000  0.3893190000000  0.5450550000000 1.0
C      1  0.3893190000000  0.4549450000000  0.3212220000000 1.0
C      1  0.3893190000000  0.5450550000000  0.6787780000000 1.0
C      1  0.6106810000000  0.5450550000000  0.3212220000000 1.0
C      1  0.5450550000000  0.6787780000000  0.3893190000000 1.0
C      1  0.5450550000000  0.3212220000000  0.6106810000000 1.0
C      1  0.4549450000000  0.3212220000000  0.3893190000000 1.0
C      1  0.6745900000000  0.3254100000000  0.3989880000000 1.0
C      1  0.3254100000000  0.6745900000000  0.3989880000000 1.0
C      1  0.3989880000000  0.6745900000000  0.3254100000000 1.0
C      1  0.3254100000000  0.3989880000000  0.6745900000000 1.0
C      1  0.3254100000000  0.3254100000000  0.6010120000000 1.0
C      1  0.6745900000000  0.6745900000000  0.6010120000000 1.0
C      1  0.3989880000000  0.3254100000000  0.6745900000000 1.0
C      1  0.6010120000000  0.3254100000000  0.3254100000000 1.0
C      1  0.6745900000000  0.3989880000000  0.3254100000000 1.0
C      1  0.3254100000000  0.6010120000000  0.3254100000000 1.0
C      1  0.6745900000000  0.6010120000000  0.6745900000000 1.0
C      1  0.6010120000000  0.6745900000000  0.6745900000000 1.0
END
