TITL C-2158984-8299-1114 -0.00220604149699159 3375 -412.738004372788 0 0 60 (Td) n - 1
REM
REM in /scratch/bkarasulu/869
REM
REM
REM
REM
REM
REM ./C.cell (a2850807a9bf4ad07a5b6933b78d9264)
REM AIRSS Version 0.9.1 bugfix July 2018 build 013d7b7c2542+ Fri, 06 Jul 2018 19:26:36 +0100
REM compiler GCC version 9.2.1 20190827 (Red Hat 9.2.1-1)
REM options -cpp -mtune=generic -march=x86-64 -g -O0 -fpre-include=/usr/include/finclude/math-vector-fortran.h
REM seed 121838494 -1485185727 -1834942126 2048126107 1791925685 -150616413 -666311503 32422867 -2007713740 553189430 -1144663977 -1638961388 1848466195 370302707 2043561030 -2080826734 -173743269 -1263469576 1225323594 1003147783 -94060413 1403406845 -1323634764 -909901126 -1300462064 -1444051056 1849216087 1278389479 847139522 -1856877229 -1716080826 -1467165273 1218667648
REM
CELL 1.54180   15.00000   15.00000   15.00000   90.00000   90.00000   90.00000
LATT -1
SFAC C  
C      1  0.6871440000000  0.6200050000000  0.5536640000000 1.0
C      1  0.5536640000000  0.6871440000000  0.6200050000000 1.0
C      1  0.6200050000000  0.5536640000000  0.6871440000000 1.0
C      1  0.3128560000000  0.6200050000000  0.4463360000000 1.0
C      1  0.6871440000000  0.3799950000000  0.4463360000000 1.0
C      1  0.3128560000000  0.3799950000000  0.5536640000000 1.0
C      1  0.4463360000000  0.6871440000000  0.3799950000000 1.0
C      1  0.5536640000000  0.3128560000000  0.3799950000000 1.0
C      1  0.4463360000000  0.3128560000000  0.6200050000000 1.0
C      1  0.3799950000000  0.5536640000000  0.3128560000000 1.0
C      1  0.6200050000000  0.4463360000000  0.3128560000000 1.0
C      1  0.3799950000000  0.4463360000000  0.6871440000000 1.0
C      1  0.5536640000000  0.6200050000000  0.6871440000000 1.0
C      1  0.6200050000000  0.6871440000000  0.5536640000000 1.0
C      1  0.6871440000000  0.5536640000000  0.6200050000000 1.0
C      1  0.4463360000000  0.6200050000000  0.3128560000000 1.0
C      1  0.4463360000000  0.3799950000000  0.6871440000000 1.0
C      1  0.5536640000000  0.3799950000000  0.3128560000000 1.0
C      1  0.3799950000000  0.6871440000000  0.4463360000000 1.0
C      1  0.3799950000000  0.3128560000000  0.5536640000000 1.0
C      1  0.6200050000000  0.3128560000000  0.4463360000000 1.0
C      1  0.3128560000000  0.5536640000000  0.3799950000000 1.0
C      1  0.3128560000000  0.4463360000000  0.6200050000000 1.0
C      1  0.6871440000000  0.4463360000000  0.3799950000000 1.0
C      1  0.5311610000000  0.7230970000000  0.4061840000000 1.0
C      1  0.4061840000000  0.5311610000000  0.7230970000000 1.0
C      1  0.7230970000000  0.4061840000000  0.5311610000000 1.0
C      1  0.4688390000000  0.7230970000000  0.5938160000000 1.0
C      1  0.5311610000000  0.2769030000000  0.5938160000000 1.0
C      1  0.4688390000000  0.2769030000000  0.4061840000000 1.0
C      1  0.5938160000000  0.5311610000000  0.2769030000000 1.0
C      1  0.4061840000000  0.4688390000000  0.2769030000000 1.0
C      1  0.5938160000000  0.4688390000000  0.7230970000000 1.0
C      1  0.2769030000000  0.4061840000000  0.4688390000000 1.0
C      1  0.7230970000000  0.5938160000000  0.4688390000000 1.0
C      1  0.2769030000000  0.5938160000000  0.5311610000000 1.0
C      1  0.4061840000000  0.7230970000000  0.5311610000000 1.0
C      1  0.7230970000000  0.5311610000000  0.4061840000000 1.0
C      1  0.5311610000000  0.4061840000000  0.7230970000000 1.0
C      1  0.5938160000000  0.7230970000000  0.4688390000000 1.0
C      1  0.5938160000000  0.2769030000000  0.5311610000000 1.0
C      1  0.4061840000000  0.2769030000000  0.4688390000000 1.0
C      1  0.2769030000000  0.5311610000000  0.5938160000000 1.0
C      1  0.2769030000000  0.4688390000000  0.4061840000000 1.0
C      1  0.7230970000000  0.4688390000000  0.5938160000000 1.0
C      1  0.4688390000000  0.4061840000000  0.2769030000000 1.0
C      1  0.4688390000000  0.5938160000000  0.7230970000000 1.0
C      1  0.5311610000000  0.5938160000000  0.2769030000000 1.0
C      1  0.6223720000000  0.6223720000000  0.3080110000000 1.0
C      1  0.6223720000000  0.3776280000000  0.6919890000000 1.0
C      1  0.3776280000000  0.6919890000000  0.6223720000000 1.0
C      1  0.3776280000000  0.6223720000000  0.6919890000000 1.0
C      1  0.6919890000000  0.3776280000000  0.6223720000000 1.0
C      1  0.3080110000000  0.3776280000000  0.3776280000000 1.0
C      1  0.6919890000000  0.6223720000000  0.3776280000000 1.0
C      1  0.3080110000000  0.6223720000000  0.6223720000000 1.0
C      1  0.6223720000000  0.6919890000000  0.3776280000000 1.0
C      1  0.6223720000000  0.3080110000000  0.6223720000000 1.0
C      1  0.3776280000000  0.3080110000000  0.3776280000000 1.0
C      1  0.3776280000000  0.3776280000000  0.3080110000000 1.0
END
