TITL C-2159252-5904-205 -0.00183298932158647 3375 -413.115195337806 0 0 60 (C3) n - 1
REM
REM in /scratch/bkarasulu/870
REM
REM
REM
REM
REM
REM ./C.cell (a2850807a9bf4ad07a5b6933b78d9264)
REM AIRSS Version 0.9.1 bugfix July 2018 build 013d7b7c2542+ Fri, 06 Jul 2018 19:26:36 +0100
REM compiler GCC version 9.2.1 20190827 (Red Hat 9.2.1-1)
REM options -cpp -mtune=generic -march=x86-64 -g -O0 -fpre-include=/usr/include/finclude/math-vector-fortran.h
REM seed 585498326 -2079128691 1226085974 -1518110780 1466557084 -1051541624 113048587 1536056471 942305985 -671355633 1254966988 -422997116 813194562 -473023188 -1072807983 -321813611 -839207998 2103404289 672840331 1358453952 -447147971 1725729635 -1263718737 -201518345 -1615773786 557945631 -294877550 1399253860 552026137 -372985357 1962857626 741261888 893149997
REM
CELL 1.54180   15.00000   15.00000   15.00000   90.00000   90.00000   90.00000
LATT -1
SFAC C  
C      1  0.5107070000000  0.2720360000000  0.4238170000000 1.0
C      1  0.5106980000000  0.5480050000000  0.7355150000000 1.0
C      1  0.5107090000000  0.6799590000000  0.3406710000000 1.0
C      1  0.5107070000000  0.7279640000000  0.4238170000000 1.0
C      1  0.5106980000000  0.4519950000000  0.7355150000000 1.0
C      1  0.5107090000000  0.3200410000000  0.3406710000000 1.0
C      1  0.4057070000000  0.4526960000000  0.2695470000000 1.0
C      1  0.4056970000000  0.3240760000000  0.6561870000000 1.0
C      1  0.4056990000000  0.7232290000000  0.5742550000000 1.0
C      1  0.4057070000000  0.5473040000000  0.2695470000000 1.0
C      1  0.4056970000000  0.6759240000000  0.6561870000000 1.0
C      1  0.4056990000000  0.2767710000000  0.5742550000000 1.0
C      1  0.4416820000000  0.4509980000000  0.4142180000000 1.0
C      1  0.4416770000000  0.4502120000000  0.5853250000000 1.0
C      1  0.4416790000000  0.5987900000000  0.5004520000000 1.0
C      1  0.4416820000000  0.5490020000000  0.4142180000000 1.0
C      1  0.4416770000000  0.5497880000000  0.5853250000000 1.0
C      1  0.4416790000000  0.4012100000000  0.5004520000000 1.0
C      1  0.4827240000000  0.6084290000000  0.6625550000000 1.0
C      1  0.4827330000000  0.5865620000000  0.3248190000000 1.0
C      1  0.4827290000000  0.3050060000000  0.5126250000000 1.0
C      1  0.4827240000000  0.3915710000000  0.6625550000000 1.0
C      1  0.4827330000000  0.4134380000000  0.3248190000000 1.0
C      1  0.4827290000000  0.6949940000000  0.5126250000000 1.0
C      1  0.3405070000000  0.3662360000000  0.4743200000000 1.0
C      1  0.3405020000000  0.5446470000000  0.6286750000000 1.0
C      1  0.3405080000000  0.5891150000000  0.3969910000000 1.0
C      1  0.3405070000000  0.6337640000000  0.4743200000000 1.0
C      1  0.3405020000000  0.4553530000000  0.6286750000000 1.0
C      1  0.3405080000000  0.4108850000000  0.3969910000000 1.0
C      1  0.3182910000000  0.4491810000000  0.3174450000000 1.0
C      1  0.3182820000000  0.3673160000000  0.6352800000000 1.0
C      1  0.3182840000000  0.6835040000000  0.5472590000000 1.0
C      1  0.3182910000000  0.5508190000000  0.3174450000000 1.0
C      1  0.3182820000000  0.6326840000000  0.6352800000000 1.0
C      1  0.3182840000000  0.3164960000000  0.5472590000000 1.0
C      1  0.6399730000000  0.4088400000000  0.3420940000000 1.0
C      1  0.6399640000000  0.4088270000000  0.6579070000000 1.0
C      1  0.6399690000000  0.6823350000000  0.5000120000000 1.0
C      1  0.6399730000000  0.5911600000000  0.3420940000000 1.0
C      1  0.6399640000000  0.5911730000000  0.6579070000000 1.0
C      1  0.6399690000000  0.3176650000000  0.5000120000000 1.0
C      1  0.5704170000000  0.4552050000000  0.3004360000000 1.0
C      1  0.5704080000000  0.3495700000000  0.6385780000000 1.0
C      1  0.5704100000000  0.6952260000000  0.5609910000000 1.0
C      1  0.5704170000000  0.5447950000000  0.3004360000000 1.0
C      1  0.5704080000000  0.6504300000000  0.6385780000000 1.0
C      1  0.5704100000000  0.3047740000000  0.5609910000000 1.0
C      1  0.6805960000000  0.5953910000000  0.4999180000000 1.0
C      1  0.6805980000000  0.4522290000000  0.4174380000000 1.0
C      1  0.6805940000000  0.4523810000000  0.5826600000000 1.0
C      1  0.6805960000000  0.4046090000000  0.4999180000000 1.0
C      1  0.6805980000000  0.5477710000000  0.4174380000000 1.0
C      1  0.6805940000000  0.5476190000000  0.5826600000000 1.0
C      1  0.6094210000000  0.2747250000000  0.4229690000000 1.0
C      1  0.6094120000000  0.5459240000000  0.7336160000000 1.0
C      1  0.6094220000000  0.6793510000000  0.3434270000000 1.0
C      1  0.6094210000000  0.7252750000000  0.4229690000000 1.0
C      1  0.6094120000000  0.4540760000000  0.7336160000000 1.0
C      1  0.6094220000000  0.3206490000000  0.3434270000000 1.0
END
