TITL C-2159255-4746-1327 0.118252927106328 3375 -417.154292099912 0 0 60 (C1) n - 1
REM
REM in /scratch/bkarasulu/871
REM
REM
REM
REM
REM
REM ./C.cell (a2850807a9bf4ad07a5b6933b78d9264)
REM AIRSS Version 0.9.1 bugfix July 2018 build 013d7b7c2542+ Fri, 06 Jul 2018 19:26:36 +0100
REM compiler GCC version 9.2.1 20190827 (Red Hat 9.2.1-1)
REM options -cpp -mtune=generic -march=x86-64 -g -O0 -fpre-include=/usr/include/finclude/math-vector-fortran.h
REM seed -713846441 -1238534552 -568241574 851656844 1029840715 -1389769108 -1150734253 137514206 -301114563 1295086841 -1483132294 -1284432993 2143469402 425252317 1648934339 1227483681 -1815388530 -1198997935 -562930625 1976648948 586718190 244507594 1029048290 -1174411171 -11845908 1191708205 -1862830385 776785689 996242939 1488889778 1434613652 490316195 -391479719
REM
CELL 1.54180   15.00000   15.00000   15.00000   90.00000   90.00000   90.00000
LATT -1
SFAC C  
C      1  0.4877810000000  0.6315030000000  0.6913380000000 1.0
C      1  0.4116180000000  0.5039410000000  0.7051270000000 1.0
C      1  0.5912710000000  0.4705510000000  0.6954990000000 1.0
C      1  0.4265520000000  0.4984510000000  0.4952860000000 1.0
C      1  0.5664460000000  0.4205220000000  0.4946240000000 1.0
C      1  0.5076070000000  0.6658270000000  0.4910120000000 1.0
C      1  0.3071800000000  0.4330500000000  0.5667230000000 1.0
C      1  0.6355670000000  0.3734370000000  0.5539950000000 1.0
C      1  0.5954230000000  0.7159840000000  0.4989720000000 1.0
C      1  0.4186030000000  0.6772670000000  0.5470220000000 1.0
C      1  0.3776620000000  0.3811670000000  0.6028110000000 1.0
C      1  0.6768290000000  0.4627830000000  0.5571990000000 1.0
C      1  0.6288960000000  0.2216890000000  0.4822900000000 1.0
C      1  0.6778800000000  0.7223970000000  0.3610270000000 1.0
C      1  0.2184280000000  0.4632800000000  0.4359110000000 1.0
C      1  0.4134700000000  0.3279880000000  0.4456960000000 1.0
C      1  0.6521280000000  0.4871010000000  0.3954710000000 1.0
C      1  0.3815470000000  0.6282480000000  0.4021160000000 1.0
C      1  0.3861200000000  0.4750500000000  0.3537560000000 1.0
C      1  0.5447480000000  0.3620790000000  0.3490870000000 1.0
C      1  0.5203870000000  0.5702520000000  0.3442110000000 1.0
C      1  0.6493780000000  0.6105460000000  0.6230740000000 1.0
C      1  0.3546650000000  0.5645080000000  0.6544440000000 1.0
C      1  0.5286740000000  0.4019510000000  0.6694670000000 1.0
C      1  0.4964550000000  0.2987750000000  0.4077500000000 1.0
C      1  0.6190050000000  0.5648840000000  0.3521550000000 1.0
C      1  0.3351610000000  0.5528400000000  0.3710840000000 1.0
C      1  0.5447620000000  0.2590240000000  0.4785020000000 1.0
C      1  0.6770550000000  0.6326990000000  0.3815230000000 1.0
C      1  0.2677800000000  0.5364110000000  0.4357280000000 1.0
C      1  0.4070410000000  0.6437990000000  0.6374320000000 1.0
C      1  0.4329440000000  0.4180020000000  0.6728140000000 1.0
C      1  0.6552780000000  0.5120990000000  0.6345420000000 1.0
C      1  0.2861300000000  0.4167790000000  0.4727840000000 1.0
C      1  0.6682540000000  0.2933000000000  0.5078380000000 1.0
C      1  0.6295730000000  0.7554160000000  0.4246080000000 1.0
C      1  0.4742960000000  0.6352050000000  0.3972650000000 1.0
C      1  0.3585260000000  0.3948500000000  0.4120110000000 1.0
C      1  0.5980450000000  0.4127010000000  0.4049050000000 1.0
C      1  0.7122750000000  0.6048370000000  0.4722430000000 1.0
C      1  0.2857360000000  0.5851790000000  0.5142290000000 1.0
C      1  0.5039480000000  0.2828720000000  0.5631400000000 1.0
C      1  0.2993190000000  0.5278880000000  0.5896100000000 1.0
C      1  0.5620310000000  0.3373820000000  0.6155310000000 1.0
C      1  0.6725350000000  0.6544470000000  0.5412700000000 1.0
C      1  0.3490690000000  0.6500630000000  0.4903720000000 1.0
C      1  0.4178880000000  0.3166520000000  0.5441360000000 1.0
C      1  0.6985450000000  0.5102930000000  0.4760170000000 1.0
C      1  0.4808980000000  0.5542970000000  0.7452340000000 1.0
C      1  0.5790710000000  0.4393070000000  0.1146840000000 1.0
C      1  0.5853090000000  0.4552280000000  0.0308917000000 1.0
C      1  0.5355030000000  0.5899930000000  0.5454480000000 1.0
C      1  0.5793170000000  0.4898000000000  0.8648040000000 1.0
C      1  0.5182520000000  0.4155970000000  0.2733390000000 1.0
C      1  0.4694260000000  0.4926840000000  0.3134800000000 1.0
C      1  0.5601690000000  0.5104710000000  0.7799750000000 1.0
C      1  0.5582830000000  0.4170690000000  0.1931520000000 1.0
C      1  0.5597530000000  0.6333740000000  0.6359920000000 1.0
C      1  0.5113850000000  0.4968300000000  0.5234410000000 1.0
C      1  0.5836730000000  0.4719780000000  0.9473690000000 1.0
END
