TITL C-2159255-4746-627 -0.00208298376564848 3375 -389.032833873998 0 0 60 (Td) n - 1
REM
REM in /scratch/bkarasulu/871
REM
REM
REM
REM
REM
REM ./C.cell (a2850807a9bf4ad07a5b6933b78d9264)
REM AIRSS Version 0.9.1 bugfix July 2018 build 013d7b7c2542+ Fri, 06 Jul 2018 19:26:36 +0100
REM compiler GCC version 9.2.1 20190827 (Red Hat 9.2.1-1)
REM options -cpp -mtune=generic -march=x86-64 -g -O0 -fpre-include=/usr/include/finclude/math-vector-fortran.h
REM seed -1657822868 838832228 -336120942 1829505915 734366188 -1966289234 -479349685 1275153319 1882244538 -837162641 139833662 -571281509 -1520652162 1240021599 1635592227 671596724 115897829 -2068052748 -1428310679 -961402597 1953370643 -766430401 291227975 1556567185 1896128891 1276346436 949708717 -1332296275 63990835 264548556 1864545188 1004872196 1420653865
REM
CELL 1.54180   15.00000   15.00000   15.00000   90.00000   90.00000   90.00000
LATT -1
SFAC C  
C      1  0.5841820000000  0.2784640000000  0.3472710000000 1.0
C      1  0.2784640000000  0.3472710000000  0.5841820000000 1.0
C      1  0.3472710000000  0.5841820000000  0.2784640000000 1.0
C      1  0.5841820000000  0.7215360000000  0.6527290000000 1.0
C      1  0.4158180000000  0.2784640000000  0.6527290000000 1.0
C      1  0.4158180000000  0.7215360000000  0.3472710000000 1.0
C      1  0.2784640000000  0.6527290000000  0.4158180000000 1.0
C      1  0.7215360000000  0.3472710000000  0.4158180000000 1.0
C      1  0.7215360000000  0.6527290000000  0.5841820000000 1.0
C      1  0.3472710000000  0.4158180000000  0.7215360000000 1.0
C      1  0.6527290000000  0.5841820000000  0.7215360000000 1.0
C      1  0.6527290000000  0.4158180000000  0.2784640000000 1.0
C      1  0.5841820000000  0.3472710000000  0.2784640000000 1.0
C      1  0.2784640000000  0.5841820000000  0.3472710000000 1.0
C      1  0.3472710000000  0.2784640000000  0.5841820000000 1.0
C      1  0.5841820000000  0.6527290000000  0.7215360000000 1.0
C      1  0.4158180000000  0.6527290000000  0.2784640000000 1.0
C      1  0.4158180000000  0.3472710000000  0.7215360000000 1.0
C      1  0.2784640000000  0.4158180000000  0.6527290000000 1.0
C      1  0.7215360000000  0.4158180000000  0.3472710000000 1.0
C      1  0.7215360000000  0.5841820000000  0.6527290000000 1.0
C      1  0.3472710000000  0.7215360000000  0.4158180000000 1.0
C      1  0.6527290000000  0.7215360000000  0.5841820000000 1.0
C      1  0.6527290000000  0.2784640000000  0.4158180000000 1.0
C      1  0.4057670000000  0.6646190000000  0.4748150000000 1.0
C      1  0.6646190000000  0.4748150000000  0.4057670000000 1.0
C      1  0.4748150000000  0.4057670000000  0.6646190000000 1.0
C      1  0.4057670000000  0.3353810000000  0.5251850000000 1.0
C      1  0.5942330000000  0.6646190000000  0.5251850000000 1.0
C      1  0.5942330000000  0.3353810000000  0.4748150000000 1.0
C      1  0.6646190000000  0.5251850000000  0.5942330000000 1.0
C      1  0.3353810000000  0.4748150000000  0.5942330000000 1.0
C      1  0.3353810000000  0.5251850000000  0.4057670000000 1.0
C      1  0.4748150000000  0.5942330000000  0.3353810000000 1.0
C      1  0.5251850000000  0.4057670000000  0.3353810000000 1.0
C      1  0.5251850000000  0.5942330000000  0.6646190000000 1.0
C      1  0.4057670000000  0.4748150000000  0.6646190000000 1.0
C      1  0.6646190000000  0.4057670000000  0.4748150000000 1.0
C      1  0.4748150000000  0.6646190000000  0.4057670000000 1.0
C      1  0.4057670000000  0.5251850000000  0.3353810000000 1.0
C      1  0.5942330000000  0.5251850000000  0.6646190000000 1.0
C      1  0.5942330000000  0.4748150000000  0.3353810000000 1.0
C      1  0.6646190000000  0.5942330000000  0.5251850000000 1.0
C      1  0.3353810000000  0.5942330000000  0.4748150000000 1.0
C      1  0.3353810000000  0.4057670000000  0.5251850000000 1.0
C      1  0.4748150000000  0.3353810000000  0.5942330000000 1.0
C      1  0.5251850000000  0.3353810000000  0.4057670000000 1.0
C      1  0.5251850000000  0.6646190000000  0.5942330000000 1.0
C      1  0.5702740000000  0.4297260000000  0.6422200000000 1.0
C      1  0.4297260000000  0.6422200000000  0.5702740000000 1.0
C      1  0.4297260000000  0.5702740000000  0.6422200000000 1.0
C      1  0.5702740000000  0.6422200000000  0.4297260000000 1.0
C      1  0.5702740000000  0.3577800000000  0.5702740000000 1.0
C      1  0.6422200000000  0.4297260000000  0.5702740000000 1.0
C      1  0.6422200000000  0.5702740000000  0.4297260000000 1.0
C      1  0.3577800000000  0.5702740000000  0.5702740000000 1.0
C      1  0.5702740000000  0.5702740000000  0.3577800000000 1.0
C      1  0.4297260000000  0.4297260000000  0.3577800000000 1.0
C      1  0.4297260000000  0.3577800000000  0.4297260000000 1.0
C      1  0.3577800000000  0.4297260000000  0.4297260000000 1.0
END
