TITL C-2159255-4746-499 -0.00168754355156768 3375 -395.963543332522 0 0 60 (C5v) n - 1
REM
REM in /scratch/bkarasulu/871
REM
REM
REM
REM
REM
REM ./C.cell (a2850807a9bf4ad07a5b6933b78d9264)
REM AIRSS Version 0.9.1 bugfix July 2018 build 013d7b7c2542+ Fri, 06 Jul 2018 19:26:36 +0100
REM compiler GCC version 9.2.1 20190827 (Red Hat 9.2.1-1)
REM options -cpp -mtune=generic -march=x86-64 -g -O0 -fpre-include=/usr/include/finclude/math-vector-fortran.h
REM seed 858549295 -486806662 668947603 1478617165 -670431954 -1226973777 -2115967496 1463298477 1953685926 615508866 594760979 92313225 -1009194899 1237448507 271719020 -277071946 -1091060816 1955734578 -608125204 1384166937 880435448 1685009792 1585167576 425054530 533912304 277620122 -574368855 -250334714 743123410 427394482 500023962 -1532720262 1588328796
REM
CELL 1.54180   15.00000   15.00000   15.00000   90.00000   90.00000   90.00000
LATT -1
SFAC C  
C      1  0.3760110000000  0.6828990000000  0.5792150000000 1.0
C      1  0.6356340000000  0.6744420000000  0.5792110000000 1.0
C      1  0.7078110000000  0.4248960000000  0.5792000000000 1.0
C      1  0.4927800000000  0.2791540000000  0.5791990000000 1.0
C      1  0.2877350000000  0.4386130000000  0.5792090000000 1.0
C      1  0.5393910000000  0.3479770000000  0.3432570000000 1.0
C      1  0.3676080000000  0.4155840000000  0.3433320000000 1.0
C      1  0.3788390000000  0.5998660000000  0.3433330000000 1.0
C      1  0.5575630000000  0.6461110000000  0.3432640000000 1.0
C      1  0.6567680000000  0.4904440000000  0.3432150000000 1.0
C      1  0.2891740000000  0.6737060000000  0.6066870000000 1.0
C      1  0.6000460000000  0.7541830000000  0.6066810000000 1.0
C      1  0.7726540000000  0.4833810000000  0.6066740000000 1.0
C      1  0.5684310000000  0.2355470000000  0.6066800000000 1.0
C      1  0.2696360000000  0.3531900000000  0.6066900000000 1.0
C      1  0.6535710000000  0.6546090000000  0.4841610000000 1.0
C      1  0.6944770000000  0.4017040000000  0.4841520000000 1.0
C      1  0.4666060000000  0.2846720000000  0.4841480000000 1.0
C      1  0.2848890000000  0.4651970000000  0.4841540000000 1.0
C      1  0.4004070000000  0.6938280000000  0.4841620000000 1.0
C      1  0.3305090000000  0.3919790000000  0.4259270000000 1.0
C      1  0.3448850000000  0.6278090000000  0.4259260000000 1.0
C      1  0.5735880000000  0.6869440000000  0.4259190000000 1.0
C      1  0.7004760000000  0.4877800000000  0.4259150000000 1.0
C      1  0.5503330000000  0.3055100000000  0.4259190000000 1.0
C      1  0.3547120000000  0.3335150000000  0.5792180000000 1.0
C      1  0.2967630000000  0.5867160000000  0.5792090000000 1.0
C      1  0.5196580000000  0.7200880000000  0.5792000000000 1.0
C      1  0.7153950000000  0.5493080000000  0.5792000000000 1.0
C      1  0.6134420000000  0.3103760000000  0.5792110000000 1.0
C      1  0.2907080000000  0.5606740000000  0.4841540000000 1.0
C      1  0.4930090000000  0.7177910000000  0.4841480000000 1.0
C      1  0.7049760000000  0.5739480000000  0.4841510000000 1.0
C      1  0.6336550000000  0.3278840000000  0.4841610000000 1.0
C      1  0.3776000000000  0.3197040000000  0.4841640000000 1.0
C      1  0.4329040000000  0.4572300000000  0.5146990000000 1.0
C      1  0.4385930000000  0.5505990000000  0.5146980000000 1.0
C      1  0.5291450000000  0.5740290000000  0.5147280000000 1.0
C      1  0.5794060000000  0.4951620000000  0.5147500000000 1.0
C      1  0.5199420000000  0.4229810000000  0.5147310000000 1.0
C      1  0.4348900000000  0.5536510000000  0.2746530000000 1.0
C      1  0.5309040000000  0.5784980000000  0.2746440000000 1.0
C      1  0.5842030000000  0.4948670000000  0.2746380000000 1.0
C      1  0.5211410000000  0.4183300000000  0.2746440000000 1.0
C      1  0.4288560000000  0.4546530000000  0.2746530000000 1.0
C      1  0.6459600000000  0.5930340000000  0.6300430000000 1.0
C      1  0.6335800000000  0.3899270000000  0.6300440000000 1.0
C      1  0.4365930000000  0.3389520000000  0.6300390000000 1.0
C      1  0.3272450000000  0.5105310000000  0.6300340000000 1.0
C      1  0.4566240000000  0.6675570000000  0.6300370000000 1.0
C      1  0.5698120000000  0.5444940000000  0.6688100000000 1.0
C      1  0.5638900000000  0.4473570000000  0.6688110000000 1.0
C      1  0.4696780000000  0.4229720000000  0.6688040000000 1.0
C      1  0.4173750000000  0.5050370000000  0.6687980000000 1.0
C      1  0.4792590000000  0.5801410000000  0.6688030000000 1.0
C      1  0.5820260000000  0.4949980000000  0.4091900000000 1.0
C      1  0.5206280000000  0.4204910000000  0.4091830000000 1.0
C      1  0.4308030000000  0.4558590000000  0.4091710000000 1.0
C      1  0.4366750000000  0.5522130000000  0.4091700000000 1.0
C      1  0.5301300000000  0.5764100000000  0.4091820000000 1.0
END
