TITL C-2158984-8299-544 -0.0029200672720137 3375 -426.250926013608 0 0 60 (D2d) n - 1
REM
REM in /scratch/bkarasulu/869
REM
REM
REM
REM
REM
REM ./C.cell (a2850807a9bf4ad07a5b6933b78d9264)
REM AIRSS Version 0.9.1 bugfix July 2018 build 013d7b7c2542+ Fri, 06 Jul 2018 19:26:36 +0100
REM compiler GCC version 9.2.1 20190827 (Red Hat 9.2.1-1)
REM options -cpp -mtune=generic -march=x86-64 -g -O0 -fpre-include=/usr/include/finclude/math-vector-fortran.h
REM seed -251328787 -1368610376 271508558 1587932394 -1734468370 339297829 -602611411 -1174605820 -1513419239 -1456893687 -554790295 780518988 -846541029 -1000535852 1605743659 231114947 1126280270 1611523219 658169323 265824798 -1453764317 -546183028 -1383665021 383491678 305676796 272260009 1241826520 -2016095173 474899531 871881916 231839688 140736355 326653478
REM
CELL 1.54180   15.00000   15.00000   15.00000   90.00000   90.00000   90.00000
LATT -1
SFAC C  
C      1  0.5951600000000  0.3354290000000  0.4255620000000 1.0
C      1  0.4048400000000  0.6645710000000  0.4255620000000 1.0
C      1  0.4048400000000  0.3354290000000  0.5744380000000 1.0
C      1  0.5951600000000  0.6645710000000  0.5744380000000 1.0
C      1  0.3354290000000  0.5951600000000  0.4255620000000 1.0
C      1  0.6645710000000  0.4048400000000  0.4255620000000 1.0
C      1  0.3354290000000  0.4048400000000  0.5744380000000 1.0
C      1  0.6645710000000  0.5951600000000  0.5744380000000 1.0
C      1  0.3712930000000  0.6965100000000  0.6743960000000 1.0
C      1  0.6287070000000  0.3034900000000  0.6743960000000 1.0
C      1  0.6287070000000  0.6965100000000  0.3256040000000 1.0
C      1  0.3712930000000  0.3034900000000  0.3256040000000 1.0
C      1  0.6965100000000  0.3712930000000  0.6743960000000 1.0
C      1  0.3034900000000  0.6287070000000  0.6743960000000 1.0
C      1  0.6965100000000  0.6287070000000  0.3256040000000 1.0
C      1  0.3034900000000  0.3712930000000  0.3256040000000 1.0
C      1  0.3243040000000  0.4797140000000  0.6284440000000 1.0
C      1  0.6756960000000  0.5202860000000  0.6284440000000 1.0
C      1  0.6756960000000  0.4797140000000  0.3715560000000 1.0
C      1  0.3243040000000  0.5202860000000  0.3715560000000 1.0
C      1  0.4797140000000  0.3243040000000  0.6284440000000 1.0
C      1  0.5202860000000  0.6756960000000  0.6284440000000 1.0
C      1  0.4797140000000  0.6756960000000  0.3715560000000 1.0
C      1  0.5202860000000  0.3243040000000  0.3715560000000 1.0
C      1  0.6133430000000  0.6838530000000  0.4814980000000 1.0
C      1  0.3866570000000  0.3161470000000  0.4814980000000 1.0
C      1  0.3866570000000  0.6838530000000  0.5185020000000 1.0
C      1  0.6133430000000  0.3161470000000  0.5185020000000 1.0
C      1  0.6838530000000  0.6133430000000  0.4814980000000 1.0
C      1  0.3161470000000  0.3866570000000  0.4814980000000 1.0
C      1  0.6838530000000  0.3866570000000  0.5185020000000 1.0
C      1  0.3161470000000  0.6133430000000  0.5185020000000 1.0
C      1  0.4197510000000  0.3525520000000  0.2550680000000 1.0
C      1  0.5802490000000  0.6474480000000  0.2550680000000 1.0
C      1  0.5802490000000  0.3525520000000  0.7449320000000 1.0
C      1  0.4197510000000  0.6474480000000  0.7449320000000 1.0
C      1  0.3525520000000  0.4197510000000  0.2550680000000 1.0
C      1  0.6474480000000  0.5802490000000  0.2550680000000 1.0
C      1  0.3525520000000  0.5802490000000  0.7449320000000 1.0
C      1  0.6474480000000  0.4197510000000  0.7449320000000 1.0
C      1  0.2929400000000  0.5694250000000  0.5983680000000 1.0
C      1  0.7070600000000  0.4305750000000  0.5983680000000 1.0
C      1  0.7070600000000  0.5694250000000  0.4016320000000 1.0
C      1  0.2929400000000  0.4305750000000  0.4016320000000 1.0
C      1  0.5694250000000  0.2929400000000  0.5983680000000 1.0
C      1  0.4305750000000  0.7070600000000  0.5983680000000 1.0
C      1  0.5694250000000  0.7070600000000  0.4016320000000 1.0
C      1  0.4305750000000  0.2929400000000  0.4016320000000 1.0
C      1  0.6247520000000  0.4937040000000  0.2897590000000 1.0
C      1  0.3752480000000  0.5062960000000  0.2897590000000 1.0
C      1  0.3752480000000  0.4937040000000  0.7102410000000 1.0
C      1  0.6247520000000  0.5062960000000  0.7102410000000 1.0
C      1  0.4937040000000  0.6247520000000  0.2897590000000 1.0
C      1  0.5062960000000  0.3752480000000  0.2897590000000 1.0
C      1  0.4937040000000  0.3752480000000  0.7102410000000 1.0
C      1  0.5062960000000  0.6247520000000  0.7102410000000 1.0
C      1  0.4641630000000  0.4641630000000  0.7264970000000 1.0
C      1  0.5358370000000  0.5358370000000  0.7264970000000 1.0
C      1  0.5358370000000  0.4641630000000  0.2735030000000 1.0
C      1  0.4641630000000  0.5358370000000  0.2735030000000 1.0
END
