TITL C-2158988-7926-305 -0.00167628610945382 3375 -385.167584461833 0 0 60 (C6h) n - 1
REM
REM in /scratch/bkarasulu/868
REM
REM
REM
REM
REM
REM ./C.cell (a2850807a9bf4ad07a5b6933b78d9264)
REM AIRSS Version 0.9.1 bugfix July 2018 build 013d7b7c2542+ Fri, 06 Jul 2018 19:26:36 +0100
REM compiler GCC version 9.2.1 20190827 (Red Hat 9.2.1-1)
REM options -cpp -mtune=generic -march=x86-64 -g -O0 -fpre-include=/usr/include/finclude/math-vector-fortran.h
REM seed -1730025772 -411683218 1440637474 -1636616091 -1166275306 1197595524 -1349407116 -305438314 -120455570 -2107613069 -2959485 1004941755 -1785300853 -903981881 332514017 -1342317860 -1851850727 -291364060 951654904 1329297072 -910277608 -195368341 -555243485 485865360 -319032674 -648141818 144634661 -876077711 -75386086 -1729747892 -842634203 -1017543681 479291884
REM
CELL 1.54180   15.00000   15.00000   15.00000   90.00000   90.00000   90.00000
LATT -1
SFAC C  
C      1  0.4113620000000  0.5860090000000  0.4498250000000 1.0
C      1  0.4113620000000  0.5864580000000  0.5493990000000 1.0
C      1  0.4113620000000  0.5004490000000  0.5995740000000 1.0
C      1  0.4113620000000  0.4139910000000  0.5501750000000 1.0
C      1  0.4113620000000  0.4135420000000  0.4506010000000 1.0
C      1  0.4113620000000  0.4995510000000  0.4004260000000 1.0
C      1  0.5886380000000  0.5860090000000  0.4498250000000 1.0
C      1  0.5886380000000  0.5864580000000  0.5493990000000 1.0
C      1  0.5886380000000  0.5004490000000  0.5995740000000 1.0
C      1  0.5886380000000  0.4139910000000  0.5501750000000 1.0
C      1  0.5886380000000  0.4135420000000  0.4506010000000 1.0
C      1  0.5886380000000  0.4995510000000  0.4004260000000 1.0
C      1  0.6833980000000  0.3685690000000  0.5578810000000 1.0
C      1  0.6833980000000  0.3841570000000  0.4151180000000 1.0
C      1  0.6833990000000  0.5155890000000  0.3572360000000 1.0
C      1  0.6833980000000  0.6314310000000  0.4421190000000 1.0
C      1  0.6833980000000  0.6158430000000  0.5848820000000 1.0
C      1  0.6833990000000  0.4844110000000  0.6427640000000 1.0
C      1  0.3166020000000  0.3685690000000  0.5578810000000 1.0
C      1  0.3166020000000  0.3841570000000  0.4151180000000 1.0
C      1  0.3166010000000  0.5155890000000  0.3572360000000 1.0
C      1  0.3166020000000  0.6314310000000  0.4421190000000 1.0
C      1  0.3166020000000  0.6158430000000  0.5848820000000 1.0
C      1  0.3166010000000  0.4844110000000  0.6427640000000 1.0
C      1  0.5472570000000  0.4658730000000  0.3069340000000 1.0
C      1  0.5472570000000  0.6501350000000  0.3739120000000 1.0
C      1  0.5472570000000  0.6842650000000  0.5669770000000 1.0
C      1  0.5472570000000  0.5341270000000  0.6930660000000 1.0
C      1  0.5472570000000  0.3498650000000  0.6260880000000 1.0
C      1  0.5472570000000  0.3157350000000  0.4330230000000 1.0
C      1  0.4527430000000  0.4658730000000  0.3069340000000 1.0
C      1  0.4527430000000  0.6501350000000  0.3739120000000 1.0
C      1  0.4527430000000  0.6842650000000  0.5669770000000 1.0
C      1  0.4527430000000  0.5341270000000  0.6930660000000 1.0
C      1  0.4527430000000  0.3498650000000  0.6260880000000 1.0
C      1  0.4527430000000  0.3157350000000  0.4330230000000 1.0
C      1  0.6960500000000  0.6065100000000  0.3518160000000 1.0
C      1  0.6960500000000  0.6815870000000  0.5181480000000 1.0
C      1  0.6960500000000  0.5750760000000  0.6663330000000 1.0
C      1  0.6960500000000  0.3934900000000  0.6481840000000 1.0
C      1  0.6960500000000  0.3184130000000  0.4818520000000 1.0
C      1  0.6960500000000  0.4249240000000  0.3336670000000 1.0
C      1  0.3039500000000  0.6065100000000  0.3518160000000 1.0
C      1  0.3039500000000  0.6815870000000  0.5181480000000 1.0
C      1  0.3039500000000  0.5750760000000  0.6663330000000 1.0
C      1  0.3039500000000  0.3934900000000  0.6481840000000 1.0
C      1  0.3039500000000  0.3184130000000  0.4818520000000 1.0
C      1  0.3039500000000  0.4249240000000  0.3336670000000 1.0
C      1  0.6197580000000  0.7367890000000  0.5443510000000 1.0
C      1  0.6197580000000  0.5799820000000  0.7272410000000 1.0
C      1  0.6197580000000  0.3431980000000  0.6828880000000 1.0
C      1  0.6197580000000  0.2632110000000  0.4556490000000 1.0
C      1  0.6197580000000  0.4200180000000  0.2727590000000 1.0
C      1  0.6197580000000  0.6568020000000  0.3171120000000 1.0
C      1  0.3802420000000  0.7367890000000  0.5443510000000 1.0
C      1  0.3802420000000  0.5799820000000  0.7272410000000 1.0
C      1  0.3802420000000  0.3431980000000  0.6828880000000 1.0
C      1  0.3802420000000  0.2632110000000  0.4556490000000 1.0
C      1  0.3802420000000  0.4200180000000  0.2727590000000 1.0
C      1  0.3802420000000  0.6568020000000  0.3171120000000 1.0
END
