TITL C-2159255-4746-341 -0.00302165198835313 3375 -424.600405323947 0 0 60 (C2v) n - 1
REM
REM in /scratch/bkarasulu/871
REM
REM
REM
REM
REM
REM ./C.cell (a2850807a9bf4ad07a5b6933b78d9264)
REM AIRSS Version 0.9.1 bugfix July 2018 build 013d7b7c2542+ Fri, 06 Jul 2018 19:26:36 +0100
REM compiler GCC version 9.2.1 20190827 (Red Hat 9.2.1-1)
REM options -cpp -mtune=generic -march=x86-64 -g -O0 -fpre-include=/usr/include/finclude/math-vector-fortran.h
REM seed -279962415 -310674783 2082369458 -873641137 -462466670 728092573 906556192 -1910900056 747003077 -91892515 597517316 -1998854850 -1340732253 -2119610530 1889803191 1078840292 -876205672 -1691213041 -1538061399 -1990190499 1786082498 387061147 -1485594776 -2127182739 -932445863 -1895949553 1663759057 1024212011 1379557743 -357546529 -297947880 -945257643 -1944878385
REM
CELL 1.54180   15.00000   15.00000   15.00000   90.00000   90.00000   90.00000
LATT -1
SFAC C  
C      1  0.2859650000000  0.5474480000000  0.5522280000000 1.0
C      1  0.7140130000000  0.4525680000000  0.5523360000000 1.0
C      1  0.2864860000000  0.4502740000000  0.5522440000000 1.0
C      1  0.7134920000000  0.5497420000000  0.5523220000000 1.0
C      1  0.4067350000000  0.5408380000000  0.7406410000000 1.0
C      1  0.5931580000000  0.4592360000000  0.7406950000000 1.0
C      1  0.4071800000000  0.4582380000000  0.7406530000000 1.0
C      1  0.5927150000000  0.5418360000000  0.7406820000000 1.0
C      1  0.3326870000000  0.3694190000000  0.5739460000000 1.0
C      1  0.6672820000000  0.6306040000000  0.5739800000000 1.0
C      1  0.3312960000000  0.6288000000000  0.5739050000000 1.0
C      1  0.6686720000000  0.3712230000000  0.5740190000000 1.0
C      1  0.4519040000000  0.7275090000000  0.5792920000000 1.0
C      1  0.5480620000000  0.2725150000000  0.5793820000000 1.0
C      1  0.4543470000000  0.2720110000000  0.5793620000000 1.0
C      1  0.5456190000000  0.7280130000000  0.5793120000000 1.0
C      1  0.5495510000000  0.2476750000000  0.4147010000000 1.0
C      1  0.4504870000000  0.7522990000000  0.4146030000000 1.0
C      1  0.5468420000000  0.7528170000000  0.4146250000000 1.0
C      1  0.4531960000000  0.2471570000000  0.4146810000000 1.0
C      1  0.3393630000000  0.3211830000000  0.4905900000000 1.0
C      1  0.6606430000000  0.6788160000000  0.4906050000000 1.0
C      1  0.3374560000000  0.6770780000000  0.4905340000000 1.0
C      1  0.6625470000000  0.3229200000000  0.4906580000000 1.0
C      1  0.7229990000000  0.5487720000000  0.4517770000000 1.0
C      1  0.2770240000000  0.4512130000000  0.4516940000000 1.0
C      1  0.7235090000000  0.4536100000000  0.4517900000000 1.0
C      1  0.2765130000000  0.5463750000000  0.4516790000000 1.0
C      1  0.4098610000000  0.2593650000000  0.4947700000000 1.0
C      1  0.5901430000000  0.7406340000000  0.4947370000000 1.0
C      1  0.4072860000000  0.7396500000000  0.4946970000000 1.0
C      1  0.5927170000000  0.2603480000000  0.4948100000000 1.0
C      1  0.6216570000000  0.3779140000000  0.3382460000000 1.0
C      1  0.3784130000000  0.6220370000000  0.3381570000000 1.0
C      1  0.6203430000000  0.6233370000000  0.3382110000000 1.0
C      1  0.3797270000000  0.3766130000000  0.3381950000000 1.0
C      1  0.4060380000000  0.6594720000000  0.6287560000000 1.0
C      1  0.5939050000000  0.3405680000000  0.6288460000000 1.0
C      1  0.4077550000000  0.3395680000000  0.6288060000000 1.0
C      1  0.5921890000000  0.6604700000000  0.6287970000000 1.0
C      1  0.4996110000000  0.5729120000000  0.4994860000000 1.0
C      1  0.5003900000000  0.4270860000000  0.4995080000000 1.0
C      1  0.4508320000000  0.4997330000000  0.4779730000000 1.0
C      1  0.5491780000000  0.5002580000000  0.4779940000000 1.0
C      1  0.6797510000000  0.6247050000000  0.4148490000000 1.0
C      1  0.3202870000000  0.3752680000000  0.4148080000000 1.0
C      1  0.6810770000000  0.3772070000000  0.4148840000000 1.0
C      1  0.3189610000000  0.6227670000000  0.4147690000000 1.0
C      1  0.4480610000000  0.6871790000000  0.3419440000000 1.0
C      1  0.5520090000000  0.3127720000000  0.3420220000000 1.0
C      1  0.4500700000000  0.3122240000000  0.3420010000000 1.0
C      1  0.5500000000000  0.6877280000000  0.3419660000000 1.0
C      1  0.3755640000000  0.5407220000000  0.2920990000000 1.0
C      1  0.6245220000000  0.4592140000000  0.2921630000000 1.0
C      1  0.3760040000000  0.4578790000000  0.2921140000000 1.0
C      1  0.6240800000000  0.5420580000000  0.2921540000000 1.0
C      1  0.4514460000000  0.3878260000000  0.6973320000000 1.0
C      1  0.5484670000000  0.6122340000000  0.6973180000000 1.0
C      1  0.4502450000000  0.6117070000000  0.6972980000000 1.0
C      1  0.5496690000000  0.3883530000000  0.6973540000000 1.0
END
