TITL C-2159255-4746-725 -0.00168896736943719 3375 -387.555876360899 0 0 60 (Td) n - 1
REM
REM in /scratch/bkarasulu/871
REM
REM
REM
REM
REM
REM ./C.cell (a2850807a9bf4ad07a5b6933b78d9264)
REM AIRSS Version 0.9.1 bugfix July 2018 build 013d7b7c2542+ Fri, 06 Jul 2018 19:26:36 +0100
REM compiler GCC version 9.2.1 20190827 (Red Hat 9.2.1-1)
REM options -cpp -mtune=generic -march=x86-64 -g -O0 -fpre-include=/usr/include/finclude/math-vector-fortran.h
REM seed 1936645695 1482252343 872836466 907085024 1001698999 891016813 -1280113903 358930929 1141521653 572878736 -1636470254 -1851737212 648587990 -1789516277 1379247473 -314007570 -1562495498 1967571551 -727083774 -1257830809 -767484317 -126107371 1893409522 -1542205969 1534443512 -1782770314 752231677 -1671869736 -1498146529 1889794804 1646159228 -1131721041 469735884
REM
CELL 1.54180   15.00000   15.00000   15.00000   90.00000   90.00000   90.00000
LATT -1
SFAC C  
C      1  0.4677250000000  0.2610750000000  0.5918270000000 1.0
C      1  0.2610750000000  0.5918270000000  0.4677250000000 1.0
C      1  0.5918270000000  0.4677250000000  0.2610750000000 1.0
C      1  0.5322750000000  0.7389250000000  0.5918270000000 1.0
C      1  0.4677250000000  0.7389250000000  0.4081730000000 1.0
C      1  0.5322750000000  0.2610750000000  0.4081730000000 1.0
C      1  0.7389250000000  0.4081730000000  0.4677250000000 1.0
C      1  0.2610750000000  0.4081730000000  0.5322750000000 1.0
C      1  0.7389250000000  0.5918270000000  0.5322750000000 1.0
C      1  0.4081730000000  0.5322750000000  0.2610750000000 1.0
C      1  0.5918270000000  0.5322750000000  0.7389250000000 1.0
C      1  0.4081730000000  0.4677250000000  0.7389250000000 1.0
C      1  0.2610750000000  0.4677250000000  0.5918270000000 1.0
C      1  0.5918270000000  0.2610750000000  0.4677250000000 1.0
C      1  0.4677250000000  0.5918270000000  0.2610750000000 1.0
C      1  0.7389250000000  0.5322750000000  0.5918270000000 1.0
C      1  0.7389250000000  0.4677250000000  0.4081730000000 1.0
C      1  0.2610750000000  0.5322750000000  0.4081730000000 1.0
C      1  0.4081730000000  0.7389250000000  0.4677250000000 1.0
C      1  0.4081730000000  0.2610750000000  0.5322750000000 1.0
C      1  0.5918270000000  0.7389250000000  0.5322750000000 1.0
C      1  0.5322750000000  0.4081730000000  0.2610750000000 1.0
C      1  0.5322750000000  0.5918270000000  0.7389250000000 1.0
C      1  0.4677250000000  0.4081730000000  0.7389250000000 1.0
C      1  0.4610170000000  0.3934520000000  0.3239620000000 1.0
C      1  0.3934520000000  0.3239620000000  0.4610170000000 1.0
C      1  0.3239620000000  0.4610170000000  0.3934520000000 1.0
C      1  0.5389830000000  0.6065480000000  0.3239620000000 1.0
C      1  0.4610170000000  0.6065480000000  0.6760380000000 1.0
C      1  0.5389830000000  0.3934520000000  0.6760380000000 1.0
C      1  0.6065480000000  0.6760380000000  0.4610170000000 1.0
C      1  0.3934520000000  0.6760380000000  0.5389830000000 1.0
C      1  0.6065480000000  0.3239620000000  0.5389830000000 1.0
C      1  0.6760380000000  0.5389830000000  0.3934520000000 1.0
C      1  0.3239620000000  0.5389830000000  0.6065480000000 1.0
C      1  0.6760380000000  0.4610170000000  0.6065480000000 1.0
C      1  0.3934520000000  0.4610170000000  0.3239620000000 1.0
C      1  0.3239620000000  0.3934520000000  0.4610170000000 1.0
C      1  0.4610170000000  0.3239620000000  0.3934520000000 1.0
C      1  0.6065480000000  0.5389830000000  0.3239620000000 1.0
C      1  0.6065480000000  0.4610170000000  0.6760380000000 1.0
C      1  0.3934520000000  0.5389830000000  0.6760380000000 1.0
C      1  0.6760380000000  0.6065480000000  0.4610170000000 1.0
C      1  0.6760380000000  0.3934520000000  0.5389830000000 1.0
C      1  0.3239620000000  0.6065480000000  0.5389830000000 1.0
C      1  0.5389830000000  0.6760380000000  0.3934520000000 1.0
C      1  0.5389830000000  0.3239620000000  0.6065480000000 1.0
C      1  0.4610170000000  0.6760380000000  0.6065480000000 1.0
C      1  0.5333310000000  0.4666690000000  0.6029760000000 1.0
C      1  0.5333310000000  0.5333310000000  0.3970240000000 1.0
C      1  0.4666690000000  0.5333310000000  0.6029760000000 1.0
C      1  0.6029760000000  0.5333310000000  0.4666690000000 1.0
C      1  0.4666690000000  0.6029760000000  0.5333310000000 1.0
C      1  0.3970240000000  0.4666690000000  0.4666690000000 1.0
C      1  0.6029760000000  0.4666690000000  0.5333310000000 1.0
C      1  0.3970240000000  0.5333310000000  0.5333310000000 1.0
C      1  0.4666690000000  0.4666690000000  0.3970240000000 1.0
C      1  0.5333310000000  0.3970240000000  0.5333310000000 1.0
C      1  0.4666690000000  0.3970240000000  0.4666690000000 1.0
C      1  0.5333310000000  0.6029760000000  0.4666690000000 1.0
END
