TITL C-2158988-7926-642 -0.00161311554841536 3375 -405.153028527642 0 0 60 (C2v) n - 1
REM
REM in /scratch/bkarasulu/868
REM
REM
REM
REM
REM
REM ./C.cell (a2850807a9bf4ad07a5b6933b78d9264)
REM AIRSS Version 0.9.1 bugfix July 2018 build 013d7b7c2542+ Fri, 06 Jul 2018 19:26:36 +0100
REM compiler GCC version 9.2.1 20190827 (Red Hat 9.2.1-1)
REM options -cpp -mtune=generic -march=x86-64 -g -O0 -fpre-include=/usr/include/finclude/math-vector-fortran.h
REM seed -833208007 1640718029 1991739620 327267307 850724757 617605055 -848090710 643689677 1317096539 -1513485977 -1694950586 -1501109434 1083690332 100485622 -284276162 -101177671 -655534881 1411692013 -763286094 1641447158 -1948430259 -2097183931 2010528243 -1944012062 -1379292786 -750343261 1702295217 -1369417522 268877611 1984550209 934296358 398861920 -978789825
REM
CELL 1.54180   15.00000   15.00000   15.00000   90.00000   90.00000   90.00000
LATT -1
SFAC C  
C      1  0.3166950000000  0.4016620000000  0.3356190000000 1.0
C      1  0.6833050000000  0.5983380000000  0.3356190000000 1.0
C      1  0.6833050000000  0.4016620000000  0.3356190000000 1.0
C      1  0.3166950000000  0.5983380000000  0.3356190000000 1.0
C      1  0.3895050000000  0.5487370000000  0.7124190000000 1.0
C      1  0.6104950000000  0.4512630000000  0.7124190000000 1.0
C      1  0.6104950000000  0.5487370000000  0.7124190000000 1.0
C      1  0.3895050000000  0.4512630000000  0.7124190000000 1.0
C      1  0.2846830000000  0.5522270000000  0.4130300000000 1.0
C      1  0.7153170000000  0.4477730000000  0.4130300000000 1.0
C      1  0.7153170000000  0.5522270000000  0.4130300000000 1.0
C      1  0.2846830000000  0.4477730000000  0.4130300000000 1.0
C      1  0.3228860000000  0.3941760000000  0.4874690000000 1.0
C      1  0.6771140000000  0.6058240000000  0.4874690000000 1.0
C      1  0.6771140000000  0.3941760000000  0.4874690000000 1.0
C      1  0.3228860000000  0.6058240000000  0.4874690000000 1.0
C      1  0.4519600000000  0.4498260000000  0.5465670000000 1.0
C      1  0.5480400000000  0.5501740000000  0.5465670000000 1.0
C      1  0.5480400000000  0.4498260000000  0.5465670000000 1.0
C      1  0.4519600000000  0.5501740000000  0.5465670000000 1.0
C      1  0.4518680000000  0.3824270000000  0.6856840000000 1.0
C      1  0.5481320000000  0.6175730000000  0.6856840000000 1.0
C      1  0.5481320000000  0.3824270000000  0.6856840000000 1.0
C      1  0.4518680000000  0.6175730000000  0.6856840000000 1.0
C      1  0.3101430000000  0.4521140000000  0.6519540000000 1.0
C      1  0.6898570000000  0.5478860000000  0.6519540000000 1.0
C      1  0.6898570000000  0.4521140000000  0.6519540000000 1.0
C      1  0.3101430000000  0.5478860000000  0.6519540000000 1.0
C      1  0.3257680000000  0.6099570000000  0.5845710000000 1.0
C      1  0.6742320000000  0.3900430000000  0.5845710000000 1.0
C      1  0.6742320000000  0.6099570000000  0.5845710000000 1.0
C      1  0.3257680000000  0.3900430000000  0.5845710000000 1.0
C      1  0.4128540000000  0.6504760000000  0.6022580000000 1.0
C      1  0.5871460000000  0.3495240000000  0.6022580000000 1.0
C      1  0.5871460000000  0.6504760000000  0.6022580000000 1.0
C      1  0.4128540000000  0.3495240000000  0.6022580000000 1.0
C      1  0.4498480000000  0.5947410000000  0.3675040000000 1.0
C      1  0.5501520000000  0.4052590000000  0.3675040000000 1.0
C      1  0.5501520000000  0.5947410000000  0.3675040000000 1.0
C      1  0.4498480000000  0.4052590000000  0.3675040000000 1.0
C      1  0.3770080000000  0.6892450000000  0.4599650000000 1.0
C      1  0.6229920000000  0.3107550000000  0.4599650000000 1.0
C      1  0.6229920000000  0.6892450000000  0.4599650000000 1.0
C      1  0.3770080000000  0.3107550000000  0.4599650000000 1.0
C      1  0.3885120000000  0.5461250000000  0.3014470000000 1.0
C      1  0.6114880000000  0.4538750000000  0.3014470000000 1.0
C      1  0.6114880000000  0.5461250000000  0.3014470000000 1.0
C      1  0.3885120000000  0.4538750000000  0.3014470000000 1.0
C      1  0.6161390000000  0.3293160000000  0.3693460000000 1.0
C      1  0.3838610000000  0.6706840000000  0.3693460000000 1.0
C      1  0.3838610000000  0.3293160000000  0.3693460000000 1.0
C      1  0.6161390000000  0.6706840000000  0.3693460000000 1.0
C      1  0.5907300000000  0.5498770000000  0.4564070000000 1.0
C      1  0.4092700000000  0.4501230000000  0.4564070000000 1.0
C      1  0.4092700000000  0.5498770000000  0.4564070000000 1.0
C      1  0.5907300000000  0.4501230000000  0.4564070000000 1.0
C      1  0.4515750000000  0.6973850000000  0.5257590000000 1.0
C      1  0.5484250000000  0.3026150000000  0.5257590000000 1.0
C      1  0.5484250000000  0.6973850000000  0.5257590000000 1.0
C      1  0.4515750000000  0.3026150000000  0.5257590000000 1.0
END
