TITL C-2159255-4746-954 -0.00261318334618813 3375 -415.205009268466 0 0 60 (C6v) n - 1
REM
REM in /scratch/bkarasulu/871
REM
REM
REM
REM
REM
REM ./C.cell (a2850807a9bf4ad07a5b6933b78d9264)
REM AIRSS Version 0.9.1 bugfix July 2018 build 013d7b7c2542+ Fri, 06 Jul 2018 19:26:36 +0100
REM compiler GCC version 9.2.1 20190827 (Red Hat 9.2.1-1)
REM options -cpp -mtune=generic -march=x86-64 -g -O0 -fpre-include=/usr/include/finclude/math-vector-fortran.h
REM seed 821734314 197522376 -970323192 1865056242 1673906212 1670888233 -22061981 -776929822 -884693997 -1920686395 -2113388148 592010088 -826897892 1557724832 -99781908 -1839556598 -73174381 73562161 -1913562366 -809743547 -1645673104 1674663782 -512264404 894783986 102336272 -530331613 -648385088 873696708 122464825 1908847579 617581893 332655422 1879182523
REM
CELL 1.54180   15.00000   15.00000   15.00000   90.00000   90.00000   90.00000
LATT -1
SFAC C  
C      1  0.4937190000000  0.5941870000000  0.7518070000000 1.0
C      1  0.5784280000000  0.5525330000000  0.7518070000000 1.0
C      1  0.5847090000000  0.4583460000000  0.7518070000000 1.0
C      1  0.5062810000000  0.4058130000000  0.7518070000000 1.0
C      1  0.4215720000000  0.4474670000000  0.7518070000000 1.0
C      1  0.4152910000000  0.5416540000000  0.7518070000000 1.0
C      1  0.5422970000000  0.5860110000000  0.4073540000000 1.0
C      1  0.5956370000000  0.5063760000000  0.4073540000000 1.0
C      1  0.5533400000000  0.4203650000000  0.4073540000000 1.0
C      1  0.4577030000000  0.4139890000000  0.4073540000000 1.0
C      1  0.4043630000000  0.4936240000000  0.4073540000000 1.0
C      1  0.4466600000000  0.5796350000000  0.4073540000000 1.0
C      1  0.6282120000000  0.5858800000000  0.6748080000000 1.0
C      1  0.6384810000000  0.4319050000000  0.6748080000000 1.0
C      1  0.5102680000000  0.3460250000000  0.6748090000000 1.0
C      1  0.3717880000000  0.4141200000000  0.6748080000000 1.0
C      1  0.3615190000000  0.5680950000000  0.6748080000000 1.0
C      1  0.4897320000000  0.6539750000000  0.6748090000000 1.0
C      1  0.7478680000000  0.5165250000000  0.3885720000000 1.0
C      1  0.6382430000000  0.2936030000000  0.3885720000000 1.0
C      1  0.3903810000000  0.2770770000000  0.3885720000000 1.0
C      1  0.2521320000000  0.4834750000000  0.3885720000000 1.0
C      1  0.3617570000000  0.7063970000000  0.3885720000000 1.0
C      1  0.6096190000000  0.7229230000000  0.3885720000000 1.0
C      1  0.6138370000000  0.7315040000000  0.4760250000000 1.0
C      1  0.7574100000000  0.5171620000000  0.4760250000000 1.0
C      1  0.6435640000000  0.2856600000000  0.4760250000000 1.0
C      1  0.3861630000000  0.2684960000000  0.4760250000000 1.0
C      1  0.2425900000000  0.4828380000000  0.4760250000000 1.0
C      1  0.3564360000000  0.7143400000000  0.4760250000000 1.0
C      1  0.4145740000000  0.3262720000000  0.5406500000000 1.0
C      1  0.3068320000000  0.4871190000000  0.5406500000000 1.0
C      1  0.3922630000000  0.6608460000000  0.5406510000000 1.0
C      1  0.5854260000000  0.6737280000000  0.5406500000000 1.0
C      1  0.6931680000000  0.5128810000000  0.5406500000000 1.0
C      1  0.6077370000000  0.3391540000000  0.5406510000000 1.0
C      1  0.5756230000000  0.6537840000000  0.3435270000000 1.0
C      1  0.6709940000000  0.5114000000000  0.3435270000000 1.0
C      1  0.5953680000000  0.3576160000000  0.3435270000000 1.0
C      1  0.4243770000000  0.3462160000000  0.3435270000000 1.0
C      1  0.3290060000000  0.4886000000000  0.3435270000000 1.0
C      1  0.4046320000000  0.6423840000000  0.3435270000000 1.0
C      1  0.4458920000000  0.5807820000000  0.2736510000000 1.0
C      1  0.5429050000000  0.5872500000000  0.2736510000000 1.0
C      1  0.5970130000000  0.5064680000000  0.2736510000000 1.0
C      1  0.5541080000000  0.4192180000000  0.2736510000000 1.0
C      1  0.4570950000000  0.4127500000000  0.2736510000000 1.0
C      1  0.4029870000000  0.4935320000000  0.2736510000000 1.0
C      1  0.3998560000000  0.4933220000000  0.5120880000000 1.0
C      1  0.4441460000000  0.5833860000000  0.5120880000000 1.0
C      1  0.5442890000000  0.5900640000000  0.5120880000000 1.0
C      1  0.6001440000000  0.5066780000000  0.5120880000000 1.0
C      1  0.5558540000000  0.4166140000000  0.5120880000000 1.0
C      1  0.4557110000000  0.4099360000000  0.5120880000000 1.0
C      1  0.6709720000000  0.5114010000000  0.6315170000000 1.0
C      1  0.5953600000000  0.3576360000000  0.6315180000000 1.0
C      1  0.4243890000000  0.3462340000000  0.6315170000000 1.0
C      1  0.3290280000000  0.4885990000000  0.6315170000000 1.0
C      1  0.4046400000000  0.6423640000000  0.6315180000000 1.0
C      1  0.5756110000000  0.6537660000000  0.6315170000000 1.0
END
