TITL C-2158988-7926-670 -0.00579990118669899 3375 -403.437839164903 0 0 60 (Cs) n - 1
REM
REM in /scratch/bkarasulu/868
REM
REM
REM
REM
REM
REM ./C.cell (a2850807a9bf4ad07a5b6933b78d9264)
REM AIRSS Version 0.9.1 bugfix July 2018 build 013d7b7c2542+ Fri, 06 Jul 2018 19:26:36 +0100
REM compiler GCC version 9.2.1 20190827 (Red Hat 9.2.1-1)
REM options -cpp -mtune=generic -march=x86-64 -g -O0 -fpre-include=/usr/include/finclude/math-vector-fortran.h
REM seed -1671016707 -512485789 -2134603792 1888806506 -1585511046 1708230497 -259643950 -1325401169 -958342651 1294725689 -1585822082 1301993515 -740050138 748866448 -871172808 -1497487355 302399271 826687245 1144715011 -378478409 -1926413288 -923239751 1087397850 307954656 394702893 -146617278 1180687144 -1245732235 -1466008498 -1680177415 2073586564 1365526253 -141307364
REM
CELL 1.54180   15.00000   15.00000   15.00000   90.00000   90.00000   90.00000
LATT -1
SFAC C  
C      1  0.5749770000000  0.5233060000000  0.7555110000000 1.0
C      1  0.6197420000000  0.3841990000000  0.7409050000000 1.0
C      1  0.6197030000000  0.2748270000000  0.6455210000000 1.0
C      1  0.5748800000000  0.2414530000000  0.5097050000000 1.0
C      1  0.5196660000000  0.3055830000000  0.3850070000000 1.0
C      1  0.5691930000000  0.3895150000000  0.2695200000000 1.0
C      1  0.5772650000000  0.5334570000000  0.2427810000000 1.0
C      1  0.5357160000000  0.6575970000000  0.3170460000000 1.0
C      1  0.5773370000000  0.7480370000000  0.4299200000000 1.0
C      1  0.5693150000000  0.7411270000000  0.5761620000000 1.0
C      1  0.5197810000000  0.6381460000000  0.6750370000000 1.0
C      1  0.6225600000000  0.5246680000000  0.3287560000000 1.0
C      1  0.6065120000000  0.6109150000000  0.3705460000000 1.0
C      1  0.6226070000000  0.6640390000000  0.4503030000000 1.0
C      1  0.6210220000000  0.6620330000000  0.5529140000000 1.0
C      1  0.6044180000000  0.6056620000000  0.6296280000000 1.0
C      1  0.6299670000000  0.5232870000000  0.6723570000000 1.0
C      1  0.6534560000000  0.4278690000000  0.6567660000000 1.0
C      1  0.6534290000000  0.3522300000000  0.5908010000000 1.0
C      1  0.6298990000000  0.3238160000000  0.4983970000000 1.0
C      1  0.6043310000000  0.3549550000000  0.4109850000000 1.0
C      1  0.6209390000000  0.4232840000000  0.3446990000000 1.0
C      1  0.4655050000000  0.4099840000000  0.7451140000000 1.0
C      1  0.4795070000000  0.3210350000000  0.7029890000000 1.0
C      1  0.4654560000000  0.2672110000000  0.6205990000000 1.0
C      1  0.4282340000000  0.2664390000000  0.5355790000000 1.0
C      1  0.4165480000000  0.3793070000000  0.2555090000000 1.0
C      1  0.4453620000000  0.4595880000000  0.2111800000000 1.0
C      1  0.4269460000000  0.5528480000000  0.2172810000000 1.0
C      1  0.4270200000000  0.7707200000000  0.4072930000000 1.0
C      1  0.4454750000000  0.7894420000000  0.4988510000000 1.0
C      1  0.4166780000000  0.7564550000000  0.5844240000000 1.0
C      1  0.4283120000000  0.4943330000000  0.7343260000000 1.0
C      1  0.4908200000000  0.2556760000000  0.4631390000000 1.0
C      1  0.4910180000000  0.3405590000000  0.3003570000000 1.0
C      1  0.5458260000000  0.4538390000000  0.2080970000000 1.0
C      1  0.5057280000000  0.5977460000000  0.2481460000000 1.0
C      1  0.5057730000000  0.7340070000000  0.3669820000000 1.0
C      1  0.5459420000000  0.7932400000000  0.5040910000000 1.0
C      1  0.4911480000000  0.7172650000000  0.6288840000000 1.0
C      1  0.4909280000000  0.5675390000000  0.7351160000000 1.0
C      1  0.5557470000000  0.4361160000000  0.7809200000000 1.0
C      1  0.5743990000000  0.3069280000000  0.7191280000000 1.0
C      1  0.5556750000000  0.2281490000000  0.5995480000000 1.0
C      1  0.1991290000000  0.5749440000000  0.3458980000000 1.0
C      1  0.1991520000000  0.6403760000000  0.4029550000000 1.0
C      1  0.1915640000000  0.6632740000000  0.4865100000000 1.0
C      1  0.1782060000000  0.6409500000000  0.5695270000000 1.0
C      1  0.1611610000000  0.5764380000000  0.6260580000000 1.0
C      1  0.1479440000000  0.4906950000000  0.6355200000000 1.0
C      1  0.1446230000000  0.4107280000000  0.6002890000000 1.0
C      1  0.1479010000000  0.3649400000000  0.5258610000000 1.0
C      1  0.1610850000000  0.3626360000000  0.4396230000000 1.0
C      1  0.1781260000000  0.4098530000000  0.3680110000000 1.0
C      1  0.1915040000000  0.4890530000000  0.3345890000000 1.0
C      1  0.3689850000000  0.5188880000000  0.4761610000000 1.0
C      1  0.6258120000000  0.4993130000000  0.4985070000000 1.0
C      1  0.7104520000000  0.5013320000000  0.4961580000000 1.0
C      1  0.4562040000000  0.5206920000000  0.4740600000000 1.0
C      1  0.5355330000000  0.4962770000000  0.5020250000000 1.0
END
