TITL C-2159255-4746-104 -0.00140990860651082 3375 -399.571604480685 0 0 60 (C3h) n - 1
REM
REM in /scratch/bkarasulu/871
REM
REM
REM
REM
REM
REM ./C.cell (a2850807a9bf4ad07a5b6933b78d9264)
REM AIRSS Version 0.9.1 bugfix July 2018 build 013d7b7c2542+ Fri, 06 Jul 2018 19:26:36 +0100
REM compiler GCC version 9.2.1 20190827 (Red Hat 9.2.1-1)
REM options -cpp -mtune=generic -march=x86-64 -g -O0 -fpre-include=/usr/include/finclude/math-vector-fortran.h
REM seed -344459333 -152186531 -1679925642 -1038638369 1668270075 13110546 -1572201911 -75015834 461917447 1799468191 1278040604 852668864 -1034687096 2011813182 -1272199772 1612869203 558398761 593301066 1056565552 1259437186 -1623848655 116384472 793026223 1878531539 232935375 198863478 534674884 490496637 -1500096422 -62160721 -495985028 -1944685502 1959739675
REM
CELL 1.54180   15.00000   15.00000   15.00000   90.00000   90.00000   90.00000
LATT -1
SFAC C  
C      1  0.3993620000000  0.6043900000000  0.3473240000000 1.0
C      1  0.3993620000000  0.5800260000000  0.6667430000000 1.0
C      1  0.3993620000000  0.3155830000000  0.4859330000000 1.0
C      1  0.6006380000000  0.6043900000000  0.3473240000000 1.0
C      1  0.6006380000000  0.5800260000000  0.6667430000000 1.0
C      1  0.6006380000000  0.3155830000000  0.4859330000000 1.0
C      1  0.6756090000000  0.4307840000000  0.4099570000000 1.0
C      1  0.6756100000000  0.6125870000000  0.4850780000000 1.0
C      1  0.6756090000000  0.4566290000000  0.6049640000000 1.0
C      1  0.3243910000000  0.4307840000000  0.4099570000000 1.0
C      1  0.3243900000000  0.6125870000000  0.4850780000000 1.0
C      1  0.3243910000000  0.4566290000000  0.6049640000000 1.0
C      1  0.3833380000000  0.5243490000000  0.2905150000000 1.0
C      1  0.3833380000000  0.6692440000000  0.6258290000000 1.0
C      1  0.3833380000000  0.3064070000000  0.5836550000000 1.0
C      1  0.6166620000000  0.5243490000000  0.2905150000000 1.0
C      1  0.6166620000000  0.6692440000000  0.6258290000000 1.0
C      1  0.6166620000000  0.3064070000000  0.5836550000000 1.0
C      1  0.5523330000000  0.3896370000000  0.3521730000000 1.0
C      1  0.5523340000000  0.6832050000000  0.4783360000000 1.0
C      1  0.5523340000000  0.4271600000000  0.6694920000000 1.0
C      1  0.4476670000000  0.3896370000000  0.3521730000000 1.0
C      1  0.4476660000000  0.6832050000000  0.4783360000000 1.0
C      1  0.4476660000000  0.4271600000000  0.6694920000000 1.0
C      1  0.3083920000000  0.3628510000000  0.4727050000000 1.0
C      1  0.3083920000000  0.5922120000000  0.3948730000000 1.0
C      1  0.3083920000000  0.5449370000000  0.6324220000000 1.0
C      1  0.6916080000000  0.3628510000000  0.4727050000000 1.0
C      1  0.6916080000000  0.5922120000000  0.3948730000000 1.0
C      1  0.6916080000000  0.5449370000000  0.6324220000000 1.0
C      1  0.4528770000000  0.6844750000000  0.3749110000000 1.0
C      1  0.4528770000000  0.5160930000000  0.7223060000000 1.0
C      1  0.4528770000000  0.2994320000000  0.4027850000000 1.0
C      1  0.5471230000000  0.6844750000000  0.3749110000000 1.0
C      1  0.5471230000000  0.5160930000000  0.7223060000000 1.0
C      1  0.5471230000000  0.2994320000000  0.4027850000000 1.0
C      1  0.4185730000000  0.4585510000000  0.5815780000000 1.0
C      1  0.4185730000000  0.4500760000000  0.4233160000000 1.0
C      1  0.4185730000000  0.5913730000000  0.4951070000000 1.0
C      1  0.5814270000000  0.4585510000000  0.5815780000000 1.0
C      1  0.5814270000000  0.4500760000000  0.4233160000000 1.0
C      1  0.5814270000000  0.5913730000000  0.4951070000000 1.0
C      1  0.3033970000000  0.5030620000000  0.3555090000000 1.0
C      1  0.3033970000000  0.6236010000000  0.5748970000000 1.0
C      1  0.3033970000000  0.3733370000000  0.5695930000000 1.0
C      1  0.6966030000000  0.5030620000000  0.3555090000000 1.0
C      1  0.6966030000000  0.6236010000000  0.5748970000000 1.0
C      1  0.6966030000000  0.3733370000000  0.5695930000000 1.0
C      1  0.5483160000000  0.3277970000000  0.6474320000000 1.0
C      1  0.5483160000000  0.4584230000000  0.2771510000000 1.0
C      1  0.5483160000000  0.7137810000000  0.5754170000000 1.0
C      1  0.4516840000000  0.3277970000000  0.6474320000000 1.0
C      1  0.4516840000000  0.4584230000000  0.2771510000000 1.0
C      1  0.4516840000000  0.7137810000000  0.5754170000000 1.0
C      1  0.5494550000000  0.5417700000000  0.4180120000000 1.0
C      1  0.5494550000000  0.5501190000000  0.5771680000000 1.0
C      1  0.5494550000000  0.4081120000000  0.5048200000000 1.0
C      1  0.4505450000000  0.5417700000000  0.4180120000000 1.0
C      1  0.4505450000000  0.5501190000000  0.5771680000000 1.0
C      1  0.4505450000000  0.4081120000000  0.5048200000000 1.0
END
