TITL C-2159255-4746-1145 -0.00311315599867114 3375 -453.905802190864 0 0 60 (Ih) n - 1
REM
REM in /scratch/bkarasulu/871
REM
REM
REM
REM
REM
REM ./C.cell (a2850807a9bf4ad07a5b6933b78d9264)
REM AIRSS Version 0.9.1 bugfix July 2018 build 013d7b7c2542+ Fri, 06 Jul 2018 19:26:36 +0100
REM compiler GCC version 9.2.1 20190827 (Red Hat 9.2.1-1)
REM options -cpp -mtune=generic -march=x86-64 -g -O0 -fpre-include=/usr/include/finclude/math-vector-fortran.h
REM seed -1197666799 2011477742 -2086465807 653291951 1928291797 880164949 -1885745784 -588360411 -1402322139 -806278976 -1049575182 742461793 -987252278 1897373332 -114884523 1605673754 -1226601293 1967023199 -1119825558 -992666107 1165850557 865299003 1506621400 1489140095 357329574 852353866 532050544 1226159216 -940486736 1457135261 1363124842 716676142 551460761
REM
CELL 1.54180   15.00000   15.00000   15.00000   90.00000   90.00000   90.00000
LATT -1
SFAC C  
C      1  0.5948700000000  0.7017950000000  0.5781370000000 1.0
C      1  0.7017950000000  0.5781370000000  0.5948700000000 1.0
C      1  0.5781370000000  0.5948700000000  0.7017950000000 1.0
C      1  0.4051300000000  0.2982050000000  0.5781370000000 1.0
C      1  0.5948700000000  0.2982050000000  0.4218630000000 1.0
C      1  0.4051300000000  0.7017950000000  0.4218630000000 1.0
C      1  0.2982050000000  0.4218630000000  0.5948700000000 1.0
C      1  0.7017950000000  0.4218630000000  0.4051300000000 1.0
C      1  0.2982050000000  0.5781370000000  0.4051300000000 1.0
C      1  0.4218630000000  0.4051300000000  0.7017950000000 1.0
C      1  0.5781370000000  0.4051300000000  0.2982050000000 1.0
C      1  0.4218630000000  0.5948700000000  0.2982050000000 1.0
C      1  0.5948700000000  0.7017950000000  0.4218630000000 1.0
C      1  0.7017950000000  0.5781370000000  0.4051300000000 1.0
C      1  0.5781370000000  0.5948700000000  0.2982050000000 1.0
C      1  0.4051300000000  0.2982050000000  0.4218630000000 1.0
C      1  0.5948700000000  0.2982050000000  0.5781370000000 1.0
C      1  0.4051300000000  0.7017950000000  0.5781370000000 1.0
C      1  0.2982050000000  0.4218630000000  0.4051300000000 1.0
C      1  0.7017950000000  0.4218630000000  0.5948700000000 1.0
C      1  0.2982050000000  0.5781370000000  0.5948700000000 1.0
C      1  0.4218630000000  0.4051300000000  0.2982050000000 1.0
C      1  0.5781370000000  0.4051300000000  0.7017950000000 1.0
C      1  0.4218630000000  0.5948700000000  0.7017950000000 1.0
C      1  0.3464970000000  0.4517090000000  0.3269930000000 1.0
C      1  0.4517090000000  0.3269930000000  0.3464970000000 1.0
C      1  0.3269930000000  0.3464970000000  0.4517090000000 1.0
C      1  0.6535030000000  0.5482910000000  0.3269930000000 1.0
C      1  0.3464970000000  0.5482910000000  0.6730070000000 1.0
C      1  0.6535030000000  0.4517090000000  0.6730070000000 1.0
C      1  0.5482910000000  0.6730070000000  0.3464970000000 1.0
C      1  0.4517090000000  0.6730070000000  0.6535030000000 1.0
C      1  0.5482910000000  0.3269930000000  0.6535030000000 1.0
C      1  0.6730070000000  0.6535030000000  0.4517090000000 1.0
C      1  0.3269930000000  0.6535030000000  0.5482910000000 1.0
C      1  0.6730070000000  0.3464970000000  0.5482910000000 1.0
C      1  0.3464970000000  0.4517090000000  0.6730070000000 1.0
C      1  0.4517090000000  0.3269930000000  0.6535030000000 1.0
C      1  0.3269930000000  0.3464970000000  0.5482910000000 1.0
C      1  0.6535030000000  0.5482910000000  0.6730070000000 1.0
C      1  0.3464970000000  0.5482910000000  0.3269930000000 1.0
C      1  0.6535030000000  0.4517090000000  0.3269930000000 1.0
C      1  0.5482910000000  0.6730070000000  0.6535030000000 1.0
C      1  0.4517090000000  0.6730070000000  0.3464970000000 1.0
C      1  0.5482910000000  0.3269930000000  0.3464970000000 1.0
C      1  0.6730070000000  0.6535030000000  0.5482910000000 1.0
C      1  0.3269930000000  0.6535030000000  0.4517090000000 1.0
C      1  0.6730070000000  0.3464970000000  0.4517090000000 1.0
C      1  0.2683580000000  0.5000000000000  0.5465790000000 1.0
C      1  0.7316420000000  0.5000000000000  0.4534210000000 1.0
C      1  0.5000000000000  0.5465790000000  0.7316420000000 1.0
C      1  0.7316420000000  0.5000000000000  0.5465790000000 1.0
C      1  0.5000000000000  0.4534210000000  0.7316420000000 1.0
C      1  0.5000000000000  0.5465790000000  0.2683580000000 1.0
C      1  0.5465790000000  0.2683580000000  0.5000000000000 1.0
C      1  0.4534210000000  0.7316420000000  0.5000000000000 1.0
C      1  0.5000000000000  0.4534210000000  0.2683580000000 1.0
C      1  0.2683580000000  0.5000000000000  0.4534210000000 1.0
C      1  0.5465790000000  0.7316420000000  0.5000000000000 1.0
C      1  0.4534210000000  0.2683580000000  0.5000000000000 1.0
END
