TITL C-2158984-8299-1148 -0.0019153080527508 3375 -396.933444675564 0 0 60 (C1) n - 1
REM
REM in /scratch/bkarasulu/869
REM
REM
REM
REM
REM
REM ./C.cell (a2850807a9bf4ad07a5b6933b78d9264)
REM AIRSS Version 0.9.1 bugfix July 2018 build 013d7b7c2542+ Fri, 06 Jul 2018 19:26:36 +0100
REM compiler GCC version 9.2.1 20190827 (Red Hat 9.2.1-1)
REM options -cpp -mtune=generic -march=x86-64 -g -O0 -fpre-include=/usr/include/finclude/math-vector-fortran.h
REM seed 1515666508 -603048686 638612269 223236134 1362656061 -1131989640 -696622385 -173563267 -986032 -545460137 1086165987 889578735 -1426147161 -1892675244 -476201043 -406472446 2102513998 1125007630 -612557450 1615623494 1227988908 -1844480847 -1644225981 1529595428 -535973080 -645711823 1205074957 1681281519 937406356 243515740 -52161385 690144835 -806771508
REM
CELL 1.54180   15.00000   15.00000   15.00000   90.00000   90.00000   90.00000
LATT -1
SFAC C  
C      1  0.4566790000000  0.5723570000000  0.2429010000000 1.0
C      1  0.6717250000000  0.5611680000000  0.3100520000000 1.0
C      1  0.7601580000000  0.5698720000000  0.5170490000000 1.0
C      1  0.6456460000000  0.5745530000000  0.7188960000000 1.0
C      1  0.4199260000000  0.5696580000000  0.7523660000000 1.0
C      1  0.2540790000000  0.5690700000000  0.6014290000000 1.0
C      1  0.2657520000000  0.5745890000000  0.3755850000000 1.0
C      1  0.4295570000000  0.5594330000000  0.5984750000000 1.0
C      1  0.3795890000000  0.5605530000000  0.5099220000000 1.0
C      1  0.4174230000000  0.5613150000000  0.4153630000000 1.0
C      1  0.5155520000000  0.5594700000000  0.3872300000000 1.0
C      1  0.5986030000000  0.5574560000000  0.4459010000000 1.0
C      1  0.6055220000000  0.5605400000000  0.5472960000000 1.0
C      1  0.5298540000000  0.5606030000000  0.6153580000000 1.0
C      1  0.3347720000000  0.4139840000000  0.3844550000000 1.0
C      1  0.4881840000000  0.4110650000000  0.3044500000000 1.0
C      1  0.6414510000000  0.4010680000000  0.3785490000000 1.0
C      1  0.6914180000000  0.4109360000000  0.5421890000000 1.0
C      1  0.5886320000000  0.4139170000000  0.6809760000000 1.0
C      1  0.4181180000000  0.4088520000000  0.6818300000000 1.0
C      1  0.3077240000000  0.4088630000000  0.5529960000000 1.0
C      1  0.3901260000000  0.6469270000000  0.6373640000000 1.0
C      1  0.3259880000000  0.6481330000000  0.5044370000000 1.0
C      1  0.3905920000000  0.6488950000000  0.3699670000000 1.0
C      1  0.5356760000000  0.6459180000000  0.3353120000000 1.0
C      1  0.6517990000000  0.6438860000000  0.4257950000000 1.0
C      1  0.6507150000000  0.6479230000000  0.5747450000000 1.0
C      1  0.5347090000000  0.6482950000000  0.6686990000000 1.0
C      1  0.7079190000000  0.6521360000000  0.4986210000000 1.0
C      1  0.6293330000000  0.6554360000000  0.6647560000000 1.0
C      1  0.4514810000000  0.6524960000000  0.7092700000000 1.0
C      1  0.3071230000000  0.6522360000000  0.5973900000000 1.0
C      1  0.3065750000000  0.6559170000000  0.4144600000000 1.0
C      1  0.4486310000000  0.6538750000000  0.2978540000000 1.0
C      1  0.6284490000000  0.6466140000000  0.3340990000000 1.0
C      1  0.4168990000000  0.2922640000000  0.5707380000000 1.0
C      1  0.3853660000000  0.2926060000000  0.4758850000000 1.0
C      1  0.4317670000000  0.2916290000000  0.3903600000000 1.0
C      1  0.5266530000000  0.2807430000000  0.3793510000000 1.0
C      1  0.6233320000000  0.2808160000000  0.4932530000000 1.0
C      1  0.5973070000000  0.2913480000000  0.5853000000000 1.0
C      1  0.5053950000000  0.2927080000000  0.6171300000000 1.0
C      1  0.6426560000000  0.3697610000000  0.6150080000000 1.0
C      1  0.5038390000000  0.3667790000000  0.6803360000000 1.0
C      1  0.3658220000000  0.3631440000000  0.6146860000000 1.0
C      1  0.3224870000000  0.3665400000000  0.4680400000000 1.0
C      1  0.4089110000000  0.3698570000000  0.3410230000000 1.0
C      1  0.5635510000000  0.3608920000000  0.3381810000000 1.0
C      1  0.6693640000000  0.3611830000000  0.4625580000000 1.0
C      1  0.3286220000000  0.5071870000000  0.3711270000000 1.0
C      1  0.4972670000000  0.5038770000000  0.2896650000000 1.0
C      1  0.6576890000000  0.4949770000000  0.3739430000000 1.0
C      1  0.7045040000000  0.5039820000000  0.5497540000000 1.0
C      1  0.5874550000000  0.5069330000000  0.6956430000000 1.0
C      1  0.4041620000000  0.5022550000000  0.6915970000000 1.0
C      1  0.2916930000000  0.5025090000000  0.5503090000000 1.0
C      1  0.4959940000000  0.4810210000000  0.5032710000000 1.0
C      1  0.5063840000000  0.4017800000000  0.4947100000000 1.0
C      1  0.5676630000000  0.2319340000000  0.4425480000000 1.0
C      1  0.4976490000000  0.7008310000000  0.5019700000000 1.0
END
