TITL C-2159255-4746-567 -0.00148418624774965 3375 -389.498494567193 0 0 60 (Td) n - 1
REM
REM in /scratch/bkarasulu/871
REM
REM
REM
REM
REM
REM ./C.cell (a2850807a9bf4ad07a5b6933b78d9264)
REM AIRSS Version 0.9.1 bugfix July 2018 build 013d7b7c2542+ Fri, 06 Jul 2018 19:26:36 +0100
REM compiler GCC version 9.2.1 20190827 (Red Hat 9.2.1-1)
REM options -cpp -mtune=generic -march=x86-64 -g -O0 -fpre-include=/usr/include/finclude/math-vector-fortran.h
REM seed -216862342 -2092420183 632256734 1975068874 -975768896 -1284366424 1100270059 -1854947133 -119385559 1169099476 2009189893 -1645012788 1454059013 -317717348 -680410655 -885284576 -1164547470 316379322 -1351021675 -636628280 -905361991 452410558 544171994 -170038065 1284753388 -1565834681 32704768 -1421139624 -1202455682 -1892149215 386295903 -1314321350 439409555
REM
CELL 1.54180   15.00000   15.00000   15.00000   90.00000   90.00000   90.00000
LATT -1
SFAC C  
C      1  0.3764810000000  0.5576040000000  0.3078960000000 1.0
C      1  0.3078960000000  0.3764810000000  0.5576040000000 1.0
C      1  0.5576040000000  0.3078960000000  0.3764810000000 1.0
C      1  0.6235190000000  0.5576040000000  0.6921040000000 1.0
C      1  0.3764810000000  0.4423960000000  0.6921040000000 1.0
C      1  0.6235190000000  0.4423960000000  0.3078960000000 1.0
C      1  0.6921040000000  0.3764810000000  0.4423960000000 1.0
C      1  0.3078960000000  0.6235190000000  0.4423960000000 1.0
C      1  0.6921040000000  0.6235190000000  0.5576040000000 1.0
C      1  0.4423960000000  0.3078960000000  0.6235190000000 1.0
C      1  0.5576040000000  0.6921040000000  0.6235190000000 1.0
C      1  0.4423960000000  0.6921040000000  0.3764810000000 1.0
C      1  0.3078960000000  0.5576040000000  0.3764810000000 1.0
C      1  0.5576040000000  0.3764810000000  0.3078960000000 1.0
C      1  0.3764810000000  0.3078960000000  0.5576040000000 1.0
C      1  0.6921040000000  0.5576040000000  0.6235190000000 1.0
C      1  0.6921040000000  0.4423960000000  0.3764810000000 1.0
C      1  0.3078960000000  0.4423960000000  0.6235190000000 1.0
C      1  0.4423960000000  0.3764810000000  0.6921040000000 1.0
C      1  0.4423960000000  0.6235190000000  0.3078960000000 1.0
C      1  0.5576040000000  0.6235190000000  0.6921040000000 1.0
C      1  0.6235190000000  0.3078960000000  0.4423960000000 1.0
C      1  0.6235190000000  0.6921040000000  0.5576040000000 1.0
C      1  0.3764810000000  0.6921040000000  0.4423960000000 1.0
C      1  0.6822630000000  0.4582190000000  0.6095790000000 1.0
C      1  0.6095790000000  0.6822630000000  0.4582190000000 1.0
C      1  0.4582190000000  0.6095790000000  0.6822630000000 1.0
C      1  0.3177370000000  0.4582190000000  0.3904210000000 1.0
C      1  0.6822630000000  0.5417810000000  0.3904210000000 1.0
C      1  0.3177370000000  0.5417810000000  0.6095790000000 1.0
C      1  0.3904210000000  0.6822630000000  0.5417810000000 1.0
C      1  0.6095790000000  0.3177370000000  0.5417810000000 1.0
C      1  0.3904210000000  0.3177370000000  0.4582190000000 1.0
C      1  0.5417810000000  0.6095790000000  0.3177370000000 1.0
C      1  0.4582190000000  0.3904210000000  0.3177370000000 1.0
C      1  0.5417810000000  0.3904210000000  0.6822630000000 1.0
C      1  0.6095790000000  0.4582190000000  0.6822630000000 1.0
C      1  0.4582190000000  0.6822630000000  0.6095790000000 1.0
C      1  0.6822630000000  0.6095790000000  0.4582190000000 1.0
C      1  0.3904210000000  0.4582190000000  0.3177370000000 1.0
C      1  0.3904210000000  0.5417810000000  0.6822630000000 1.0
C      1  0.6095790000000  0.5417810000000  0.3177370000000 1.0
C      1  0.5417810000000  0.6822630000000  0.3904210000000 1.0
C      1  0.5417810000000  0.3177370000000  0.6095790000000 1.0
C      1  0.4582190000000  0.3177370000000  0.3904210000000 1.0
C      1  0.3177370000000  0.6095790000000  0.5417810000000 1.0
C      1  0.3177370000000  0.3904210000000  0.4582190000000 1.0
C      1  0.6822630000000  0.3904210000000  0.5417810000000 1.0
C      1  0.5343240000000  0.5343240000000  0.3937500000000 1.0
C      1  0.3937500000000  0.5343240000000  0.5343240000000 1.0
C      1  0.5343240000000  0.3937500000000  0.5343240000000 1.0
C      1  0.4656760000000  0.5343240000000  0.6062500000000 1.0
C      1  0.5343240000000  0.4656760000000  0.6062500000000 1.0
C      1  0.4656760000000  0.4656760000000  0.3937500000000 1.0
C      1  0.6062500000000  0.5343240000000  0.4656760000000 1.0
C      1  0.3937500000000  0.4656760000000  0.4656760000000 1.0
C      1  0.6062500000000  0.4656760000000  0.5343240000000 1.0
C      1  0.4656760000000  0.3937500000000  0.4656760000000 1.0
C      1  0.5343240000000  0.6062500000000  0.4656760000000 1.0
C      1  0.4656760000000  0.6062500000000  0.5343240000000 1.0
END
