TITL C-2158988-7926-351 -0.00357323846892402 3375 -388.870271857765 0 0 60 (Cs) n - 1
REM
REM in /scratch/bkarasulu/868
REM
REM
REM
REM
REM
REM ./C.cell (a2850807a9bf4ad07a5b6933b78d9264)
REM AIRSS Version 0.9.1 bugfix July 2018 build 013d7b7c2542+ Fri, 06 Jul 2018 19:26:36 +0100
REM compiler GCC version 9.2.1 20190827 (Red Hat 9.2.1-1)
REM options -cpp -mtune=generic -march=x86-64 -g -O0 -fpre-include=/usr/include/finclude/math-vector-fortran.h
REM seed 797669316 -320358485 -1554899143 -2026353723 1707644032 431131644 1390647207 -1891986052 1473542284 33802114 -2027204739 -1069363129 -911027809 927156803 1353411697 416965514 -1127157474 491685179 1265878561 1394549017 -986589090 -1593446831 -2096858157 -1420552784 570044536 253312783 2099244861 1799939947 -568731569 1645163141 1009950667 2099021973 756840564
REM
CELL 1.54180   15.00000   15.00000   15.00000   90.00000   90.00000   90.00000
LATT -1
SFAC C  
C      1  0.5899290000000  0.7490350000000  0.4565790000000 1.0
C      1  0.5899280000000  0.6855580000000  0.3293830000000 1.0
C      1  0.5896930000000  0.5637960000000  0.2559060000000 1.0
C      1  0.5896010000000  0.4216160000000  0.2604120000000 1.0
C      1  0.5899590000000  0.3055360000000  0.3422780000000 1.0
C      1  0.5907820000000  0.2518360000000  0.4733650000000 1.0
C      1  0.5912000000000  0.2769850000000  0.6127060000000 1.0
C      1  0.5907780000000  0.3732100000000  0.7165810000000 1.0
C      1  0.5899560000000  0.5102410000000  0.7524910000000 1.0
C      1  0.5895970000000  0.6454480000000  0.7089530000000 1.0
C      1  0.5896900000000  0.7345360000000  0.5980490000000 1.0
C      1  0.4597240000000  0.3047940000000  0.3417770000000 1.0
C      1  0.4602520000000  0.2500730000000  0.4732870000000 1.0
C      1  0.4605920000000  0.2752830000000  0.6135560000000 1.0
C      1  0.4602510000000  0.3722130000000  0.7180370000000 1.0
C      1  0.4597180000000  0.5101960000000  0.7533870000000 1.0
C      1  0.4594740000000  0.6451330000000  0.7084750000000 1.0
C      1  0.4595900000000  0.7342750000000  0.5977990000000 1.0
C      1  0.4598030000000  0.7494560000000  0.4564160000000 1.0
C      1  0.4598050000000  0.6859420000000  0.3291450000000 1.0
C      1  0.4595910000000  0.5638390000000  0.2562670000000 1.0
C      1  0.4594770000000  0.4218100000000  0.2609530000000 1.0
C      1  0.6515560000000  0.3292070000000  0.4816350000000 1.0
C      1  0.6520200000000  0.3464010000000  0.5780670000000 1.0
C      1  0.6515530000000  0.4131200000000  0.6497850000000 1.0
C      1  0.6505890000000  0.5076190000000  0.6741170000000 1.0
C      1  0.6499590000000  0.6003120000000  0.6441200000000 1.0
C      1  0.6496000000000  0.6612170000000  0.5680060000000 1.0
C      1  0.6493690000000  0.6708670000000  0.4707890000000 1.0
C      1  0.6493690000000  0.6272060000000  0.3832970000000 1.0
C      1  0.6496040000000  0.5437220000000  0.3325550000000 1.0
C      1  0.6499640000000  0.4462840000000  0.3354600000000 1.0
C      1  0.6505920000000  0.3665830000000  0.3914940000000 1.0
C      1  0.5245230000000  0.7672410000000  0.5299180000000 1.0
C      1  0.5246800000000  0.7403620000000  0.3814720000000 1.0
C      1  0.5245240000000  0.6379000000000  0.2707390000000 1.0
C      1  0.5243160000000  0.4919270000000  0.2327650000000 1.0
C      1  0.5245150000000  0.3488110000000  0.2802150000000 1.0
C      1  0.5250300000000  0.2541050000000  0.3976810000000 1.0
C      1  0.5255250000000  0.2378580000000  0.5477950000000 1.0
C      1  0.5255240000000  0.3053310000000  0.6829980000000 1.0
C      1  0.5250260000000  0.4350510000000  0.7602760000000 1.0
C      1  0.5245110000000  0.5858510000000  0.7552270000000 1.0
C      1  0.5243130000000  0.7098150000000  0.6693910000000 1.0
C      1  0.3982040000000  0.5073230000000  0.6749070000000 1.0
C      1  0.3978080000000  0.6005550000000  0.6440780000000 1.0
C      1  0.3975880000000  0.6623620000000  0.5677410000000 1.0
C      1  0.3975110000000  0.6730550000000  0.4700190000000 1.0
C      1  0.3975130000000  0.6291380000000  0.3820150000000 1.0
C      1  0.3975900000000  0.5446210000000  0.3318030000000 1.0
C      1  0.3978100000000  0.4464630000000  0.3352940000000 1.0
C      1  0.3982080000000  0.3657750000000  0.3912580000000 1.0
C      1  0.3985100000000  0.3280540000000  0.4819270000000 1.0
C      1  0.3986750000000  0.3453720000000  0.5785800000000 1.0
C      1  0.3985090000000  0.4121940000000  0.6505310000000 1.0
C      1  0.3012210000000  0.5015110000000  0.5006630000000 1.0
C      1  0.5570900000000  0.4932230000000  0.5047960000000 1.0
C      1  0.3838310000000  0.5030180000000  0.4999120000000 1.0
C      1  0.6463160000000  0.4824910000000  0.5101520000000 1.0
C      1  0.4737920000000  0.5064650000000  0.4981940000000 1.0
END
