TITL C-2159255-4746-870 -0.00181201182671054 3375 -421.402129844927 0 0 60 (C1) n - 1
REM
REM in /scratch/bkarasulu/871
REM
REM
REM
REM
REM
REM ./C.cell (a2850807a9bf4ad07a5b6933b78d9264)
REM AIRSS Version 0.9.1 bugfix July 2018 build 013d7b7c2542+ Fri, 06 Jul 2018 19:26:36 +0100
REM compiler GCC version 9.2.1 20190827 (Red Hat 9.2.1-1)
REM options -cpp -mtune=generic -march=x86-64 -g -O0 -fpre-include=/usr/include/finclude/math-vector-fortran.h
REM seed 1405839914 1421219035 1570302209 -1149684379 -1047043820 1809023686 -212032462 -1803960926 1220279932 1294388390 1579352718 503739883 1737621661 -2016188004 -1153207298 -1359703127 -1939450700 -413807804 -23750309 1669568510 1694213721 -1162077061 -199196922 1202757200 1988849713 305001111 -143397679 2067062644 -937385142 473598741 471553017 -2066056179 657136408
REM
CELL 1.54180   15.00000   15.00000   15.00000   90.00000   90.00000   90.00000
LATT -1
SFAC C  
C      1  0.2668850000000  0.4754940000000  0.5151840000000 1.0
C      1  0.4904070000000  0.6647870000000  0.7248090000000 1.0
C      1  0.4823370000000  0.4969740000000  0.4930340000000 1.0
C      1  0.4999250000000  0.3461580000000  0.6126220000000 1.0
C      1  0.4167520000000  0.4408200000000  0.2751680000000 1.0
C      1  0.6951230000000  0.5226190000000  0.4490560000000 1.0
C      1  0.3806230000000  0.5858950000000  0.3528700000000 1.0
C      1  0.5781400000000  0.2670670000000  0.4955200000000 1.0
C      1  0.5409250000000  0.5806220000000  0.7250500000000 1.0
C      1  0.4863210000000  0.6832890000000  0.5593950000000 1.0
C      1  0.4149680000000  0.4793510000000  0.6745900000000 1.0
C      1  0.4885980000000  0.5427500000000  0.6513910000000 1.0
C      1  0.5299830000000  0.3089110000000  0.3407870000000 1.0
C      1  0.5384190000000  0.5180010000000  0.5699670000000 1.0
C      1  0.3047540000000  0.5572600000000  0.4916170000000 1.0
C      1  0.4929780000000  0.2901760000000  0.5316790000000 1.0
C      1  0.3505650000000  0.4992340000000  0.3160930000000 1.0
C      1  0.6679950000000  0.3460730000000  0.3989570000000 1.0
C      1  0.3431290000000  0.3725240000000  0.5945410000000 1.0
C      1  0.5078180000000  0.4577490000000  0.2647360000000 1.0
C      1  0.4412770000000  0.6419460000000  0.6374900000000 1.0
C      1  0.5095180000000  0.6611290000000  0.3949260000000 1.0
C      1  0.6354790000000  0.6958630000000  0.7115270000000 1.0
C      1  0.5949410000000  0.3813630000000  0.6279570000000 1.0
C      1  0.6622800000000  0.5617550000000  0.6339680000000 1.0
C      1  0.6566690000000  0.6340690000000  0.5664750000000 1.0
C      1  0.6980360000000  0.3663030000000  0.4852660000000 1.0
C      1  0.3503270000000  0.6949880000000  0.4642170000000 1.0
C      1  0.6346270000000  0.5980180000000  0.7163480000000 1.0
C      1  0.6494740000000  0.4103950000000  0.3329300000000 1.0
C      1  0.4459550000000  0.6651970000000  0.4737960000000 1.0
C      1  0.5118690000000  0.4417800000000  0.4332700000000 1.0
C      1  0.4392740000000  0.3064800000000  0.3729750000000 1.0
C      1  0.3149910000000  0.4202180000000  0.3649940000000 1.0
C      1  0.3054650000000  0.6394530000000  0.5385330000000 1.0
C      1  0.5999160000000  0.6337530000000  0.3998350000000 1.0
C      1  0.2888310000000  0.4525720000000  0.6023540000000 1.0
C      1  0.4219190000000  0.3869280000000  0.6434440000000 1.0
C      1  0.4078650000000  0.5614070000000  0.4627460000000 1.0
C      1  0.5742330000000  0.7019330000000  0.5672870000000 1.0
C      1  0.6523540000000  0.3052570000000  0.5452640000000 1.0
C      1  0.5552160000000  0.7243260000000  0.7526270000000 1.0
C      1  0.6428540000000  0.7193000000000  0.6213280000000 1.0
C      1  0.6702300000000  0.4994740000000  0.3574690000000 1.0
C      1  0.5944400000000  0.2858090000000  0.4049000000000 1.0
C      1  0.6589610000000  0.3125750000000  0.6341440000000 1.0
C      1  0.6582040000000  0.6077280000000  0.4730770000000 1.0
C      1  0.6275720000000  0.4737990000000  0.5916150000000 1.0
C      1  0.4702680000000  0.6123940000000  0.3226890000000 1.0
C      1  0.6119140000000  0.5673650000000  0.3306510000000 1.0
C      1  0.5656700000000  0.3868600000000  0.2910670000000 1.0
C      1  0.5315630000000  0.5497730000000  0.2851410000000 1.0
C      1  0.3455560000000  0.6157710000000  0.6218890000000 1.0
C      1  0.3287260000000  0.6672470000000  0.3798080000000 1.0
C      1  0.3843590000000  0.3648120000000  0.3256210000000 1.0
C      1  0.3441780000000  0.3398390000000  0.5045260000000 1.0
C      1  0.2910070000000  0.4033530000000  0.4535620000000 1.0
C      1  0.6932540000000  0.4564110000000  0.5150200000000 1.0
C      1  0.3334910000000  0.5205710000000  0.6527450000000 1.0
C      1  0.4205900000000  0.2960340000000  0.4694530000000 1.0
END
