TITL C-2159252-5904-441 -0.00171425218793292 3375 -406.351719203949 0 0 60 (D2) n - 1
REM
REM in /scratch/bkarasulu/870
REM
REM
REM
REM
REM
REM ./C.cell (a2850807a9bf4ad07a5b6933b78d9264)
REM AIRSS Version 0.9.1 bugfix July 2018 build 013d7b7c2542+ Fri, 06 Jul 2018 19:26:36 +0100
REM compiler GCC version 9.2.1 20190827 (Red Hat 9.2.1-1)
REM options -cpp -mtune=generic -march=x86-64 -g -O0 -fpre-include=/usr/include/finclude/math-vector-fortran.h
REM seed 1965373010 242117264 -455863870 -1737190150 1000684386 1010839350 1623284292 -1139798774 -582996110 -1509725430 -1743872375 614028213 -235765344 1787892923 1747124460 -532233052 1267684375 2114120389 1902130219 -1762267391 -200709428 1736747290 -1615532096 1666809832 1728263638 -1306937691 574545579 -989241742 -806674595 421910764 948587995 -1097137425 1435060768
REM
CELL 1.54180   15.00000   15.00000   15.00000   90.00000   90.00000   90.00000
LATT -1
SFAC C  
C      1  0.5511210000000  0.6612620000000  0.5922150000000 1.0
C      1  0.4488790000000  0.6612620000000  0.4077850000000 1.0
C      1  0.5511210000000  0.3387380000000  0.4077850000000 1.0
C      1  0.4488790000000  0.3387380000000  0.5922150000000 1.0
C      1  0.2819860000000  0.5003100000000  0.5467430000000 1.0
C      1  0.7180140000000  0.5003100000000  0.4532570000000 1.0
C      1  0.2819860000000  0.4996900000000  0.4532570000000 1.0
C      1  0.7180140000000  0.4996900000000  0.5467430000000 1.0
C      1  0.6410110000000  0.4423580000000  0.3284690000000 1.0
C      1  0.3589890000000  0.4423580000000  0.6715310000000 1.0
C      1  0.6410110000000  0.5576420000000  0.6715310000000 1.0
C      1  0.3589890000000  0.5576420000000  0.3284690000000 1.0
C      1  0.4967830000000  0.3752150000000  0.2589990000000 1.0
C      1  0.5032170000000  0.3752150000000  0.7410010000000 1.0
C      1  0.4967830000000  0.6247850000000  0.7410010000000 1.0
C      1  0.5032170000000  0.6247850000000  0.2589990000000 1.0
C      1  0.5674180000000  0.4049780000000  0.6835810000000 1.0
C      1  0.4325820000000  0.4049780000000  0.3164190000000 1.0
C      1  0.5674180000000  0.5950220000000  0.3164190000000 1.0
C      1  0.4325820000000  0.5950220000000  0.6835810000000 1.0
C      1  0.6334480000000  0.6488290000000  0.4487150000000 1.0
C      1  0.3665520000000  0.6488290000000  0.5512850000000 1.0
C      1  0.6334480000000  0.3511710000000  0.5512850000000 1.0
C      1  0.3665520000000  0.3511710000000  0.4487150000000 1.0
C      1  0.6853360000000  0.5800850000000  0.5901440000000 1.0
C      1  0.3146640000000  0.5800850000000  0.4098560000000 1.0
C      1  0.6853360000000  0.4199150000000  0.4098560000000 1.0
C      1  0.3146640000000  0.4199150000000  0.5901440000000 1.0
C      1  0.3564510000000  0.4610460000000  0.3252760000000 1.0
C      1  0.6435490000000  0.4610460000000  0.6747240000000 1.0
C      1  0.3564510000000  0.5389540000000  0.6747240000000 1.0
C      1  0.6435490000000  0.5389540000000  0.3252760000000 1.0
C      1  0.6866260000000  0.4264210000000  0.5963470000000 1.0
C      1  0.3133740000000  0.4264210000000  0.4036530000000 1.0
C      1  0.6866260000000  0.5735790000000  0.4036530000000 1.0
C      1  0.3133740000000  0.5735790000000  0.5963470000000 1.0
C      1  0.5422180000000  0.3975960000000  0.5859360000000 1.0
C      1  0.4577820000000  0.3975960000000  0.4140640000000 1.0
C      1  0.5422180000000  0.6024040000000  0.4140640000000 1.0
C      1  0.4577820000000  0.6024040000000  0.5859360000000 1.0
C      1  0.5066430000000  0.7356210000000  0.4527210000000 1.0
C      1  0.4933570000000  0.7356210000000  0.5472790000000 1.0
C      1  0.5066430000000  0.2643790000000  0.5472790000000 1.0
C      1  0.4933570000000  0.2643790000000  0.4527210000000 1.0
C      1  0.3662190000000  0.3574490000000  0.5455390000000 1.0
C      1  0.6337810000000  0.3574490000000  0.4544610000000 1.0
C      1  0.3662190000000  0.6425510000000  0.4544610000000 1.0
C      1  0.6337810000000  0.6425510000000  0.5455390000000 1.0
C      1  0.5448680000000  0.4875810000000  0.5482100000000 1.0
C      1  0.4551320000000  0.4875810000000  0.4517900000000 1.0
C      1  0.5448680000000  0.5124190000000  0.4517900000000 1.0
C      1  0.4551320000000  0.5124190000000  0.5482100000000 1.0
C      1  0.4284080000000  0.3778510000000  0.6867750000000 1.0
C      1  0.5715920000000  0.3778510000000  0.3132250000000 1.0
C      1  0.4284080000000  0.6221490000000  0.3132250000000 1.0
C      1  0.5715920000000  0.6221490000000  0.6867750000000 1.0
C      1  0.5960870000000  0.2653040000000  0.5773130000000 1.0
C      1  0.4039130000000  0.2653040000000  0.4226870000000 1.0
C      1  0.5960870000000  0.7346960000000  0.4226870000000 1.0
C      1  0.4039130000000  0.7346960000000  0.5773130000000 1.0
END
