TITL C-2158988-7926-911 -0.00178344715084448 3375 -395.476057942458 0 0 60 (Ci) n - 1
REM
REM in /scratch/bkarasulu/868
REM
REM
REM
REM
REM
REM ./C.cell (a2850807a9bf4ad07a5b6933b78d9264)
REM AIRSS Version 0.9.1 bugfix July 2018 build 013d7b7c2542+ Fri, 06 Jul 2018 19:26:36 +0100
REM compiler GCC version 9.2.1 20190827 (Red Hat 9.2.1-1)
REM options -cpp -mtune=generic -march=x86-64 -g -O0 -fpre-include=/usr/include/finclude/math-vector-fortran.h
REM seed -1056664972 916866732 1466367222 -1757953027 -1003340647 -2058095742 1232740491 1771822121 756597906 456794368 1765541361 -700530706 -1454618993 -948062928 1931644591 -1246371533 1604957755 -1147523741 1832136090 -1287723809 2091234920 -695632349 -904663818 1074648683 -1246986128 753932876 -1565475635 -464100514 -43416839 933195514 -792475162 -1749168865 -664918625
REM
CELL 1.54180   15.00000   15.00000   15.00000   90.00000   90.00000   90.00000
LATT -1
SFAC C  
C      1  0.3127590000000  0.3579460000000  0.5193430000000 1.0
C      1  0.6872410000000  0.6420540000000  0.4806570000000 1.0
C      1  0.7264120000000  0.3853140000000  0.4924490000000 1.0
C      1  0.2735880000000  0.6146860000000  0.5075510000000 1.0
C      1  0.3876660000000  0.5063170000000  0.4860930000000 1.0
C      1  0.6123340000000  0.4936830000000  0.5139070000000 1.0
C      1  0.4626950000000  0.4791090000000  0.3149080000000 1.0
C      1  0.5373050000000  0.5208910000000  0.6850920000000 1.0
C      1  0.6257980000000  0.3110530000000  0.6235640000000 1.0
C      1  0.3742020000000  0.6889470000000  0.3764360000000 1.0
C      1  0.6630840000000  0.4986080000000  0.6039190000000 1.0
C      1  0.3369160000000  0.5013920000000  0.3960810000000 1.0
C      1  0.6954890000000  0.4233950000000  0.6416440000000 1.0
C      1  0.3045110000000  0.5766050000000  0.3583560000000 1.0
C      1  0.5581160000000  0.5787280000000  0.5239580000000 1.0
C      1  0.4418840000000  0.4212720000000  0.4760420000000 1.0
C      1  0.3885360000000  0.3615650000000  0.3893110000000 1.0
C      1  0.6114640000000  0.6384350000000  0.6106890000000 1.0
C      1  0.6292590000000  0.3823120000000  0.6940690000000 1.0
C      1  0.3707410000000  0.6176880000000  0.3059310000000 1.0
C      1  0.4827720000000  0.6100930000000  0.6822670000000 1.0
C      1  0.5172280000000  0.3899070000000  0.3177330000000 1.0
C      1  0.7251340000000  0.5680240000000  0.4343360000000 1.0
C      1  0.2748660000000  0.4319760000000  0.5656640000000 1.0
C      1  0.3323580000000  0.5411570000000  0.6373160000000 1.0
C      1  0.6676420000000  0.4588430000000  0.3626840000000 1.0
C      1  0.6877440000000  0.6741590000000  0.5636180000000 1.0
C      1  0.3122560000000  0.3258410000000  0.4363820000000 1.0
C      1  0.5232770000000  0.6367790000000  0.2947580000000 1.0
C      1  0.4767230000000  0.3632210000000  0.7052420000000 1.0
C      1  0.4799770000000  0.2815650000000  0.5269940000000 1.0
C      1  0.5200230000000  0.7184350000000  0.4730060000000 1.0
C      1  0.4132330000000  0.3561710000000  0.5474230000000 1.0
C      1  0.5867670000000  0.6438290000000  0.4525770000000 1.0
C      1  0.4489120000000  0.5755870000000  0.2775350000000 1.0
C      1  0.5510880000000  0.4244130000000  0.7224650000000 1.0
C      1  0.4624180000000  0.7228500000000  0.3935140000000 1.0
C      1  0.5375820000000  0.2771500000000  0.6064860000000 1.0
C      1  0.5048870000000  0.7242280000000  0.3084990000000 1.0
C      1  0.4951130000000  0.2757720000000  0.6915010000000 1.0
C      1  0.3792280000000  0.4413230000000  0.3394440000000 1.0
C      1  0.6207720000000  0.5586770000000  0.6605560000000 1.0
C      1  0.3297980000000  0.4461730000000  0.6468710000000 1.0
C      1  0.6702020000000  0.5538270000000  0.3531290000000 1.0
C      1  0.4191190000000  0.4067340000000  0.6334170000000 1.0
C      1  0.5808810000000  0.5932660000000  0.3665830000000 1.0
C      1  0.4689050000000  0.3158140000000  0.3627930000000 1.0
C      1  0.5310950000000  0.6841860000000  0.6372070000000 1.0
C      1  0.4922870000000  0.2667780000000  0.4379540000000 1.0
C      1  0.5077130000000  0.7332220000000  0.5620460000000 1.0
C      1  0.5135300000000  0.5231690000000  0.3924270000000 1.0
C      1  0.4864700000000  0.4768310000000  0.6075730000000 1.0
C      1  0.7002780000000  0.4720070000000  0.4585850000000 1.0
C      1  0.2997220000000  0.5279930000000  0.5414150000000 1.0
C      1  0.4588620000000  0.5490800000000  0.5455180000000 1.0
C      1  0.5411380000000  0.4509200000000  0.4544820000000 1.0
C      1  0.4121960000000  0.5874760000000  0.6261580000000 1.0
C      1  0.5878040000000  0.4125240000000  0.3738420000000 1.0
C      1  0.3036220000000  0.6458610000000  0.4297300000000 1.0
C      1  0.6963780000000  0.3541390000000  0.5702700000000 1.0
END
