TITL C-2159255-4746-720 -0.00236497009510518 3375 -406.608395311665 0 0 60 (C1) n - 1
REM
REM in /scratch/bkarasulu/871
REM
REM
REM
REM
REM
REM ./C.cell (a2850807a9bf4ad07a5b6933b78d9264)
REM AIRSS Version 0.9.1 bugfix July 2018 build 013d7b7c2542+ Fri, 06 Jul 2018 19:26:36 +0100
REM compiler GCC version 9.2.1 20190827 (Red Hat 9.2.1-1)
REM options -cpp -mtune=generic -march=x86-64 -g -O0 -fpre-include=/usr/include/finclude/math-vector-fortran.h
REM seed -1413251297 -1381031270 1732519921 -2034172173 229471471 -1710481079 1689416338 -217692754 -253097361 -1936208937 -2105282824 -1894202913 -944956149 -1751307026 -296344804 704393235 -1600457200 -464589803 1809768583 43923766 946449933 -636734407 1124552585 1260391925 -524889639 -1771434354 781014171 1626584289 -49430827 -1896411402 1211209715 16735107 -197268586
REM
CELL 1.54180   15.00000   15.00000   15.00000   90.00000   90.00000   90.00000
LATT -1
SFAC C  
C      1  0.4408430000000  0.7017870000000  0.5659570000000 1.0
C      1  0.4030540000000  0.5092120000000  0.4434220000000 1.0
C      1  0.4251390000000  0.4234150000000  0.4916140000000 1.0
C      1  0.3000550000000  0.3196860000000  0.4578560000000 1.0
C      1  0.5507960000000  0.5431110000000  0.2981610000000 1.0
C      1  0.6216590000000  0.5592290000000  0.3608740000000 1.0
C      1  0.4323790000000  0.4394250000000  0.3068860000000 1.0
C      1  0.5853420000000  0.5046800000000  0.4404180000000 1.0
C      1  0.6442240000000  0.4380910000000  0.5962430000000 1.0
C      1  0.4660790000000  0.4568690000000  0.5751800000000 1.0
C      1  0.3822390000000  0.6576660000000  0.4154170000000 1.0
C      1  0.3544200000000  0.5921800000000  0.4807800000000 1.0
C      1  0.6364390000000  0.5143260000000  0.5295510000000 1.0
C      1  0.6642870000000  0.4854060000000  0.6806410000000 1.0
C      1  0.5859360000000  0.6628670000000  0.5222290000000 1.0
C      1  0.5185010000000  0.2963740000000  0.4888290000000 1.0
C      1  0.2437770000000  0.4899630000000  0.4616520000000 1.0
C      1  0.5910040000000  0.5105550000000  0.7241870000000 1.0
C      1  0.6388960000000  0.2874020000000  0.5518200000000 1.0
C      1  0.5461960000000  0.3132360000000  0.5776900000000 1.0
C      1  0.2398010000000  0.4605140000000  0.5594660000000 1.0
C      1  0.3106700000000  0.4104680000000  0.5920350000000 1.0
C      1  0.4938060000000  0.6178540000000  0.3057290000000 1.0
C      1  0.4025750000000  0.6080670000000  0.5715530000000 1.0
C      1  0.3490630000000  0.3631240000000  0.5210600000000 1.0
C      1  0.8260330000000  0.4457030000000  0.5053420000000 1.0
C      1  0.3421580000000  0.5556050000000  0.6355900000000 1.0
C      1  0.5176300000000  0.6594980000000  0.4497080000000 1.0
C      1  0.6112860000000  0.2751020000000  0.4626330000000 1.0
C      1  0.3236500000000  0.3707790000000  0.3877430000000 1.0
C      1  0.5252010000000  0.4385180000000  0.7112010000000 1.0
C      1  0.5905500000000  0.5929690000000  0.6746960000000 1.0
C      1  0.4821130000000  0.3664780000000  0.4313750000000 1.0
C      1  0.5453370000000  0.4045860000000  0.6169020000000 1.0
C      1  0.6404750000000  0.3430950000000  0.3999580000000 1.0
C      1  0.3800300000000  0.4625150000000  0.6438070000000 1.0
C      1  0.4870170000000  0.5506380000000  0.5558970000000 1.0
C      1  0.5550240000000  0.6696950000000  0.3624780000000 1.0
C      1  0.7657480000000  0.3722370000000  0.4948180000000 1.0
C      1  0.4052990000000  0.6075200000000  0.3359750000000 1.0
C      1  0.4353570000000  0.4394640000000  0.7175830000000 1.0
C      1  0.4963940000000  0.5510550000000  0.4571870000000 1.0
C      1  0.2489270000000  0.5497100000000  0.6089020000000 1.0
C      1  0.4392440000000  0.7085100000000  0.4679560000000 1.0
C      1  0.3749610000000  0.5095160000000  0.3465590000000 1.0
C      1  0.2071500000000  0.6106160000000  0.5582000000000 1.0
C      1  0.5243490000000  0.4555610000000  0.3083690000000 1.0
C      1  0.5668250000000  0.4152180000000  0.3919760000000 1.0
C      1  0.6724680000000  0.6530560000000  0.4752050000000 1.0
C      1  0.2957360000000  0.4614690000000  0.3853000000000 1.0
C      1  0.5774490000000  0.5796020000000  0.5780380000000 1.0
C      1  0.4124610000000  0.3631230000000  0.3584180000000 1.0
C      1  0.7909970000000  0.5222180000000  0.5191150000000 1.0
C      1  0.5577820000000  0.6791550000000  0.6815240000000 1.0
C      1  0.7319430000000  0.3453130000000  0.4127810000000 1.0
C      1  0.6972200000000  0.3607000000000  0.5649820000000 1.0
C      1  0.6456760000000  0.6466050000000  0.3810410000000 1.0
C      1  0.5288110000000  0.7118960000000  0.6013630000000 1.0
C      1  0.7163700000000  0.5732080000000  0.5148340000000 1.0
C      1  0.2551480000000  0.5835590000000  0.4832950000000 1.0
END
