TITL C-2158988-7926-813 -0.00154542788109838 3375 -402.223164004178 0 0 60 (C1) n - 1
REM
REM in /scratch/bkarasulu/868
REM
REM
REM
REM
REM
REM ./C.cell (a2850807a9bf4ad07a5b6933b78d9264)
REM AIRSS Version 0.9.1 bugfix July 2018 build 013d7b7c2542+ Fri, 06 Jul 2018 19:26:36 +0100
REM compiler GCC version 9.2.1 20190827 (Red Hat 9.2.1-1)
REM options -cpp -mtune=generic -march=x86-64 -g -O0 -fpre-include=/usr/include/finclude/math-vector-fortran.h
REM seed 1319076307 -612258409 572320233 -928926617 1290555814 516957982 1890868015 -1469351687 1305742236 708244218 -457253983 357679570 673563643 -2075797555 -1762780789 1441785770 829492967 861610093 -300606067 -1763366591 1815220395 33881232 546021816 -1168592869 1284569150 -917180559 1516452703 39868644 40414218 -155806163 628942538 -1627537534 391122269
REM
CELL 1.54180   15.00000   15.00000   15.00000   90.00000   90.00000   90.00000
LATT -1
SFAC C  
C      1  0.5766310000000  0.4433510000000  0.6306660000000 1.0
C      1  0.4190130000000  0.4454350000000  0.3708890000000 1.0
C      1  0.4993110000000  0.2692330000000  0.3865530000000 1.0
C      1  0.4962640000000  0.2512280000000  0.5753100000000 1.0
C      1  0.4815540000000  0.6403700000000  0.6913190000000 1.0
C      1  0.5179430000000  0.6377620000000  0.3084490000000 1.0
C      1  0.4249090000000  0.2441160000000  0.5161460000000 1.0
C      1  0.6081190000000  0.2464850000000  0.4886020000000 1.0
C      1  0.5360340000000  0.5142290000000  0.5736070000000 1.0
C      1  0.4634450000000  0.5143980000000  0.4270810000000 1.0
C      1  0.4696480000000  0.7135230000000  0.4347700000000 1.0
C      1  0.5311110000000  0.7135030000000  0.5643770000000 1.0
C      1  0.4991770000000  0.5506340000000  0.2756450000000 1.0
C      1  0.4983590000000  0.5535350000000  0.7249900000000 1.0
C      1  0.6262110000000  0.6020380000000  0.6420840000000 1.0
C      1  0.3716140000000  0.6038250000000  0.3574010000000 1.0
C      1  0.2711310000000  0.4988580000000  0.5760000000000 1.0
C      1  0.7290300000000  0.4953460000000  0.4271590000000 1.0
C      1  0.4126940000000  0.5090380000000  0.7222930000000 1.0
C      1  0.5826400000000  0.5032190000000  0.2799270000000 1.0
C      1  0.3917740000000  0.3784030000000  0.4337370000000 1.0
C      1  0.6061980000000  0.3776490000000  0.5685900000000 1.0
C      1  0.4427090000000  0.7087070000000  0.5261660000000 1.0
C      1  0.5578610000000  0.7068940000000  0.4731060000000 1.0
C      1  0.3422940000000  0.5724380000000  0.6954580000000 1.0
C      1  0.6540450000000  0.5647500000000  0.3068570000000 1.0
C      1  0.4128990000000  0.4431740000000  0.6584140000000 1.0
C      1  0.5841520000000  0.4373740000000  0.3446740000000 1.0
C      1  0.7026680000000  0.3999100000000  0.4350170000000 1.0
C      1  0.2977860000000  0.4038990000000  0.5699000000000 1.0
C      1  0.6145210000000  0.6337790000000  0.4489690000000 1.0
C      1  0.3847740000000  0.6366870000000  0.5507700000000 1.0
C      1  0.6910620000000  0.5093140000000  0.5190370000000 1.0
C      1  0.3074440000000  0.5112550000000  0.4823780000000 1.0
C      1  0.5775510000000  0.3074650000000  0.4225580000000 1.0
C      1  0.4256670000000  0.3162010000000  0.5803590000000 1.0
C      1  0.4160500000000  0.5225840000000  0.3179100000000 1.0
C      1  0.5799640000000  0.5218210000000  0.6819870000000 1.0
C      1  0.4205860000000  0.2825950000000  0.4267650000000 1.0
C      1  0.5858760000000  0.2791030000000  0.5708330000000 1.0
C      1  0.4535310000000  0.3879220000000  0.5174250000000 1.0
C      1  0.5452950000000  0.3846610000000  0.4850150000000 1.0
C      1  0.7298240000000  0.5408580000000  0.3524990000000 1.0
C      1  0.2669970000000  0.5473540000000  0.6486540000000 1.0
C      1  0.6873500000000  0.4094600000000  0.5285330000000 1.0
C      1  0.3112810000000  0.4101760000000  0.4761550000000 1.0
C      1  0.4473830000000  0.4749040000000  0.5657310000000 1.0
C      1  0.5510240000000  0.4702020000000  0.4347550000000 1.0
C      1  0.6060880000000  0.6354520000000  0.3484270000000 1.0
C      1  0.3931210000000  0.6393250000000  0.6512410000000 1.0
C      1  0.6942630000000  0.5932750000000  0.5763160000000 1.0
C      1  0.3041310000000  0.5956430000000  0.4241510000000 1.0
C      1  0.5933590000000  0.5329970000000  0.4940740000000 1.0
C      1  0.4050980000000  0.5362090000000  0.5057570000000 1.0
C      1  0.3611700000000  0.3685220000000  0.6312260000000 1.0
C      1  0.6404890000000  0.3665280000000  0.3734560000000 1.0
C      1  0.5600590000000  0.6713130000000  0.6413120000000 1.0
C      1  0.4400450000000  0.6709400000000  0.3582900000000 1.0
C      1  0.6938260000000  0.6486870000000  0.5028850000000 1.0
C      1  0.3049450000000  0.6514430000000  0.4973440000000 1.0
END
