TITL C-2158984-8299-930 -0.00161813208086216 3375 -386.318958802487 0 0 60 (D4) n - 1
REM
REM in /scratch/bkarasulu/869
REM
REM
REM
REM
REM
REM ./C.cell (a2850807a9bf4ad07a5b6933b78d9264)
REM AIRSS Version 0.9.1 bugfix July 2018 build 013d7b7c2542+ Fri, 06 Jul 2018 19:26:36 +0100
REM compiler GCC version 9.2.1 20190827 (Red Hat 9.2.1-1)
REM options -cpp -mtune=generic -march=x86-64 -g -O0 -fpre-include=/usr/include/finclude/math-vector-fortran.h
REM seed -796017901 -1736036710 -1513038550 -1847205224 1003834829 32803580 -1870319995 -1228182893 -2010506424 1945960294 -1741617441 -183759607 -141550510 -1194565227 254303505 -1012144231 -1190632361 -498789176 748867440 252062319 473359200 -266731241 -422812811 2035174817 461956468 834792977 -642674441 -2059320123 -1621813853 255103949 -883846055 -460984935 -947747245
REM
CELL 1.54180   15.00000   15.00000   15.00000   90.00000   90.00000   90.00000
LATT -1
SFAC C  
C      1  0.4028730000000  0.6721750000000  0.6459210000000 1.0
C      1  0.3278250000000  0.4028730000000  0.6459210000000 1.0
C      1  0.5971270000000  0.3278250000000  0.6459210000000 1.0
C      1  0.6721750000000  0.5971270000000  0.6459210000000 1.0
C      1  0.5971270000000  0.6721750000000  0.3557910000000 1.0
C      1  0.6721750000000  0.4028730000000  0.3557910000000 1.0
C      1  0.4028730000000  0.3278250000000  0.3557910000000 1.0
C      1  0.3278250000000  0.5971270000000  0.3557910000000 1.0
C      1  0.4775480000000  0.2485900000000  0.4580430000000 1.0
C      1  0.7514100000000  0.4775480000000  0.4580430000000 1.0
C      1  0.5224520000000  0.7514100000000  0.4580430000000 1.0
C      1  0.2485900000000  0.5224520000000  0.4580430000000 1.0
C      1  0.5224520000000  0.2485900000000  0.5436690000000 1.0
C      1  0.2485900000000  0.4775480000000  0.5436690000000 1.0
C      1  0.4775480000000  0.7514100000000  0.5436690000000 1.0
C      1  0.7514100000000  0.5224520000000  0.5436690000000 1.0
C      1  0.4898130000000  0.6574880000000  0.6723580000000 1.0
C      1  0.3425120000000  0.4898130000000  0.6723580000000 1.0
C      1  0.5101870000000  0.3425120000000  0.6723580000000 1.0
C      1  0.6574880000000  0.5101870000000  0.6723580000000 1.0
C      1  0.5101870000000  0.6574880000000  0.3293540000000 1.0
C      1  0.6574880000000  0.4898130000000  0.3293540000000 1.0
C      1  0.4898130000000  0.3425120000000  0.3293540000000 1.0
C      1  0.3425120000000  0.5101870000000  0.3293540000000 1.0
C      1  0.6089990000000  0.2992490000000  0.5604140000000 1.0
C      1  0.7007510000000  0.6089990000000  0.5604140000000 1.0
C      1  0.3910010000000  0.7007510000000  0.5604140000000 1.0
C      1  0.2992490000000  0.3910010000000  0.5604140000000 1.0
C      1  0.3910010000000  0.2992490000000  0.4412980000000 1.0
C      1  0.2992490000000  0.6089990000000  0.4412980000000 1.0
C      1  0.6089990000000  0.7007510000000  0.4412980000000 1.0
C      1  0.7007510000000  0.3910010000000  0.4412980000000 1.0
C      1  0.2919080000000  0.4679290000000  0.4002630000000 1.0
C      1  0.5320710000000  0.2919080000000  0.4002630000000 1.0
C      1  0.7080920000000  0.5320710000000  0.4002630000000 1.0
C      1  0.4679290000000  0.7080920000000  0.4002630000000 1.0
C      1  0.7080920000000  0.4679290000000  0.6014480000000 1.0
C      1  0.4679290000000  0.2919080000000  0.6014480000000 1.0
C      1  0.2919080000000  0.5320710000000  0.6014480000000 1.0
C      1  0.5320710000000  0.7080920000000  0.6014480000000 1.0
C      1  0.3766330000000  0.5326510000000  0.5415270000000 1.0
C      1  0.4673490000000  0.3766330000000  0.5415270000000 1.0
C      1  0.6233670000000  0.4673490000000  0.5415270000000 1.0
C      1  0.5326510000000  0.6233670000000  0.5415270000000 1.0
C      1  0.6233670000000  0.5326510000000  0.4601840000000 1.0
C      1  0.5326510000000  0.3766330000000  0.4601840000000 1.0
C      1  0.3766330000000  0.4673490000000  0.4601840000000 1.0
C      1  0.4673490000000  0.6233670000000  0.4601840000000 1.0
C      1  0.4937970000000  0.4304670000000  0.6242600000000 1.0
C      1  0.5695330000000  0.4937970000000  0.6242600000000 1.0
C      1  0.5062030000000  0.5695330000000  0.6242600000000 1.0
C      1  0.4304670000000  0.5062030000000  0.6242600000000 1.0
C      1  0.5062030000000  0.4304660000000  0.3774520000000 1.0
C      1  0.4304660000000  0.4937970000000  0.3774520000000 1.0
C      1  0.4937970000000  0.5695340000000  0.3774520000000 1.0
C      1  0.5695340000000  0.5062030000000  0.3774520000000 1.0
C      1  0.6218600000000  0.3781400000000  0.5008560000000 1.0
C      1  0.6218600000000  0.6218600000000  0.5008560000000 1.0
C      1  0.3781400000000  0.6218600000000  0.5008560000000 1.0
C      1  0.3781400000000  0.3781400000000  0.5008560000000 1.0
END
