TITL C-2158988-7926-587 -0.00226132841815276 3375 -420.25700696514 0 0 60 (C1) n - 1
REM
REM in /scratch/bkarasulu/868
REM
REM
REM
REM
REM
REM ./C.cell (a2850807a9bf4ad07a5b6933b78d9264)
REM AIRSS Version 0.9.1 bugfix July 2018 build 013d7b7c2542+ Fri, 06 Jul 2018 19:26:36 +0100
REM compiler GCC version 9.2.1 20190827 (Red Hat 9.2.1-1)
REM options -cpp -mtune=generic -march=x86-64 -g -O0 -fpre-include=/usr/include/finclude/math-vector-fortran.h
REM seed 1517628548 277578701 -334504981 -971752615 433739048 12786656 -1104780480 -778397134 495005879 2090723684 2032441611 945687167 2021252733 471282735 -1122584425 1237132119 -910908670 1986832787 38475895 -511483083 -2132093584 1161698389 -204737256 1204452956 1708451094 -920043995 -1978009700 -1849049700 1737312039 1859716108 -1516562922 847236597 1659050678
REM
CELL 1.54180   15.00000   15.00000   15.00000   90.00000   90.00000   90.00000
LATT -1
SFAC C  
C      1  0.3182380000000  0.6015280000000  0.5058930000000 1.0
C      1  0.6891960000000  0.6217820000000  0.4890350000000 1.0
C      1  0.4989850000000  0.2727270000000  0.4806340000000 1.0
C      1  0.4344390000000  0.7047250000000  0.5419940000000 1.0
C      1  0.7013510000000  0.4657740000000  0.5511180000000 1.0
C      1  0.3455580000000  0.3206170000000  0.5178770000000 1.0
C      1  0.6818300000000  0.5032720000000  0.6366570000000 1.0
C      1  0.3709450000000  0.3194370000000  0.6079700000000 1.0
C      1  0.4412740000000  0.6645730000000  0.6303220000000 1.0
C      1  0.4579480000000  0.2996380000000  0.6362280000000 1.0
C      1  0.3871120000000  0.5883330000000  0.6555390000000 1.0
C      1  0.6694160000000  0.5973090000000  0.6468600000000 1.0
C      1  0.3259980000000  0.5561030000000  0.5898240000000 1.0
C      1  0.6662900000000  0.6558390000000  0.5740240000000 1.0
C      1  0.5252010000000  0.2826650000000  0.5712040000000 1.0
C      1  0.7177720000000  0.5294850000000  0.4791140000000 1.0
C      1  0.4051750000000  0.2841480000000  0.4507110000000 1.0
C      1  0.3704410000000  0.6768290000000  0.4760170000000 1.0
C      1  0.4632740000000  0.5935880000000  0.2551000000000 1.0
C      1  0.6058440000000  0.5063150000000  0.2778610000000 1.0
C      1  0.4673100000000  0.4211140000000  0.2515300000000 1.0
C      1  0.3388420000000  0.5064590000000  0.3738850000000 1.0
C      1  0.5607870000000  0.6280540000000  0.3703870000000 1.0
C      1  0.5545930000000  0.3855580000000  0.3768760000000 1.0
C      1  0.4743660000000  0.4268270000000  0.4202840000000 1.0
C      1  0.4373960000000  0.5058650000000  0.3722300000000 1.0
C      1  0.4945380000000  0.5742180000000  0.4163020000000 1.0
C      1  0.5683260000000  0.3008230000000  0.4211950000000 1.0
C      1  0.2862520000000  0.5460680000000  0.4371330000000 1.0
C      1  0.6390290000000  0.6618340000000  0.4201630000000 1.0
C      1  0.5746780000000  0.5340140000000  0.7467550000000 1.0
C      1  0.4917540000000  0.5358280000000  0.7796680000000 1.0
C      1  0.5952370000000  0.6153120000000  0.7027240000000 1.0
C      1  0.5586880000000  0.4239390000000  0.2874650000000 1.0
C      1  0.4372600000000  0.5066680000000  0.2735640000000 1.0
C      1  0.5564460000000  0.5912870000000  0.2803450000000 1.0
C      1  0.6032480000000  0.3360480000000  0.5975980000000 1.0
C      1  0.3039430000000  0.4597630000000  0.5890130000000 1.0
C      1  0.5844450000000  0.7079910000000  0.5842920000000 1.0
C      1  0.6221830000000  0.4630220000000  0.6995420000000 1.0
C      1  0.3451020000000  0.4025000000000  0.6510660000000 1.0
C      1  0.5343970000000  0.6740950000000  0.6589190000000 1.0
C      1  0.5641700000000  0.7133720000000  0.4281080000000 1.0
C      1  0.6371070000000  0.3529900000000  0.4456850000000 1.0
C      1  0.2871760000000  0.4522140000000  0.4308520000000 1.0
C      1  0.6921060000000  0.5031980000000  0.3148200000000 1.0
C      1  0.4131220000000  0.3542270000000  0.2899260000000 1.0
C      1  0.4106200000000  0.6545750000000  0.3066740000000 1.0
C      1  0.7305000000000  0.5037710000000  0.3884670000000 1.0
C      1  0.3900320000000  0.3111310000000  0.3583810000000 1.0
C      1  0.3840710000000  0.6874530000000  0.3792580000000 1.0
C      1  0.4867340000000  0.3668170000000  0.6977910000000 1.0
C      1  0.4233170000000  0.5249770000000  0.7196710000000 1.0
C      1  0.5123940000000  0.5420890000000  0.5047900000000 1.0
C      1  0.6604640000000  0.3783180000000  0.5319640000000 1.0
C      1  0.2966310000000  0.4049150000000  0.5085990000000 1.0
C      1  0.5258750000000  0.7253560000000  0.5124210000000 1.0
C      1  0.4129400000000  0.4301740000000  0.7083390000000 1.0
C      1  0.4876460000000  0.4600470000000  0.5100150000000 1.0
C      1  0.5799880000000  0.3824060000000  0.6793230000000 1.0
END
