TITL C-2159255-4746-1129 -0.0037461639254829 3375 -400.996712962082 0 0 60 (C3) n - 1
REM
REM in /scratch/bkarasulu/871
REM
REM
REM
REM
REM
REM ./C.cell (a2850807a9bf4ad07a5b6933b78d9264)
REM AIRSS Version 0.9.1 bugfix July 2018 build 013d7b7c2542+ Fri, 06 Jul 2018 19:26:36 +0100
REM compiler GCC version 9.2.1 20190827 (Red Hat 9.2.1-1)
REM options -cpp -mtune=generic -march=x86-64 -g -O0 -fpre-include=/usr/include/finclude/math-vector-fortran.h
REM seed 1269151022 2046863454 1959606733 9209547 -2134774327 -262919698 -1542509286 -1709666101 -1846977261 1510046450 -2113563811 -1209411885 2011902577 2034809691 274418373 640115635 -1867636872 7386587 1430829501 -2098735980 1902316765 1875729126 -162115529 -600852176 -1782573566 1093760920 -1280834371 -84826882 -1536624274 144733497 -1437033281 -1881198260 1643514226
REM
CELL 1.54180   15.00000   15.00000   15.00000   90.00000   90.00000   90.00000
LATT -1
SFAC C  
C      1  0.4147790000000  0.2778240000000  0.6003420000000 1.0
C      1  0.4147160000000  0.6979820000000  0.6422070000000 1.0
C      1  0.4148040000000  0.5241540000000  0.2574050000000 1.0
C      1  0.5810170000000  0.5358760000000  0.7003060000000 1.0
C      1  0.5810580000000  0.6555320000000  0.3688070000000 1.0
C      1  0.5810950000000  0.3086200000000  0.4309300000000 1.0
C      1  0.4389950000000  0.5833020000000  0.5393410000000 1.0
C      1  0.4390290000000  0.4924160000000  0.4081650000000 1.0
C      1  0.4390140000000  0.4242570000000  0.5524620000000 1.0
C      1  0.6499600000000  0.3463460000000  0.6374710000000 1.0
C      1  0.6499250000000  0.6958890000000  0.5643890000000 1.0
C      1  0.6500030000000  0.4578260000000  0.2982160000000 1.0
C      1  0.3237070000000  0.7030720000000  0.6325210000000 1.0
C      1  0.3237950000000  0.5132190000000  0.2578110000000 1.0
C      1  0.3237660000000  0.2836390000000  0.6095750000000 1.0
C      1  0.1625300000000  0.4512840000000  0.5279340000000 1.0
C      1  0.1625160000000  0.5485400000000  0.5281030000000 1.0
C      1  0.1625370000000  0.5000580000000  0.4437920000000 1.0
C      1  0.4632400000000  0.4662220000000  0.3179120000000 1.0
C      1  0.4632030000000  0.3591930000000  0.6202790000000 1.0
C      1  0.4631710000000  0.6745670000000  0.5617890000000 1.0
C      1  0.5924110000000  0.3325740000000  0.3349550000000 1.0
C      1  0.5923280000000  0.4407830000000  0.7275530000000 1.0
C      1  0.5923390000000  0.7266780000000  0.4375400000000 1.0
C      1  0.6442560000000  0.4938440000000  0.5574800000000 1.0
C      1  0.6442610000000  0.5528640000000  0.4766450000000 1.0
C      1  0.6442770000000  0.4533490000000  0.4659500000000 1.0
C      1  0.7096040000000  0.4929850000000  0.6361390000000 1.0
C      1  0.7096210000000  0.6214180000000  0.4380840000000 1.0
C      1  0.7096550000000  0.3856820000000  0.4258850000000 1.0
C      1  0.6739380000000  0.5747610000000  0.6747340000000 1.0
C      1  0.6739890000000  0.6139510000000  0.3479540000000 1.0
C      1  0.6740080000000  0.3113570000000  0.4774030000000 1.0
C      1  0.2538230000000  0.3279640000000  0.5951170000000 1.0
C      1  0.2537750000000  0.6683890000000  0.6013380000000 1.0
C      1  0.2538470000000  0.5035590000000  0.3034150000000 1.0
C      1  0.4653900000000  0.5068770000000  0.5852780000000 1.0
C      1  0.4654040000000  0.5704130000000  0.4513910000000 1.0
C      1  0.4654220000000  0.4226950000000  0.4633110000000 1.0
C      1  0.6836240000000  0.3051940000000  0.5672510000000 1.0
C      1  0.6835630000000  0.6556540000000  0.6351500000000 1.0
C      1  0.6836380000000  0.5392250000000  0.2976930000000 1.0
C      1  0.1876280000000  0.3777150000000  0.5698560000000 1.0
C      1  0.1875930000000  0.6216320000000  0.5708610000000 1.0
C      1  0.1876440000000  0.5005440000000  0.3591220000000 1.0
C      1  0.5096410000000  0.6529200000000  0.3032190000000 1.0
C      1  0.5096690000000  0.2531170000000  0.4659570000000 1.0
C      1  0.5095740000000  0.5939550000000  0.7308320000000 1.0
C      1  0.6821760000000  0.3761530000000  0.3357680000000 1.0
C      1  0.6821090000000  0.4197040000000  0.6894400000000 1.0
C      1  0.6821080000000  0.7042160000000  0.4748870000000 1.0
C      1  0.4524770000000  0.6117470000000  0.2591680000000 1.0
C      1  0.4524810000000  0.2355540000000  0.5236170000000 1.0
C      1  0.4523900000000  0.6526690000000  0.7171900000000 1.0
C      1  0.5587170000000  0.4123450000000  0.4334970000000 1.0
C      1  0.5586770000000  0.4862370000000  0.6091850000000 1.0
C      1  0.5586880000000  0.6014410000000  0.4573490000000 1.0
C      1  0.5521200000000  0.3893150000000  0.6494880000000 1.0
C      1  0.5521030000000  0.6848060000000  0.5211320000000 1.0
C      1  0.5521710000000  0.4259000000000  0.3294070000000 1.0
END
