TITL C-2159255-4746-249 -0.00152181790871905 3375 -395.7748848925 0 0 60 (C2) n - 1
REM
REM in /scratch/bkarasulu/871
REM
REM
REM
REM
REM
REM ./C.cell (a2850807a9bf4ad07a5b6933b78d9264)
REM AIRSS Version 0.9.1 bugfix July 2018 build 013d7b7c2542+ Fri, 06 Jul 2018 19:26:36 +0100
REM compiler GCC version 9.2.1 20190827 (Red Hat 9.2.1-1)
REM options -cpp -mtune=generic -march=x86-64 -g -O0 -fpre-include=/usr/include/finclude/math-vector-fortran.h
REM seed 2059955077 -912013250 -928649764 -1098706325 1955012291 1667906869 643283138 -114304028 -1827656675 -888941536 -2116579181 156508555 -2002072813 -330200987 -1947819351 1966342739 139432321 -1050035066 2041403060 -98318188 635604111 987262918 1433782722 265619443 917385331 2011511626 2212611 -154656858 837548711 -1232910281 2073380601 -315987517 -1753831448
REM
CELL 1.54180   15.00000   15.00000   15.00000   90.00000   90.00000   90.00000
LATT -1
SFAC C  
C      1  0.6074670000000  0.5621750000000  0.5427000000000 1.0
C      1  0.4149150000000  0.5929970000000  0.5483600000000 1.0
C      1  0.4772100000000  0.3712410000000  0.5430690000000 1.0
C      1  0.3925330000000  0.5621750000000  0.4573000000000 1.0
C      1  0.5850850000000  0.5929970000000  0.4516400000000 1.0
C      1  0.5227900000000  0.3712410000000  0.4569310000000 1.0
C      1  0.3912910000000  0.6452330000000  0.4049930000000 1.0
C      1  0.4653640000000  0.3035710000000  0.4027750000000 1.0
C      1  0.6820070000000  0.5744360000000  0.4233450000000 1.0
C      1  0.6087090000000  0.6452330000000  0.5950070000000 1.0
C      1  0.5346360000000  0.3035710000000  0.5972250000000 1.0
C      1  0.3179930000000  0.5744360000000  0.5766550000000 1.0
C      1  0.5496740000000  0.7039060000000  0.5512330000000 1.0
C      1  0.3194650000000  0.4283760000000  0.5530160000000 1.0
C      1  0.6239770000000  0.3252100000000  0.5679860000000 1.0
C      1  0.4503260000000  0.7039060000000  0.4487670000000 1.0
C      1  0.6805350000000  0.4283760000000  0.4469840000000 1.0
C      1  0.3760230000000  0.3252100000000  0.4320140000000 1.0
C      1  0.5484130000000  0.3390600000000  0.6849370000000 1.0
C      1  0.6007880000000  0.6190000000000  0.6887860000000 1.0
C      1  0.3256390000000  0.5343120000000  0.6627570000000 1.0
C      1  0.4515870000000  0.3390600000000  0.3150630000000 1.0
C      1  0.3992120000000  0.6190000000000  0.3112140000000 1.0
C      1  0.6743610000000  0.5343120000000  0.3372430000000 1.0
C      1  0.5389340000000  0.5397100000000  0.3839460000000 1.0
C      1  0.4431670000000  0.5087490000000  0.3898430000000 1.0
C      1  0.5167440000000  0.4448410000000  0.3889680000000 1.0
C      1  0.4610660000000  0.5397100000000  0.6160540000000 1.0
C      1  0.5568330000000  0.5087490000000  0.6101570000000 1.0
C      1  0.4832560000000  0.4448410000000  0.6110320000000 1.0
C      1  0.4133530000000  0.7192400000000  0.6316620000000 1.0
C      1  0.3721080000000  0.3009350000000  0.6130450000000 1.0
C      1  0.7355310000000  0.4951390000000  0.5880430000000 1.0
C      1  0.5866470000000  0.7192400000000  0.3683380000000 1.0
C      1  0.6278920000000  0.3009350000000  0.3869550000000 1.0
C      1  0.2644690000000  0.4951390000000  0.4119570000000 1.0
C      1  0.3874190000000  0.5213640000000  0.3107450000000 1.0
C      1  0.5279850000000  0.3946260000000  0.3034190000000 1.0
C      1  0.5901710000000  0.5687820000000  0.3043710000000 1.0
C      1  0.6125810000000  0.5213640000000  0.6892550000000 1.0
C      1  0.4720150000000  0.3946260000000  0.6965810000000 1.0
C      1  0.4098290000000  0.5687820000000  0.6956290000000 1.0
C      1  0.6929140000000  0.5096460000000  0.5036120000000 1.0
C      1  0.4481310000000  0.6913110000000  0.5488790000000 1.0
C      1  0.3765140000000  0.3503520000000  0.5269730000000 1.0
C      1  0.3070860000000  0.5096460000000  0.4963880000000 1.0
C      1  0.5518690000000  0.6913110000000  0.4511210000000 1.0
C      1  0.6234860000000  0.3503520000000  0.4730270000000 1.0
C      1  0.4425230000000  0.6590820000000  0.6965900000000 1.0
C      1  0.3823500000000  0.3671080000000  0.6781560000000 1.0
C      1  0.6792340000000  0.4609210000000  0.6583230000000 1.0
C      1  0.5574770000000  0.6590820000000  0.3034100000000 1.0
C      1  0.6176500000000  0.3671080000000  0.3218440000000 1.0
C      1  0.3207660000000  0.4609210000000  0.3416770000000 1.0
C      1  0.6388460000000  0.3704800000000  0.6507040000000 1.0
C      1  0.5299970000000  0.6579610000000  0.7275040000000 1.0
C      1  0.3225330000000  0.4402360000000  0.6460220000000 1.0
C      1  0.3611540000000  0.3704800000000  0.3492960000000 1.0
C      1  0.4700030000000  0.6579610000000  0.2724960000000 1.0
C      1  0.6774670000000  0.4402360000000  0.3539780000000 1.0
END
