TITL C-2159255-4746-248 -0.0079554519951494 3375 -400.20937565931 0 0 60 (D2h) n - 1
REM
REM in /scratch/bkarasulu/871
REM
REM
REM
REM
REM
REM ./C.cell (a2850807a9bf4ad07a5b6933b78d9264)
REM AIRSS Version 0.9.1 bugfix July 2018 build 013d7b7c2542+ Fri, 06 Jul 2018 19:26:36 +0100
REM compiler GCC version 9.2.1 20190827 (Red Hat 9.2.1-1)
REM options -cpp -mtune=generic -march=x86-64 -g -O0 -fpre-include=/usr/include/finclude/math-vector-fortran.h
REM seed -1337583046 1107695821 -1429945784 145876101 1635675138 -2131950726 -1900751119 -1362899660 -208438349 267138236 1207363895 -465624204 -25728574 333312103 905728806 -1793324138 917217899 -1643073981 -876854693 1056859756 2127889789 -810040201 1413426581 821987367 -222360568 1822907315 2042651070 -1396648757 -222801844 -916909025 1564011668 1680076621 1029555262
REM
CELL 1.54180   15.00000   15.00000   15.00000   90.00000   90.00000   90.00000
LATT -1
SFAC C  
C      1  0.5429400000000  0.8300570000000  0.5976080000000 1.0
C      1  0.4570600000000  0.1699420000000  0.5976080000000 1.0
C      1  0.5429400000000  0.8300570000000  0.4023920000000 1.0
C      1  0.4570600000000  0.1699420000000  0.4023920000000 1.0
C      1  0.4570600000000  0.8300580000000  0.5976090000000 1.0
C      1  0.5429400000000  0.1699420000000  0.5976080000000 1.0
C      1  0.4570600000000  0.8300580000000  0.4023910000000 1.0
C      1  0.5429400000000  0.1699420000000  0.4023920000000 1.0
C      1  0.6978320000000  0.4529680000000  0.4520440000000 1.0
C      1  0.3021680000000  0.5470320000000  0.4520440000000 1.0
C      1  0.6978320000000  0.4529680000000  0.5479560000000 1.0
C      1  0.3021680000000  0.5470320000000  0.5479560000000 1.0
C      1  0.3021680000000  0.4529680000000  0.4520440000000 1.0
C      1  0.6978320000000  0.5470320000000  0.4520440000000 1.0
C      1  0.3021680000000  0.4529680000000  0.5479560000000 1.0
C      1  0.6978320000000  0.5470320000000  0.5479560000000 1.0
C      1  0.5930940000000  0.7704490000000  0.4489620000000 1.0
C      1  0.4069060000000  0.2295510000000  0.4489620000000 1.0
C      1  0.5930940000000  0.7704490000000  0.5510380000000 1.0
C      1  0.4069060000000  0.2295510000000  0.5510380000000 1.0
C      1  0.4069060000000  0.7704490000000  0.4489620000000 1.0
C      1  0.5930940000000  0.2295510000000  0.4489620000000 1.0
C      1  0.4069050000000  0.7704490000000  0.5510380000000 1.0
C      1  0.5930940000000  0.2295510000000  0.5510380000000 1.0
C      1  0.5892180000000  0.4503700000000  0.3240160000000 1.0
C      1  0.4107820000000  0.5496300000000  0.3240160000000 1.0
C      1  0.5892180000000  0.4503700000000  0.6759840000000 1.0
C      1  0.4107820000000  0.5496300000000  0.6759840000000 1.0
C      1  0.4107820000000  0.4503700000000  0.3240160000000 1.0
C      1  0.5892180000000  0.5496300000000  0.3240160000000 1.0
C      1  0.4107820000000  0.4503700000000  0.6759840000000 1.0
C      1  0.5892180000000  0.5496300000000  0.6759840000000 1.0
C      1  0.3752280000000  0.4058620000000  0.4054960000000 1.0
C      1  0.6247720000000  0.5941380000000  0.4054960000000 1.0
C      1  0.3752280000000  0.4058620000000  0.5945040000000 1.0
C      1  0.6247720000000  0.5941380000000  0.5945040000000 1.0
C      1  0.6247720000000  0.4058620000000  0.4054960000000 1.0
C      1  0.3752280000000  0.5941380000000  0.4054960000000 1.0
C      1  0.6247720000000  0.4058620000000  0.5945040000000 1.0
C      1  0.3752280000000  0.5941380000000  0.5945040000000 1.0
C      1  0.4503860000000  0.4503370000000  0.5494910000000 1.0
C      1  0.5496140000000  0.5496630000000  0.5494910000000 1.0
C      1  0.4503860000000  0.4503370000000  0.4505090000000 1.0
C      1  0.5496140000000  0.5496630000000  0.4505090000000 1.0
C      1  0.5496140000000  0.4503370000000  0.5494910000000 1.0
C      1  0.4503860000000  0.5496630000000  0.5494910000000 1.0
C      1  0.5496140000000  0.4503370000000  0.4505090000000 1.0
C      1  0.4503860000000  0.5496630000000  0.4505090000000 1.0
C      1  0.3815290000000  0.3207340000000  0.5488540000000 1.0
C      1  0.6184710000000  0.6792660000000  0.5488540000000 1.0
C      1  0.3815290000000  0.3207340000000  0.4511460000000 1.0
C      1  0.6184710000000  0.6792660000000  0.4511460000000 1.0
C      1  0.6184710000000  0.3207330000000  0.5488540000000 1.0
C      1  0.3815290000000  0.6792670000000  0.5488540000000 1.0
C      1  0.6184710000000  0.3207330000000  0.4511460000000 1.0
C      1  0.3815290000000  0.6792670000000  0.4511460000000 1.0
C      1  0.5000000000000  0.4484910000000  0.7107670000000 1.0
C      1  0.5000000000000  0.5515090000000  0.7107670000000 1.0
C      1  0.5000000000000  0.5515090000000  0.2892330000000 1.0
C      1  0.5000000000000  0.4484910000000  0.2892330000000 1.0
END
