TITL C-2159255-4746-768 -0.00411063731503917 3375 -426.66206449125 0 0 60 (C4) n - 1
REM
REM in /scratch/bkarasulu/871
REM
REM
REM
REM
REM
REM ./C.cell (a2850807a9bf4ad07a5b6933b78d9264)
REM AIRSS Version 0.9.1 bugfix July 2018 build 013d7b7c2542+ Fri, 06 Jul 2018 19:26:36 +0100
REM compiler GCC version 9.2.1 20190827 (Red Hat 9.2.1-1)
REM options -cpp -mtune=generic -march=x86-64 -g -O0 -fpre-include=/usr/include/finclude/math-vector-fortran.h
REM seed 1080521494 -1024794397 1739887409 1009894971 -59998879 343468082 -147472220 -12188901 1373041292 157456949 83108992 -1770893402 -927334354 -72013834 375821968 -1855524823 1735990251 137051024 -694665108 1468475254 -601731149 -2139449897 1018430331 -520773048 -806849395 -1293296750 -120698770 2080010132 582515454 -106150845 -614438711 928171037 1462822937
REM
CELL 1.54180   15.00000   15.00000   15.00000   90.00000   90.00000   90.00000
LATT -1
SFAC C  
C      1  0.2459790000000  0.5192160000000  0.4350520000000 1.0
C      1  0.3140870000000  0.6749410000000  0.4172520000000 1.0
C      1  0.3795300000000  0.7368550000000  0.3952410000000 1.0
C      1  0.5192160000000  0.7540210000000  0.4350520000000 1.0
C      1  0.6749410000000  0.6859130000000  0.4172520000000 1.0
C      1  0.7368550000000  0.6204700000000  0.3952400000000 1.0
C      1  0.7540210000000  0.4807840000000  0.4350510000000 1.0
C      1  0.6859130000000  0.3250590000000  0.4172520000000 1.0
C      1  0.6204700000000  0.2631450000000  0.3952400000000 1.0
C      1  0.4807840000000  0.2459790000000  0.4350510000000 1.0
C      1  0.3250590000000  0.3140870000000  0.4172520000000 1.0
C      1  0.2631450000000  0.3795300000000  0.3952400000000 1.0
C      1  0.4291200000000  0.6676560000000  0.3410400000000 1.0
C      1  0.5213210000000  0.6850710000000  0.3626770000000 1.0
C      1  0.6055200000000  0.6446050000000  0.3570640000000 1.0
C      1  0.6676560000000  0.5708800000000  0.3410400000000 1.0
C      1  0.6850710000000  0.4786790000000  0.3626770000000 1.0
C      1  0.6446040000000  0.3944800000000  0.3570640000000 1.0
C      1  0.5708800000000  0.3323440000000  0.3410400000000 1.0
C      1  0.4786790000000  0.3149290000000  0.3626770000000 1.0
C      1  0.3944800000000  0.3553960000000  0.3570640000000 1.0
C      1  0.3323440000000  0.4291200000000  0.3410400000000 1.0
C      1  0.3149290000000  0.5213210000000  0.3626770000000 1.0
C      1  0.3553950000000  0.6055210000000  0.3570640000000 1.0
C      1  0.3319890000000  0.5327940000000  0.6515740000000 1.0
C      1  0.3762640000000  0.6201390000000  0.6487020000000 1.0
C      1  0.4593860000000  0.6252890000000  0.6869870000000 1.0
C      1  0.5327950000000  0.6680110000000  0.6515740000000 1.0
C      1  0.6201390000000  0.6237360000000  0.6487020000000 1.0
C      1  0.6252900000000  0.5406140000000  0.6869870000000 1.0
C      1  0.6680110000000  0.4672060000000  0.6515740000000 1.0
C      1  0.6237360000000  0.3798610000000  0.6487020000000 1.0
C      1  0.5406140000000  0.3747100000000  0.6869870000000 1.0
C      1  0.4672060000000  0.3319890000000  0.6515740000000 1.0
C      1  0.3798610000000  0.3762640000000  0.6487020000000 1.0
C      1  0.3747110000000  0.4593860000000  0.6869870000000 1.0
C      1  0.3169550000000  0.3554810000000  0.5785910000000 1.0
C      1  0.2536870000000  0.4224050000000  0.5553940000000 1.0
C      1  0.2668080000000  0.5115740000000  0.5866860000000 1.0
C      1  0.3554810000000  0.6830450000000  0.5785910000000 1.0
C      1  0.4224050000000  0.7463130000000  0.5553940000000 1.0
C      1  0.5115740000000  0.7331920000000  0.5866860000000 1.0
C      1  0.6830450000000  0.6445190000000  0.5785910000000 1.0
C      1  0.7463130000000  0.5775950000000  0.5553940000000 1.0
C      1  0.7331920000000  0.4884260000000  0.5866860000000 1.0
C      1  0.6445190000000  0.3169550000000  0.5785910000000 1.0
C      1  0.5775950000000  0.2536870000000  0.5553940000000 1.0
C      1  0.4884260000000  0.2668080000000  0.5866860000000 1.0
C      1  0.2956360000000  0.6539970000000  0.5080800000000 1.0
C      1  0.4309900000000  0.7719720000000  0.4622000000000 1.0
C      1  0.5712170000000  0.7454430000000  0.5134620000000 1.0
C      1  0.6539970000000  0.7043640000000  0.5080800000000 1.0
C      1  0.7719720000000  0.5690100000000  0.4622000000000 1.0
C      1  0.7454430000000  0.4287830000000  0.5134620000000 1.0
C      1  0.7043640000000  0.3460030000000  0.5080800000000 1.0
C      1  0.5690100000000  0.2280280000000  0.4622000000000 1.0
C      1  0.4287830000000  0.2545570000000  0.5134620000000 1.0
C      1  0.3460030000000  0.2956360000000  0.5080800000000 1.0
C      1  0.2280280000000  0.4309900000000  0.4622000000000 1.0
C      1  0.2545570000000  0.5712170000000  0.5134620000000 1.0
END
