TITL C-2158988-7926-569 -0.00218179234026009 3375 -429.011137363588 0 0 60 (C1) n - 1
REM
REM in /scratch/bkarasulu/868
REM
REM
REM
REM
REM
REM ./C.cell (a2850807a9bf4ad07a5b6933b78d9264)
REM AIRSS Version 0.9.1 bugfix July 2018 build 013d7b7c2542+ Fri, 06 Jul 2018 19:26:36 +0100
REM compiler GCC version 9.2.1 20190827 (Red Hat 9.2.1-1)
REM options -cpp -mtune=generic -march=x86-64 -g -O0 -fpre-include=/usr/include/finclude/math-vector-fortran.h
REM seed 202451931 170361692 1863817211 903803231 -1754704341 -803478700 -1657844117 1977886419 -1120663786 1689152554 1357124387 -1502574001 932820520 -1468684779 -1254911061 1818025013 1470568353 -1169038497 96600269 1969202448 -1771246010 -530636201 -1288531856 -899064753 1737062727 261944286 515625222 658895489 -2046865204 -1948711584 -238700223 822459763 -977771233
REM
CELL 1.54180   15.00000   15.00000   15.00000   90.00000   90.00000   90.00000
LATT -1
SFAC C  
C      1  0.7216210000000  0.4758350000000  0.5771710000000 1.0
C      1  0.6980770000000  0.4434340000000  0.4069990000000 1.0
C      1  0.5417570000000  0.7013480000000  0.5010450000000 1.0
C      1  0.3550400000000  0.6229750000000  0.3384850000000 1.0
C      1  0.3488890000000  0.3408860000000  0.5005980000000 1.0
C      1  0.6312370000000  0.5056050000000  0.6995950000000 1.0
C      1  0.5623040000000  0.4099820000000  0.2766820000000 1.0
C      1  0.5980170000000  0.3391730000000  0.3280790000000 1.0
C      1  0.5376810000000  0.5127290000000  0.7275150000000 1.0
C      1  0.2700430000000  0.5620180000000  0.4592080000000 1.0
C      1  0.5062900000000  0.6593570000000  0.6502410000000 1.0
C      1  0.6767530000000  0.3404350000000  0.5273470000000 1.0
C      1  0.4896830000000  0.3661290000000  0.6884190000000 1.0
C      1  0.2885660000000  0.4744310000000  0.4242130000000 1.0
C      1  0.3555880000000  0.4615740000000  0.6499300000000 1.0
C      1  0.5135390000000  0.4270160000000  0.7490100000000 1.0
C      1  0.3998940000000  0.3765050000000  0.6547630000000 1.0
C      1  0.7154630000000  0.5686390000000  0.5816460000000 1.0
C      1  0.6771670000000  0.3575350000000  0.3747350000000 1.0
C      1  0.3859360000000  0.3741200000000  0.3458250000000 1.0
C      1  0.2929380000000  0.4678870000000  0.5791360000000 1.0
C      1  0.6512380000000  0.2968630000000  0.4500700000000 1.0
C      1  0.5994800000000  0.6788430000000  0.6453800000000 1.0
C      1  0.6774360000000  0.6221100000000  0.5121010000000 1.0
C      1  0.4853960000000  0.2830930000000  0.4558880000000 1.0
C      1  0.4864760000000  0.5006960000000  0.4964990000000 1.0
C      1  0.3952000000000  0.5394510000000  0.3145600000000 1.0
C      1  0.4238150000000  0.6891360000000  0.3476810000000 1.0
C      1  0.5651910000000  0.2834820000000  0.4053480000000 1.0
C      1  0.5677320000000  0.6617830000000  0.4113480000000 1.0
C      1  0.4904930000000  0.3913410000000  0.2145020000000 1.0
C      1  0.4308250000000  0.3614450000000  0.2657610000000 1.0
C      1  0.6667290000000  0.4346640000000  0.6465800000000 1.0
C      1  0.4740120000000  0.5804930000000  0.6954640000000 1.0
C      1  0.3970800000000  0.3193300000000  0.5794370000000 1.0
C      1  0.5446510000000  0.3184500000000  0.6241260000000 1.0
C      1  0.5706750000000  0.4986610000000  0.3118060000000 1.0
C      1  0.2791440000000  0.5578240000000  0.5543300000000 1.0
C      1  0.3364120000000  0.6129240000000  0.6059880000000 1.0
C      1  0.4685410000000  0.6963300000000  0.5711760000000 1.0
C      1  0.4942900000000  0.5567630000000  0.3079310000000 1.0
C      1  0.6337030000000  0.3513070000000  0.6121350000000 1.0
C      1  0.6644300000000  0.6667620000000  0.7084850000000 1.0
C      1  0.6763050000000  0.5843440000000  0.6705210000000 1.0
C      1  0.5079850000000  0.6463660000000  0.3398360000000 1.0
C      1  0.4403350000000  0.5693500000000  0.4675280000000 1.0
C      1  0.5437810000000  0.4617000000000  0.5427190000000 1.0
C      1  0.3863490000000  0.5538420000000  0.6665910000000 1.0
C      1  0.2993090000000  0.6371250000000  0.4144750000000 1.0
C      1  0.4840590000000  0.2870110000000  0.5550580000000 1.0
C      1  0.6180990000000  0.6841760000000  0.5514480000000 1.0
C      1  0.6440640000000  0.6037910000000  0.4219740000000 1.0
C      1  0.2936350000000  0.4154650000000  0.5007080000000 1.0
C      1  0.4030180000000  0.7471650000000  0.4138920000000 1.0
C      1  0.6468660000000  0.5207840000000  0.3724450000000 1.0
C      1  0.3484970000000  0.4615270000000  0.3518210000000 1.0
C      1  0.3744310000000  0.6865870000000  0.5584790000000 1.0
C      1  0.4022550000000  0.3219440000000  0.4250380000000 1.0
C      1  0.3424210000000  0.7054820000000  0.4699320000000 1.0
C      1  0.7191600000000  0.4239790000000  0.5002980000000 1.0
END
