TITL C-2159255-4746-942 -0.0016070673290986 3375 -408.76866293192 0 0 60 (C1) n - 1
REM
REM in /scratch/bkarasulu/871
REM
REM
REM
REM
REM
REM ./C.cell (a2850807a9bf4ad07a5b6933b78d9264)
REM AIRSS Version 0.9.1 bugfix July 2018 build 013d7b7c2542+ Fri, 06 Jul 2018 19:26:36 +0100
REM compiler GCC version 9.2.1 20190827 (Red Hat 9.2.1-1)
REM options -cpp -mtune=generic -march=x86-64 -g -O0 -fpre-include=/usr/include/finclude/math-vector-fortran.h
REM seed -1062426276 -2023503083 513226005 1560534572 -136877959 -406341904 -220936201 -138505605 -1869322220 -725789691 319519465 -302572224 -659978154 382217048 -575807553 -2071957781 2144412848 1769628219 391357123 2023798715 -88512436 633042686 -1579222030 -61114569 76527458 -960579575 1132836275 -1664858498 836729192 1828503947 -1515868524 255153418 -1808008825
REM
CELL 1.54180   15.00000   15.00000   15.00000   90.00000   90.00000   90.00000
LATT -1
SFAC C  
C      1  0.3268200000000  0.3505390000000  0.4751120000000 1.0
C      1  0.4230900000000  0.6553170000000  0.3792650000000 1.0
C      1  0.3003260000000  0.5708700000000  0.5776330000000 1.0
C      1  0.5143730000000  0.6852950000000  0.3744570000000 1.0
C      1  0.6787230000000  0.5137250000000  0.4007460000000 1.0
C      1  0.4473520000000  0.5928420000000  0.6382170000000 1.0
C      1  0.3177330000000  0.5813150000000  0.4761260000000 1.0
C      1  0.3804690000000  0.6186340000000  0.3015110000000 1.0
C      1  0.4374790000000  0.5476460000000  0.2693380000000 1.0
C      1  0.4772410000000  0.4211070000000  0.7381560000000 1.0
C      1  0.6464410000000  0.3598060000000  0.4035250000000 1.0
C      1  0.5818500000000  0.5781100000000  0.5276930000000 1.0
C      1  0.6709650000000  0.6487190000000  0.6439530000000 1.0
C      1  0.5300910000000  0.4311210000000  0.4816580000000 1.0
C      1  0.7025440000000  0.3812680000000  0.4785430000000 1.0
C      1  0.6514050000000  0.5133540000000  0.5644560000000 1.0
C      1  0.3931690000000  0.7010240000000  0.5376300000000 1.0
C      1  0.5597370000000  0.4603080000000  0.3042050000000 1.0
C      1  0.2947230000000  0.3905130000000  0.4000800000000 1.0
C      1  0.6027650000000  0.4376100000000  0.6141190000000 1.0
C      1  0.5250500000000  0.6392330000000  0.5916130000000 1.0
C      1  0.6155600000000  0.4889590000000  0.6981480000000 1.0
C      1  0.6307820000000  0.6531510000000  0.4796410000000 1.0
C      1  0.7192860000000  0.3287000000000  0.5500600000000 1.0
C      1  0.5735520000000  0.2832090000000  0.5930810000000 1.0
C      1  0.5333250000000  0.5506030000000  0.2839460000000 1.0
C      1  0.5756770000000  0.6206180000000  0.3332810000000 1.0
C      1  0.3164490000000  0.3879880000000  0.5641380000000 1.0
C      1  0.4813870000000  0.4079450000000  0.3222680000000 1.0
C      1  0.4158180000000  0.3155550000000  0.4632190000000 1.0
C      1  0.4331380000000  0.5052240000000  0.5853820000000 1.0
C      1  0.5332050000000  0.5237920000000  0.4609880000000 1.0
C      1  0.3378180000000  0.4751190000000  0.6060450000000 1.0
C      1  0.4058250000000  0.5361010000000  0.4933500000000 1.0
C      1  0.5100700000000  0.5879230000000  0.7172250000000 1.0
C      1  0.4551300000000  0.5474940000000  0.4203230000000 1.0
C      1  0.4055540000000  0.4599730000000  0.2959420000000 1.0
C      1  0.6503090000000  0.6035600000000  0.3910050000000 1.0
C      1  0.5061730000000  0.4338610000000  0.5734240000000 1.0
C      1  0.6847630000000  0.6798740000000  0.5529680000000 1.0
C      1  0.3610820000000  0.6700160000000  0.4570610000000 1.0
C      1  0.4891310000000  0.7079240000000  0.5341070000000 1.0
C      1  0.2896630000000  0.6070320000000  0.3123070000000 1.0
C      1  0.3212300000000  0.4588210000000  0.3491540000000 1.0
C      1  0.4863990000000  0.3600180000000  0.4080880000000 1.0
C      1  0.6436580000000  0.3462500000000  0.5990270000000 1.0
C      1  0.5795810000000  0.6452700000000  0.6721550000000 1.0
C      1  0.4560700000000  0.2692300000000  0.5334170000000 1.0
C      1  0.5315870000000  0.4966620000000  0.7448600000000 1.0
C      1  0.5465130000000  0.7081850000000  0.4580750000000 1.0
C      1  0.5507090000000  0.2609150000000  0.5042060000000 1.0
C      1  0.6369930000000  0.4406640000000  0.3534670000000 1.0
C      1  0.2956900000000  0.5484440000000  0.3799130000000 1.0
C      1  0.3622490000000  0.6380510000000  0.6097700000000 1.0
C      1  0.5686550000000  0.3058490000000  0.4228170000000 1.0
C      1  0.6705670000000  0.5565780000000  0.6533040000000 1.0
C      1  0.4344680000000  0.3572360000000  0.6871770000000 1.0
C      1  0.7009210000000  0.4788890000000  0.4865420000000 1.0
C      1  0.3476230000000  0.3843590000000  0.6470100000000 1.0
C      1  0.4810450000000  0.2916040000000  0.6250710000000 1.0
END
