TITL C-2158988-7926-74 -0.00156175003369289 3375 -404.315601397802 0 0 60 (Cs) n - 1
REM
REM in /scratch/bkarasulu/868
REM
REM
REM
REM
REM
REM ./C.cell (a2850807a9bf4ad07a5b6933b78d9264)
REM AIRSS Version 0.9.1 bugfix July 2018 build 013d7b7c2542+ Fri, 06 Jul 2018 19:26:36 +0100
REM compiler GCC version 9.2.1 20190827 (Red Hat 9.2.1-1)
REM options -cpp -mtune=generic -march=x86-64 -g -O0 -fpre-include=/usr/include/finclude/math-vector-fortran.h
REM seed -615799735 -51881084 -68761912 1604766455 401080152 -857695422 -1423887728 -488666490 -1656495947 -449210168 -689020836 -1206159620 -1195003720 -2139218994 1046060071 2010586626 1763184138 -1305925652 -426515929 1625047046 -932448757 -1250937859 1079903356 1520997886 -2044049484 -353686050 2084257891 -1192798472 -1092478563 -181734562 1943289670 -63990686 1094842856
REM
CELL 1.54180   15.00000   15.00000   15.00000   90.00000   90.00000   90.00000
LATT -1
SFAC C  
C      1  0.6470270000000  0.6210510000000  0.3819510000000 1.0
C      1  0.6470270000000  0.3789490000000  0.3819510000000 1.0
C      1  0.4113480000000  0.4175510000000  0.5339990000000 1.0
C      1  0.4113480000000  0.5824490000000  0.5339990000000 1.0
C      1  0.4727490000000  0.6800560000000  0.6324140000000 1.0
C      1  0.4727490000000  0.3199440000000  0.6324140000000 1.0
C      1  0.5534260000000  0.3932420000000  0.3544310000000 1.0
C      1  0.5534260000000  0.6067580000000  0.3544310000000 1.0
C      1  0.3802130000000  0.4533800000000  0.6866330000000 1.0
C      1  0.3802130000000  0.5466200000000  0.6866330000000 1.0
C      1  0.5660780000000  0.6832350000000  0.6150530000000 1.0
C      1  0.5660780000000  0.3167650000000  0.6150530000000 1.0
C      1  0.3971560000000  0.5922520000000  0.3644920000000 1.0
C      1  0.3971560000000  0.4077480000000  0.3644920000000 1.0
C      1  0.2766440000000  0.3927470000000  0.4745850000000 1.0
C      1  0.2766440000000  0.6072530000000  0.4745850000000 1.0
C      1  0.6584680000000  0.3372550000000  0.4673360000000 1.0
C      1  0.6584680000000  0.6627450000000  0.4673360000000 1.0
C      1  0.4200280000000  0.6826960000000  0.5373850000000 1.0
C      1  0.4200280000000  0.3173040000000  0.5373850000000 1.0
C      1  0.3308530000000  0.3170340000000  0.5034120000000 1.0
C      1  0.3308530000000  0.6829660000000  0.5034120000000 1.0
C      1  0.5750000000000  0.6807460000000  0.5170580000000 1.0
C      1  0.5750000000000  0.3192540000000  0.5170580000000 1.0
C      1  0.4321770000000  0.5477570000000  0.4458900000000 1.0
C      1  0.4321770000000  0.4522430000000  0.4458900000000 1.0
C      1  0.2566520000000  0.5490420000000  0.5482410000000 1.0
C      1  0.2566520000000  0.4509580000000  0.5482410000000 1.0
C      1  0.3099240000000  0.5517870000000  0.4027570000000 1.0
C      1  0.3099240000000  0.4482130000000  0.4027570000000 1.0
C      1  0.5508090000000  0.5490150000000  0.7025200000000 1.0
C      1  0.5508090000000  0.4509850000000  0.7025200000000 1.0
C      1  0.5198270000000  0.4506470000000  0.2818090000000 1.0
C      1  0.5198270000000  0.5493530000000  0.2818090000000 1.0
C      1  0.4885100000000  0.5472640000000  0.5822980000000 1.0
C      1  0.4885100000000  0.4527360000000  0.5822980000000 1.0
C      1  0.6150560000000  0.3962660000000  0.6561180000000 1.0
C      1  0.6150560000000  0.6037340000000  0.6561180000000 1.0
C      1  0.5347560000000  0.5474870000000  0.4387940000000 1.0
C      1  0.5347560000000  0.4525130000000  0.4387940000000 1.0
C      1  0.4909720000000  0.7012920000000  0.4700710000000 1.0
C      1  0.4909720000000  0.2987080000000  0.4700710000000 1.0
C      1  0.4783620000000  0.3335470000000  0.3841060000000 1.0
C      1  0.4783620000000  0.6664530000000  0.3841060000000 1.0
C      1  0.7106740000000  0.4501060000000  0.3756180000000 1.0
C      1  0.7106740000000  0.5498940000000  0.3756180000000 1.0
C      1  0.6507430000000  0.5518220000000  0.5772620000000 1.0
C      1  0.6507430000000  0.4481780000000  0.5772620000000 1.0
C      1  0.7640680000000  0.5472770000000  0.4597520000000 1.0
C      1  0.7640680000000  0.4527230000000  0.4597520000000 1.0
C      1  0.7138610000000  0.5996250000000  0.5184090000000 1.0
C      1  0.7138610000000  0.4003750000000  0.5184090000000 1.0
C      1  0.4241740000000  0.4514780000000  0.2847790000000 1.0
C      1  0.4241740000000  0.5485220000000  0.2847790000000 1.0
C      1  0.5647040000000  0.4220460000000  0.5263580000000 1.0
C      1  0.5647040000000  0.5779540000000  0.5263580000000 1.0
C      1  0.4658660000000  0.5910320000000  0.6782430000000 1.0
C      1  0.4658660000000  0.4089680000000  0.6782430000000 1.0
C      1  0.3398780000000  0.4490780000000  0.5982300000000 1.0
C      1  0.3398780000000  0.5509220000000  0.5982300000000 1.0
END
