TITL C-2158984-8299-1070 -0.00243642324303974 3375 -408.293222419393 0 0 60 (C2) n - 1
REM
REM in /scratch/bkarasulu/869
REM
REM
REM
REM
REM
REM ./C.cell (a2850807a9bf4ad07a5b6933b78d9264)
REM AIRSS Version 0.9.1 bugfix July 2018 build 013d7b7c2542+ Fri, 06 Jul 2018 19:26:36 +0100
REM compiler GCC version 9.2.1 20190827 (Red Hat 9.2.1-1)
REM options -cpp -mtune=generic -march=x86-64 -g -O0 -fpre-include=/usr/include/finclude/math-vector-fortran.h
REM seed 275138000 -1666250752 1367777078 -55108787 -454356180 -128823939 -824500514 1759101484 2116441066 -397099984 -1245391252 -889217791 921174676 -463140804 -351308399 708151468 -1865743982 -746630717 -980547981 -1518118061 -219825658 1406729443 1536130694 -579739619 -979942439 -1511016059 1801772528 -6797253 -913927037 -39875336 1236840097 -360909005 1903983645
REM
CELL 1.54180   15.00000   15.00000   15.00000   90.00000   90.00000   90.00000
LATT -1
SFAC C  
C      1  0.4294630000000  0.3668950000000  0.6600570000000 1.0
C      1  0.5705370000000  0.6331050000000  0.6600570000000 1.0
C      1  0.4433920000000  0.2616200000000  0.4641830000000 1.0
C      1  0.5566080000000  0.7383800000000  0.4641830000000 1.0
C      1  0.5933410000000  0.3829770000000  0.6613510000000 1.0
C      1  0.4066590000000  0.6170230000000  0.6613510000000 1.0
C      1  0.4179080000000  0.5948510000000  0.3369110000000 1.0
C      1  0.5820920000000  0.4051490000000  0.3369110000000 1.0
C      1  0.7406790000000  0.4791170000000  0.4073080000000 1.0
C      1  0.2593210000000  0.5208830000000  0.4073080000000 1.0
C      1  0.2694830000000  0.3776160000000  0.5836920000000 1.0
C      1  0.7305170000000  0.6223840000000  0.5836920000000 1.0
C      1  0.4439400000000  0.5426030000000  0.7073350000000 1.0
C      1  0.5560600000000  0.4573970000000  0.7073350000000 1.0
C      1  0.4838870000000  0.6674700000000  0.6267110000000 1.0
C      1  0.5161130000000  0.3325300000000  0.6267110000000 1.0
C      1  0.6902910000000  0.4532760000000  0.5491800000000 1.0
C      1  0.3097090000000  0.5467240000000  0.5491800000000 1.0
C      1  0.2379010000000  0.4224300000000  0.5121360000000 1.0
C      1  0.7620990000000  0.5775700000000  0.5121360000000 1.0
C      1  0.3440050000000  0.5752440000000  0.4032070000000 1.0
C      1  0.6559950000000  0.4247560000000  0.4032070000000 1.0
C      1  0.6267680000000  0.5789170000000  0.4394070000000 1.0
C      1  0.3732320000000  0.4210830000000  0.4394070000000 1.0
C      1  0.6158350000000  0.4848950000000  0.4827300000000 1.0
C      1  0.3841650000000  0.5151050000000  0.4827300000000 1.0
C      1  0.4307810000000  0.6831530000000  0.3729500000000 1.0
C      1  0.5692190000000  0.3168470000000  0.3729500000000 1.0
C      1  0.4949920000000  0.3820050000000  0.5354800000000 1.0
C      1  0.5050080000000  0.6179950000000  0.5354800000000 1.0
C      1  0.6330990000000  0.3101970000000  0.5289070000000 1.0
C      1  0.3669010000000  0.6898030000000  0.5289070000000 1.0
C      1  0.3585130000000  0.3567330000000  0.5921090000000 1.0
C      1  0.6414870000000  0.6432670000000  0.5921090000000 1.0
C      1  0.5786410000000  0.5945670000000  0.3494320000000 1.0
C      1  0.4213590000000  0.4054330000000  0.3494320000000 1.0
C      1  0.7676840000000  0.4801780000000  0.5032780000000 1.0
C      1  0.2323160000000  0.5198220000000  0.5032780000000 1.0
C      1  0.4980880000000  0.5459010000000  0.3236810000000 1.0
C      1  0.5019120000000  0.4540990000000  0.3236810000000 1.0
C      1  0.4973760000000  0.2089780000000  0.5160460000000 1.0
C      1  0.5026240000000  0.7910220000000  0.5160460000000 1.0
C      1  0.5931240000000  0.6479710000000  0.5050780000000 1.0
C      1  0.4068760000000  0.3520290000000  0.5050780000000 1.0
C      1  0.5833170000000  0.6809170000000  0.3189950000000 1.0
C      1  0.4166830000000  0.3190830000000  0.3189950000000 1.0
C      1  0.6606060000000  0.3765980000000  0.5935950000000 1.0
C      1  0.3393940000000  0.6234020000000  0.5935950000000 1.0
C      1  0.4781270000000  0.2858230000000  0.3771730000000 1.0
C      1  0.5218730000000  0.7141770000000  0.3771730000000 1.0
C      1  0.3600560000000  0.6698510000000  0.4374470000000 1.0
C      1  0.6399440000000  0.3301490000000  0.4374470000000 1.0
C      1  0.4481520000000  0.7327630000000  0.5615050000000 1.0
C      1  0.5518480000000  0.2672370000000  0.5615050000000 1.0
C      1  0.5443190000000  0.5540360000000  0.7079190000000 1.0
C      1  0.4556810000000  0.4459640000000  0.7079190000000 1.0
C      1  0.4696940000000  0.5324660000000  0.5188650000000 1.0
C      1  0.5303060000000  0.4675340000000  0.5188650000000 1.0
C      1  0.2749690000000  0.4271050000000  0.4233310000000 1.0
C      1  0.7250310000000  0.5728950000000  0.4233310000000 1.0
END
