TITL C-2158984-8299-162 -0.00213965973220872 3375 -395.295632834762 0 0 60 (Td) n - 1
REM
REM in /scratch/bkarasulu/869
REM
REM
REM
REM
REM
REM ./C.cell (a2850807a9bf4ad07a5b6933b78d9264)
REM AIRSS Version 0.9.1 bugfix July 2018 build 013d7b7c2542+ Fri, 06 Jul 2018 19:26:36 +0100
REM compiler GCC version 9.2.1 20190827 (Red Hat 9.2.1-1)
REM options -cpp -mtune=generic -march=x86-64 -g -O0 -fpre-include=/usr/include/finclude/math-vector-fortran.h
REM seed 212421263 1946597645 1084359704 225002608 -483526503 1406379830 686026850 -2092090690 659342922 1954821336 1130048216 1722260998 1714932402 1951639919 1671764370 -1135958934 395809821 -1431567054 1977360279 -77088547 1663440595 -1603507135 1473974547 1994514234 1689402228 335669653 -1706981323 390582705 1139155575 1339242106 2053735402 -233847867 1912730820
REM
CELL 1.54180   15.00000   15.00000   15.00000   90.00000   90.00000   90.00000
LATT -1
SFAC C  
C      1  0.3589750000000  0.4690470000000  0.7100450000000 1.0
C      1  0.7100450000000  0.3589750000000  0.4690470000000 1.0
C      1  0.4690470000000  0.7100450000000  0.3589750000000 1.0
C      1  0.6410250000000  0.4690470000000  0.2899550000000 1.0
C      1  0.3589750000000  0.5309530000000  0.2899550000000 1.0
C      1  0.6410250000000  0.5309530000000  0.7100450000000 1.0
C      1  0.2899550000000  0.3589750000000  0.5309530000000 1.0
C      1  0.7100450000000  0.6410250000000  0.5309530000000 1.0
C      1  0.2899550000000  0.6410250000000  0.4690470000000 1.0
C      1  0.5309530000000  0.7100450000000  0.6410250000000 1.0
C      1  0.4690470000000  0.2899550000000  0.6410250000000 1.0
C      1  0.5309530000000  0.2899550000000  0.3589750000000 1.0
C      1  0.7100450000000  0.4690470000000  0.3589750000000 1.0
C      1  0.4690470000000  0.3589750000000  0.7100450000000 1.0
C      1  0.3589750000000  0.7100450000000  0.4690470000000 1.0
C      1  0.2899550000000  0.4690470000000  0.6410250000000 1.0
C      1  0.2899550000000  0.5309530000000  0.3589750000000 1.0
C      1  0.7100450000000  0.5309530000000  0.6410250000000 1.0
C      1  0.5309530000000  0.3589750000000  0.2899550000000 1.0
C      1  0.5309530000000  0.6410250000000  0.7100450000000 1.0
C      1  0.4690470000000  0.6410250000000  0.2899550000000 1.0
C      1  0.6410250000000  0.7100450000000  0.5309530000000 1.0
C      1  0.6410250000000  0.2899550000000  0.4690470000000 1.0
C      1  0.3589750000000  0.2899550000000  0.5309530000000 1.0
C      1  0.4289460000000  0.4982550000000  0.3581620000000 1.0
C      1  0.3581620000000  0.4289460000000  0.4982550000000 1.0
C      1  0.4982550000000  0.3581620000000  0.4289460000000 1.0
C      1  0.5710540000000  0.4982550000000  0.6418380000000 1.0
C      1  0.4289460000000  0.5017450000000  0.6418380000000 1.0
C      1  0.5710540000000  0.5017450000000  0.3581620000000 1.0
C      1  0.6418380000000  0.4289460000000  0.5017450000000 1.0
C      1  0.3581620000000  0.5710540000000  0.5017450000000 1.0
C      1  0.6418380000000  0.5710540000000  0.4982550000000 1.0
C      1  0.5017450000000  0.3581620000000  0.5710540000000 1.0
C      1  0.4982550000000  0.6418380000000  0.5710540000000 1.0
C      1  0.5017450000000  0.6418380000000  0.4289460000000 1.0
C      1  0.3581620000000  0.4982550000000  0.4289460000000 1.0
C      1  0.4982550000000  0.4289460000000  0.3581620000000 1.0
C      1  0.4289460000000  0.3581620000000  0.4982550000000 1.0
C      1  0.6418380000000  0.4982550000000  0.5710540000000 1.0
C      1  0.6418380000000  0.5017450000000  0.4289460000000 1.0
C      1  0.3581620000000  0.5017450000000  0.5710540000000 1.0
C      1  0.5017450000000  0.4289460000000  0.6418380000000 1.0
C      1  0.5017450000000  0.5710540000000  0.3581620000000 1.0
C      1  0.4982550000000  0.5710540000000  0.6418380000000 1.0
C      1  0.5710540000000  0.3581620000000  0.5017450000000 1.0
C      1  0.5710540000000  0.6418380000000  0.4982550000000 1.0
C      1  0.4289460000000  0.6418380000000  0.5017450000000 1.0
C      1  0.5953610000000  0.2419270000000  0.4046390000000 1.0
C      1  0.4046390000000  0.7580730000000  0.4046390000000 1.0
C      1  0.4046390000000  0.4046390000000  0.7580730000000 1.0
C      1  0.4046390000000  0.5953610000000  0.2419270000000 1.0
C      1  0.5953610000000  0.4046390000000  0.2419270000000 1.0
C      1  0.2419270000000  0.5953610000000  0.4046390000000 1.0
C      1  0.4046390000000  0.2419270000000  0.5953610000000 1.0
C      1  0.7580730000000  0.5953610000000  0.5953610000000 1.0
C      1  0.2419270000000  0.4046390000000  0.5953610000000 1.0
C      1  0.7580730000000  0.4046390000000  0.4046390000000 1.0
C      1  0.5953610000000  0.7580730000000  0.5953610000000 1.0
C      1  0.5953610000000  0.5953610000000  0.7580730000000 1.0
END
