TITL C-2159255-4746-353 -0.00192408872467143 3375 -397.341320370829 0 0 60 (Ci) n - 1
REM
REM in /scratch/bkarasulu/871
REM
REM
REM
REM
REM
REM ./C.cell (a2850807a9bf4ad07a5b6933b78d9264)
REM AIRSS Version 0.9.1 bugfix July 2018 build 013d7b7c2542+ Fri, 06 Jul 2018 19:26:36 +0100
REM compiler GCC version 9.2.1 20190827 (Red Hat 9.2.1-1)
REM options -cpp -mtune=generic -march=x86-64 -g -O0 -fpre-include=/usr/include/finclude/math-vector-fortran.h
REM seed -73816228 -1319302002 -1868179841 -1063033333 -1966626102 -168720207 -282831873 468714485 -861933865 258444384 -1910711869 524370647 402421044 -462804268 878864416 423959650 1229258574 184004327 -371416812 -612197057 -1543487613 1029334658 1604181247 -1726906384 1760791866 -844899137 -624451862 1383212899 -1880057564 -1524835042 577735053 294665576 2087530030
REM
CELL 1.54180   15.00000   15.00000   15.00000   90.00000   90.00000   90.00000
LATT -1
SFAC C  
C      1  0.5307280000000  0.5024680000000  0.5952520000000 1.0
C      1  0.4692720000000  0.4975320000000  0.4047480000000 1.0
C      1  0.3834830000000  0.6177630000000  0.3331860000000 1.0
C      1  0.6165170000000  0.3822370000000  0.6668140000000 1.0
C      1  0.5954240000000  0.6408230000000  0.6602030000000 1.0
C      1  0.4045760000000  0.3591770000000  0.3397970000000 1.0
C      1  0.7227740000000  0.4530940000000  0.5584670000000 1.0
C      1  0.2772260000000  0.5469060000000  0.4415330000000 1.0
C      1  0.4519740000000  0.5618130000000  0.6145270000000 1.0
C      1  0.5480260000000  0.4381870000000  0.3854730000000 1.0
C      1  0.5860450000000  0.6132480000000  0.4577570000000 1.0
C      1  0.4139550000000  0.3867520000000  0.5422430000000 1.0
C      1  0.7320040000000  0.3560410000000  0.4262630000000 1.0
C      1  0.2679960000000  0.6439590000000  0.5737370000000 1.0
C      1  0.5908850000000  0.4809940000000  0.6813410000000 1.0
C      1  0.4091150000000  0.5190060000000  0.3186590000000 1.0
C      1  0.7306880000000  0.5906300000000  0.4971680000000 1.0
C      1  0.2693120000000  0.4093700000000  0.5028320000000 1.0
C      1  0.5254070000000  0.4870260000000  0.7493520000000 1.0
C      1  0.4745930000000  0.5129740000000  0.2506480000000 1.0
C      1  0.4515970000000  0.5110200000000  0.7876380000000 1.0
C      1  0.5484030000000  0.4889800000000  0.2123620000000 1.0
C      1  0.2848790000000  0.5537280000000  0.5433680000000 1.0
C      1  0.7151210000000  0.4462720000000  0.4566320000000 1.0
C      1  0.5911890000000  0.3862730000000  0.5191630000000 1.0
C      1  0.4088110000000  0.6137270000000  0.4808370000000 1.0
C      1  0.4963590000000  0.5897480000000  0.4210810000000 1.0
C      1  0.5036410000000  0.4102520000000  0.5789190000000 1.0
C      1  0.6792300000000  0.6043230000000  0.4199180000000 1.0
C      1  0.3207700000000  0.3956770000000  0.5800820000000 1.0
C      1  0.6135020000000  0.4563870000000  0.4578860000000 1.0
C      1  0.3864980000000  0.5436130000000  0.5421140000000 1.0
C      1  0.5421050000000  0.3306900000000  0.6301890000000 1.0
C      1  0.4578950000000  0.6693100000000  0.3698110000000 1.0
C      1  0.3536760000000  0.4372270000000  0.3410840000000 1.0
C      1  0.6463240000000  0.5627730000000  0.6589160000000 1.0
C      1  0.5588560000000  0.7036820000000  0.4877040000000 1.0
C      1  0.4411440000000  0.2963180000000  0.5122960000000 1.0
C      1  0.3131070000000  0.4590530000000  0.4284060000000 1.0
C      1  0.6868930000000  0.5409470000000  0.5715940000000 1.0
C      1  0.5065210000000  0.6499240000000  0.6983690000000 1.0
C      1  0.4934790000000  0.3500760000000  0.3016310000000 1.0
C      1  0.4132000000000  0.7001540000000  0.5281200000000 1.0
C      1  0.5868000000000  0.2998460000000  0.4718800000000 1.0
C      1  0.6640890000000  0.3875750000000  0.5885300000000 1.0
C      1  0.3359110000000  0.6124250000000  0.4114700000000 1.0
C      1  0.5295020000000  0.2718580000000  0.5507400000000 1.0
C      1  0.4704980000000  0.7281420000000  0.4492600000000 1.0
C      1  0.7378460000000  0.5340970000000  0.4252850000000 1.0
C      1  0.2621540000000  0.4659030000000  0.5747150000000 1.0
C      1  0.4021910000000  0.4678400000000  0.4792350000000 1.0
C      1  0.5978090000000  0.5321600000000  0.5207650000000 1.0
C      1  0.4521860000000  0.5709970000000  0.7158160000000 1.0
C      1  0.5478140000000  0.4290030000000  0.2841840000000 1.0
C      1  0.4737880000000  0.6637710000000  0.6036590000000 1.0
C      1  0.5262120000000  0.3362290000000  0.3963410000000 1.0
C      1  0.4356820000000  0.3116420000000  0.4199920000000 1.0
C      1  0.5643180000000  0.6883580000000  0.5800080000000 1.0
C      1  0.3185220000000  0.7101440000000  0.5564620000000 1.0
C      1  0.6814780000000  0.2898560000000  0.4435380000000 1.0
END
