TITL C-2158988-7926-762 -0.0958441231083797 3375 -396.549645961949 0 0 60 (C1) n - 1
REM
REM in /scratch/bkarasulu/868
REM
REM
REM
REM
REM
REM ./C.cell (a2850807a9bf4ad07a5b6933b78d9264)
REM AIRSS Version 0.9.1 bugfix July 2018 build 013d7b7c2542+ Fri, 06 Jul 2018 19:26:36 +0100
REM compiler GCC version 9.2.1 20190827 (Red Hat 9.2.1-1)
REM options -cpp -mtune=generic -march=x86-64 -g -O0 -fpre-include=/usr/include/finclude/math-vector-fortran.h
REM seed 1682087406 -1582246524 -1726794004 379666769 -1948176144 464014351 -670639961 1777347825 -894168734 -425162822 -2025959496 1240589768 949054238 55201019 378851285 -1703464069 -1157424474 54143188 1366406422 -1675407000 -1387102967 47221683 1993127970 -2036120649 -24548000 91465447 -297320503 -2098852314 -2082708688 -1143590434 83781917 132898020 -1671689456
REM
CELL 1.54180   15.00000   15.00000   15.00000   90.00000   90.00000   90.00000
LATT -1
SFAC C  
C      1  0.3954950000000  0.5871800000000  0.3107730000000 1.0
C      1  0.4582430000000  0.4366430000000  0.2641940000000 1.0
C      1  0.5595600000000  0.5737540000000  0.2745030000000 1.0
C      1  0.6382280000000  0.5749120000000  0.4878310000000 1.0
C      1  0.3717230000000  0.5436950000000  0.5320580000000 1.0
C      1  0.5268010000000  0.3376500000000  0.4580650000000 1.0
C      1  0.5841370000000  0.6450640000000  0.3289150000000 1.0
C      1  0.3245970000000  0.5520410000000  0.3574340000000 1.0
C      1  0.5258420000000  0.3755980000000  0.2773310000000 1.0
C      1  0.3505280000000  0.3380020000000  0.4652030000000 1.0
C      1  0.7135700000000  0.4374900000000  0.4157700000000 1.0
C      1  0.4589010000000  0.6945850000000  0.5300230000000 1.0
C      1  0.3367860000000  0.4688460000000  0.3924280000000 1.0
C      1  0.5964350000000  0.4015830000000  0.3291810000000 1.0
C      1  0.5339830000000  0.6648430000000  0.4023360000000 1.0
C      1  0.5494430000000  0.5572030000000  0.5206580000000 1.0
C      1  0.4305320000000  0.4645050000000  0.5277210000000 1.0
C      1  0.5705480000000  0.4207500000000  0.4931300000000 1.0
C      1  0.5541050000000  0.3657700000000  0.7213440000000 1.0
C      1  0.6281660000000  0.5134890000000  0.7748710000000 1.0
C      1  0.4626530000000  0.4862540000000  0.8049870000000 1.0
C      1  0.4699800000000  0.6666960000000  0.6138730000000 1.0
C      1  0.3648340000000  0.3073280000000  0.5484120000000 1.0
C      1  0.7422700000000  0.4275930000000  0.5004040000000 1.0
C      1  0.4066620000000  0.6176310000000  0.4799990000000 1.0
C      1  0.4412160000000  0.3548080000000  0.4138470000000 1.0
C      1  0.6558810000000  0.5233000000000  0.4062930000000 1.0
C      1  0.2925720000000  0.4236410000000  0.4587020000000 1.0
C      1  0.6615870000000  0.3577980000000  0.3778280000000 1.0
C      1  0.5484150000000  0.7079540000000  0.4843290000000 1.0
C      1  0.3220710000000  0.4688200000000  0.7032350000000 1.0
C      1  0.6261190000000  0.2603590000000  0.6072970000000 1.0
C      1  0.6879160000000  0.6378390000000  0.6817950000000 1.0
C      1  0.3808480000000  0.4755970000000  0.7626060000000 1.0
C      1  0.5916090000000  0.3063840000000  0.6755780000000 1.0
C      1  0.6749160000000  0.5766780000000  0.7468300000000 1.0
C      1  0.6133240000000  0.2968940000000  0.4393160000000 1.0
C      1  0.6301760000000  0.6667470000000  0.5208790000000 1.0
C      1  0.2900280000000  0.4868380000000  0.5353100000000 1.0
C      1  0.6398230000000  0.5712020000000  0.3206080000000 1.0
C      1  0.3665430000000  0.6278430000000  0.3894270000000 1.0
C      1  0.4428950000000  0.3602910000000  0.3144600000000 1.0
C      1  0.5743980000000  0.4660190000000  0.4021710000000 1.0
C      1  0.4926480000000  0.5851330000000  0.4441910000000 1.0
C      1  0.4288400000000  0.4517360000000  0.4280990000000 1.0
C      1  0.5370390000000  0.5962700000000  0.6197830000000 1.0
C      1  0.3860240000000  0.3915280000000  0.5813260000000 1.0
C      1  0.6600260000000  0.3994110000000  0.5326040000000 1.0
C      1  0.3099810000000  0.4391690000000  0.6179840000000 1.0
C      1  0.6515820000000  0.3001110000000  0.5311630000000 1.0
C      1  0.6288130000000  0.6522110000000  0.6165530000000 1.0
C      1  0.4402000000000  0.5802090000000  0.1265140000000 1.0
C      1  0.5447580000000  0.4633070000000  0.7406530000000 1.0
C      1  0.5312170000000  0.5028130000000  0.6501490000000 1.0
C      1  0.4741120000000  0.5086560000000  0.8944780000000 1.0
C      1  0.4733780000000  0.5293820000000  0.2935610000000 1.0
C      1  0.5208180000000  0.4706490000000  0.5561950000000 1.0
C      1  0.4777240000000  0.5404930000000  0.0613887000000 1.0
C      1  0.4913910000000  0.5095000000000  0.3872050000000 1.0
C      1  0.4772950000000  0.5286150000000  0.9733980000000 1.0
END
