TITL C-2158984-8299-1087 -0.00119324964668402 3375 -404.120957050377 0 0 60 (C5v) n - 1
REM
REM in /scratch/bkarasulu/869
REM
REM
REM
REM
REM
REM ./C.cell (a2850807a9bf4ad07a5b6933b78d9264)
REM AIRSS Version 0.9.1 bugfix July 2018 build 013d7b7c2542+ Fri, 06 Jul 2018 19:26:36 +0100
REM compiler GCC version 9.2.1 20190827 (Red Hat 9.2.1-1)
REM options -cpp -mtune=generic -march=x86-64 -g -O0 -fpre-include=/usr/include/finclude/math-vector-fortran.h
REM seed 29435856 249524042 -1780573935 -679186014 -1987266291 -708071471 1890982850 -645767739 -1187421292 439596976 -1471426425 35988633 -1889448650 1396742082 -74122812 1212455729 -2087694796 -1913889087 1684371459 98681776 1606524712 1337076849 -1985324270 1418336186 113140789 1852990925 803556445 -520981328 -53529313 -373029460 296504440 -1065161993 961965624
REM
CELL 1.54180   15.00000   15.00000   15.00000   90.00000   90.00000   90.00000
LATT -1
SFAC C  
C      1  0.2996260000000  0.4063540000000  0.4762040000000 1.0
C      1  0.5271440000000  0.2804940000000  0.4762040000000 1.0
C      1  0.7171500000000  0.4579850000000  0.4762050000000 1.0
C      1  0.6070610000000  0.6935380000000  0.4762050000000 1.0
C      1  0.3490170000000  0.6616270000000  0.4762050000000 1.0
C      1  0.7229560000000  0.5149050000000  0.3987560000000 1.0
C      1  0.5547210000000  0.7166490000000  0.3987560000000 1.0
C      1  0.3108650000000  0.6189900000000  0.3987550000000 1.0
C      1  0.3283870000000  0.3568930000000  0.3987550000000 1.0
C      1  0.5830720000000  0.2925640000000  0.3987550000000 1.0
C      1  0.7096250000000  0.5705460000000  0.4762050000000 1.0
C      1  0.4976830000000  0.7211660000000  0.4762050000000 1.0
C      1  0.2889440000000  0.5661410000000  0.4762040000000 1.0
C      1  0.3718760000000  0.3197130000000  0.4762040000000 1.0
C      1  0.6318710000000  0.3224350000000  0.4762050000000 1.0
C      1  0.4794770000000  0.4187460000000  0.5601770000000 1.0
C      1  0.5709360000000  0.4553720000000  0.5601770000000 1.0
C      1  0.5643640000000  0.5536730000000  0.5601770000000 1.0
C      1  0.4688440000000  0.5777990000000  0.5601770000000 1.0
C      1  0.4163810000000  0.4944100000000  0.5601770000000 1.0
C      1  0.6821680000000  0.5121780000000  0.6317380000000 1.0
C      1  0.5447100000000  0.6770150000000  0.6317390000000 1.0
C      1  0.3454640000000  0.5972220000000  0.6317390000000 1.0
C      1  0.3597810000000  0.3830720000000  0.6317380000000 1.0
C      1  0.5678750000000  0.3305110000000  0.6317380000000 1.0
C      1  0.5610490000000  0.5509080000000  0.7235950000000 1.0
C      1  0.4704480000000  0.5737920000000  0.7235950000000 1.0
C      1  0.4206880000000  0.4946970000000  0.7235950000000 1.0
C      1  0.4805340000000  0.4229310000000  0.7235940000000 1.0
C      1  0.5672820000000  0.4576710000000  0.7235950000000 1.0
C      1  0.4489620000000  0.6274430000000  0.6490810000000 1.0
C      1  0.3630220000000  0.4908420000000  0.6490810000000 1.0
C      1  0.4663810000000  0.3668970000000  0.6490810000000 1.0
C      1  0.6162000000000  0.4268950000000  0.6490810000000 1.0
C      1  0.6054350000000  0.5879220000000  0.6490810000000 1.0
C      1  0.7288620000000  0.5153000000000  0.5538730000000 1.0
C      1  0.5561700000000  0.7223880000000  0.5538730000000 1.0
C      1  0.3058540000000  0.6221420000000  0.5538730000000 1.0
C      1  0.3238400000000  0.3531010000000  0.5538720000000 1.0
C      1  0.5852730000000  0.2870680000000  0.5538720000000 1.0
C      1  0.6057890000000  0.5882170000000  0.3220530000000 1.0
C      1  0.4487910000000  0.6278720000000  0.3220520000000 1.0
C      1  0.3625630000000  0.4908120000000  0.3220520000000 1.0
C      1  0.4662680000000  0.3664500000000  0.3220520000000 1.0
C      1  0.6165900000000  0.4266500000000  0.3220520000000 1.0
C      1  0.6148790000000  0.5957970000000  0.4819180000000 1.0
C      1  0.4443910000000  0.6388590000000  0.4819170000000 1.0
C      1  0.3507530000000  0.4900220000000  0.4819170000000 1.0
C      1  0.4633700000000  0.3549740000000  0.4819170000000 1.0
C      1  0.6266080000000  0.4203470000000  0.4819170000000 1.0
C      1  0.6658210000000  0.5110860000000  0.3197670000000 1.0
C      1  0.5406980000000  0.6611310000000  0.3197670000000 1.0
C      1  0.3593320000000  0.5884990000000  0.3197660000000 1.0
C      1  0.3723640000000  0.3935650000000  0.3197660000000 1.0
C      1  0.5617850000000  0.3457210000000  0.3197670000000 1.0
C      1  0.5706910000000  0.4555260000000  0.4066360000000 1.0
C      1  0.5641420000000  0.5534880000000  0.4066360000000 1.0
C      1  0.4689510000000  0.5775320000000  0.4066360000000 1.0
C      1  0.4166690000000  0.4944290000000  0.4066360000000 1.0
C      1  0.4795480000000  0.4190260000000  0.4066360000000 1.0
END
