TITL C-2159252-5904-42 -0.00241729745734901 3375 -415.011758585391 0 0 60 (C5) n - 1
REM
REM in /scratch/bkarasulu/870
REM
REM
REM
REM
REM
REM ./C.cell (a2850807a9bf4ad07a5b6933b78d9264)
REM AIRSS Version 0.9.1 bugfix July 2018 build 013d7b7c2542+ Fri, 06 Jul 2018 19:26:36 +0100
REM compiler GCC version 9.2.1 20190827 (Red Hat 9.2.1-1)
REM options -cpp -mtune=generic -march=x86-64 -g -O0 -fpre-include=/usr/include/finclude/math-vector-fortran.h
REM seed -290547044 -569784424 1294430385 544957266 -546853983 -1958443747 -1616552637 -1897726449 -541457661 1138650999 -606967595 1354044905 720559920 337454269 -209931260 1250582069 2067805627 -827828552 -1408802590 2017648288 -1986089888 1060074149 1917255435 -491704123 -58657891 -2033876430 -2012340419 1572960927 1924163185 -225308897 -1871928619 1539399717 706904202
REM
CELL 1.54180   15.00000   15.00000   15.00000   90.00000   90.00000   90.00000
LATT -1
SFAC C  
C      1  0.4193530000000  0.5224110000000  0.3286370000000 1.0
C      1  0.4537700000000  0.4302260000000  0.3286350000000 1.0
C      1  0.5520790000000  0.4344720000000  0.3286370000000 1.0
C      1  0.5784200000000  0.5292810000000  0.3286400000000 1.0
C      1  0.4963910000000  0.5836310000000  0.3286400000000 1.0
C      1  0.6058020000000  0.3647230000000  0.3671350000000 1.0
C      1  0.6613560000000  0.5588210000000  0.3671400000000 1.0
C      1  0.4939220000000  0.6716360000000  0.3671400000000 1.0
C      1  0.3348910000000  0.5472570000000  0.3671350000000 1.0
C      1  0.4040390000000  0.3575760000000  0.3671310000000 1.0
C      1  0.5667880000000  0.4521420000000  0.6673500000000 1.0
C      1  0.5661510000000  0.5487320000000  0.6673510000000 1.0
C      1  0.4740910000000  0.5779730000000  0.6673500000000 1.0
C      1  0.4178340000000  0.4994550000000  0.6673490000000 1.0
C      1  0.4751240000000  0.4216880000000  0.6673490000000 1.0
C      1  0.2883790000000  0.4248750000000  0.4759290000000 1.0
C      1  0.5060530000000  0.2755200000000  0.4759300000000 1.0
C      1  0.7153640000000  0.4363890000000  0.4759350000000 1.0
C      1  0.6270490000000  0.6851660000000  0.4759390000000 1.0
C      1  0.3631570000000  0.6780490000000  0.4759350000000 1.0
C      1  0.2477250000000  0.5777370000000  0.4773510000000 1.0
C      1  0.3481120000000  0.2840980000000  0.4773470000000 1.0
C      1  0.6583970000000  0.2888270000000  0.4773520000000 1.0
C      1  0.7497900000000  0.5853880000000  0.4773580000000 1.0
C      1  0.4959780000000  0.7639520000000  0.4773580000000 1.0
C      1  0.7277040000000  0.5105290000000  0.4202000000000 1.0
C      1  0.5603510000000  0.7198140000000  0.4202030000000 1.0
C      1  0.3095960000000  0.6253210000000  0.4201990000000 1.0
C      1  0.3219770000000  0.3576440000000  0.4201920000000 1.0
C      1  0.5803770000000  0.2866980000000  0.4201940000000 1.0
C      1  0.6047990000000  0.6728430000000  0.5706650000000 1.0
C      1  0.3679990000000  0.6530810000000  0.5706610000000 1.0
C      1  0.3136200000000  0.4217660000000  0.5706560000000 1.0
C      1  0.5168070000000  0.2985650000000  0.5706580000000 1.0
C      1  0.6967670000000  0.4537380000000  0.5706620000000 1.0
C      1  0.5076050000000  0.8007120000000  0.5575630000000 1.0
C      1  0.2163550000000  0.6001490000000  0.5575560000000 1.0
C      1  0.3170970000000  0.2611910000000  0.5575500000000 1.0
C      1  0.6705950000000  0.2522490000000  0.5575550000000 1.0
C      1  0.7883460000000  0.5856830000000  0.5575630000000 1.0
C      1  0.2713720000000  0.5005240000000  0.4275900000000 1.0
C      1  0.4288540000000  0.2827240000000  0.4275880000000 1.0
C      1  0.6846560000000  0.3651930000000  0.4275940000000 1.0
C      1  0.6852750000000  0.6339610000000  0.4276010000000 1.0
C      1  0.4298490000000  0.7176030000000  0.4275980000000 1.0
C      1  0.3571290000000  0.3389490000000  0.5940620000000 1.0
C      1  0.6090160000000  0.3143530000000  0.5940650000000 1.0
C      1  0.7102470000000  0.5463130000000  0.5940690000000 1.0
C      1  0.5209190000000  0.7142700000000  0.5940700000000 1.0
C      1  0.3026800000000  0.5861070000000  0.5940650000000 1.0
C      1  0.5472100000000  0.4339890000000  0.4897920000000 1.0
C      1  0.5773700000000  0.5245010000000  0.4897940000000 1.0
C      1  0.5006070000000  0.5811540000000  0.4897930000000 1.0
C      1  0.4230070000000  0.5256550000000  0.4897910000000 1.0
C      1  0.4518090000000  0.4347020000000  0.4897900000000 1.0
C      1  0.6341010000000  0.5989500000000  0.6237250000000 1.0
C      1  0.4473280000000  0.6581160000000  0.6237230000000 1.0
C      1  0.3333440000000  0.4987670000000  0.6237190000000 1.0
C      1  0.4496690000000  0.3411210000000  0.6237190000000 1.0
C      1  0.6355460000000  0.4030360000000  0.6237220000000 1.0
END
