TITL C-2159252-5904-480 -0.00261617947100724 3375 -431.676610442667 0 0 60 (C1) n - 1
REM
REM in /scratch/bkarasulu/870
REM
REM
REM
REM
REM
REM ./C.cell (a2850807a9bf4ad07a5b6933b78d9264)
REM AIRSS Version 0.9.1 bugfix July 2018 build 013d7b7c2542+ Fri, 06 Jul 2018 19:26:36 +0100
REM compiler GCC version 9.2.1 20190827 (Red Hat 9.2.1-1)
REM options -cpp -mtune=generic -march=x86-64 -g -O0 -fpre-include=/usr/include/finclude/math-vector-fortran.h
REM seed 1552867028 821454262 -706799663 2006202306 1929291043 1444799070 1511589103 611308129 1630429161 621681638 450896795 -1858212581 -1323225391 1169781284 1692288873 834920293 1024487719 -463529218 137153836 1669093 515299858 -1335724931 838489683 543312476 -1755658305 -816439641 1353582862 -373201799 -2146113699 999325066 -1208328130 -687362943 1096410164
REM
CELL 1.54180   15.00000   15.00000   15.00000   90.00000   90.00000   90.00000
LATT -1
SFAC C  
C      1  0.4653530000000  0.6288570000000  0.7122570000000 1.0
C      1  0.6906110000000  0.6298190000000  0.5935710000000 1.0
C      1  0.6504930000000  0.6288520000000  0.3471750000000 1.0
C      1  0.4029420000000  0.6288680000000  0.3154650000000 1.0
C      1  0.2836570000000  0.6274750000000  0.5388450000000 1.0
C      1  0.7293300000000  0.5375350000000  0.5956060000000 1.0
C      1  0.6630460000000  0.5366160000000  0.3104160000000 1.0
C      1  0.3705520000000  0.5377570000000  0.2895930000000 1.0
C      1  0.2529520000000  0.5350780000000  0.5596070000000 1.0
C      1  0.4770330000000  0.5365790000000  0.7483600000000 1.0
C      1  0.5782210000000  0.6738480000000  0.3145800000000 1.0
C      1  0.3518600000000  0.6708370000000  0.3782470000000 1.0
C      1  0.3264880000000  0.6703120000000  0.6076560000000 1.0
C      1  0.5428560000000  0.6714710000000  0.6882860000000 1.0
C      1  0.7019900000000  0.6744260000000  0.5146350000000 1.0
C      1  0.4847920000000  0.3604860000000  0.6675500000000 1.0
C      1  0.6520790000000  0.3621670000000  0.5635710000000 1.0
C      1  0.6060190000000  0.3611540000000  0.3733590000000 1.0
C      1  0.4096920000000  0.3592850000000  0.3578070000000 1.0
C      1  0.3341700000000  0.3581610000000  0.5407650000000 1.0
C      1  0.4421500000000  0.4874430000000  0.2590330000000 1.0
C      1  0.2479180000000  0.4849680000000  0.4811010000000 1.0
C      1  0.4009010000000  0.4854190000000  0.7323960000000 1.0
C      1  0.6873740000000  0.4881250000000  0.6616450000000 1.0
C      1  0.7138500000000  0.4862750000000  0.3693680000000 1.0
C      1  0.5714750000000  0.3224830000000  0.5313790000000 1.0
C      1  0.5491160000000  0.3215830000000  0.4388860000000 1.0
C      1  0.4537320000000  0.3174560000000  0.4313110000000 1.0
C      1  0.4172370000000  0.3158130000000  0.5201620000000 1.0
C      1  0.4905380000000  0.3184410000000  0.5821390000000 1.0
C      1  0.5921790000000  0.4916020000000  0.2704430000000 1.0
C      1  0.3093020000000  0.4915000000000  0.3430220000000 1.0
C      1  0.2864620000000  0.4893540000000  0.6341800000000 1.0
C      1  0.5583500000000  0.4921130000000  0.7393570000000 1.0
C      1  0.7471390000000  0.4916560000000  0.5167070000000 1.0
C      1  0.7054290000000  0.6308680000000  0.4327820000000 1.0
C      1  0.5004460000000  0.6308070000000  0.2877660000000 1.0
C      1  0.2931520000000  0.6300430000000  0.4372400000000 1.0
C      1  0.3691100000000  0.6299340000000  0.6784950000000 1.0
C      1  0.6241760000000  0.6312320000000  0.6705820000000 1.0
C      1  0.6850250000000  0.4026770000000  0.4062880000000 1.0
C      1  0.4667670000000  0.4022610000000  0.2938860000000 1.0
C      1  0.2900180000000  0.4005640000000  0.4672210000000 1.0
C      1  0.4010660000000  0.4009020000000  0.6886600000000 1.0
C      1  0.6453080000000  0.4035260000000  0.6486040000000 1.0
C      1  0.7455190000000  0.5426460000000  0.4377120000000 1.0
C      1  0.5166440000000  0.5432330000000  0.2496910000000 1.0
C      1  0.2644780000000  0.5425640000000  0.4085190000000 1.0
C      1  0.3346520000000  0.5415690000000  0.6967320000000 1.0
C      1  0.6323700000000  0.5443780000000  0.7119220000000 1.0
C      1  0.4453620000000  0.5153930000000  0.4781140000000 1.0
C      1  0.4826260000000  0.5245050000000  0.5579120000000 1.0
C      1  0.5732300000000  0.5323750000000  0.5485660000000 1.0
C      1  0.5868760000000  0.5322230000000  0.4564170000000 1.0
C      1  0.5064780000000  0.5225570000000  0.4098740000000 1.0
C      1  0.3290150000000  0.4025800000000  0.6253800000000 1.0
C      1  0.5633720000000  0.4047710000000  0.6980850000000 1.0
C      1  0.7062960000000  0.4056490000000  0.4992030000000 1.0
C      1  0.5619210000000  0.4049830000000  0.3022640000000 1.0
C      1  0.3288060000000  0.4039480000000  0.3796050000000 1.0
END
