TITL C-2158984-8299-138 -0.00216928314290207 3375 -400.768877309694 0 0 60 (C1) n - 1
REM
REM in /scratch/bkarasulu/869
REM
REM
REM
REM
REM
REM ./C.cell (a2850807a9bf4ad07a5b6933b78d9264)
REM AIRSS Version 0.9.1 bugfix July 2018 build 013d7b7c2542+ Fri, 06 Jul 2018 19:26:36 +0100
REM compiler GCC version 9.2.1 20190827 (Red Hat 9.2.1-1)
REM options -cpp -mtune=generic -march=x86-64 -g -O0 -fpre-include=/usr/include/finclude/math-vector-fortran.h
REM seed -1257953264 -716812035 -1512817110 -1221400017 -1410185734 -1756749328 -1526324453 1313625511 -1920936489 -1025279231 759544801 -1570844322 -1418924977 -439795490 1963127644 -292738415 -993452321 1803550998 1413817254 410831663 2088842076 1008423924 871796772 -1136128986 1698447875 -1282814946 311205864 -1581124247 -70573886 -1699853742 1731579885 -820822620 523085259
REM
CELL 1.54180   15.00000   15.00000   15.00000   90.00000   90.00000   90.00000
LATT -1
SFAC C  
C      1  0.6174740000000  0.6397560000000  0.4327320000000 1.0
C      1  0.5864290000000  0.3141710000000  0.6477860000000 1.0
C      1  0.2799900000000  0.5258180000000  0.5618480000000 1.0
C      1  0.5549970000000  0.6946370000000  0.4823380000000 1.0
C      1  0.4785120000000  0.3795620000000  0.2150830000000 1.0
C      1  0.3366880000000  0.3720850000000  0.3017140000000 1.0
C      1  0.6391390000000  0.4048990000000  0.2722730000000 1.0
C      1  0.3953650000000  0.7170920000000  0.4712090000000 1.0
C      1  0.5326040000000  0.5209620000000  0.7413960000000 1.0
C      1  0.4865080000000  0.4410110000000  0.7031950000000 1.0
C      1  0.3498080000000  0.3993330000000  0.6150460000000 1.0
C      1  0.4542700000000  0.3486860000000  0.7244910000000 1.0
C      1  0.6669160000000  0.4538300000000  0.6665600000000 1.0
C      1  0.6631890000000  0.5847670000000  0.2771120000000 1.0
C      1  0.6190160000000  0.6137750000000  0.5887730000000 1.0
C      1  0.5740620000000  0.5994580000000  0.2606780000000 1.0
C      1  0.5308510000000  0.6857680000000  0.2685170000000 1.0
C      1  0.2864990000000  0.5721980000000  0.4768520000000 1.0
C      1  0.4077320000000  0.4746140000000  0.6341340000000 1.0
C      1  0.3869760000000  0.6381090000000  0.6279380000000 1.0
C      1  0.6972210000000  0.5072350000000  0.5012580000000 1.0
C      1  0.5569070000000  0.5669770000000  0.4512510000000 1.0
C      1  0.4988960000000  0.7203020000000  0.3376220000000 1.0
C      1  0.4213260000000  0.6588400000000  0.7195990000000 1.0
C      1  0.4964120000000  0.2755180000000  0.5353450000000 1.0
C      1  0.4870840000000  0.6072450000000  0.6101150000000 1.0
C      1  0.6718450000000  0.5816390000000  0.6563970000000 1.0
C      1  0.5554370000000  0.4547430000000  0.5607450000000 1.0
C      1  0.3858090000000  0.3227610000000  0.6547900000000 1.0
C      1  0.6295990000000  0.5259790000000  0.7215450000000 1.0
C      1  0.5573350000000  0.4303360000000  0.2372730000000 1.0
C      1  0.3597150000000  0.6983050000000  0.5556540000000 1.0
C      1  0.4478400000000  0.2569430000000  0.6166510000000 1.0
C      1  0.5850760000000  0.3016610000000  0.5560490000000 1.0
C      1  0.5807500000000  0.4120620000000  0.6487810000000 1.0
C      1  0.5829500000000  0.3832110000000  0.4925010000000 1.0
C      1  0.5122700000000  0.2772410000000  0.6921580000000 1.0
C      1  0.2883040000000  0.4290940000000  0.5467350000000 1.0
C      1  0.4919960000000  0.6035800000000  0.7175740000000 1.0
C      1  0.6735210000000  0.4431320000000  0.3522870000000 1.0
C      1  0.4191700000000  0.4884450000000  0.4015250000000 1.0
C      1  0.3196330000000  0.5024580000000  0.4208720000000 1.0
C      1  0.4823120000000  0.7269250000000  0.4296910000000 1.0
C      1  0.6081370000000  0.5352550000000  0.5290010000000 1.0
C      1  0.6945160000000  0.5395660000000  0.3494060000000 1.0
C      1  0.3178960000000  0.6608610000000  0.4789240000000 1.0
C      1  0.4731020000000  0.5129020000000  0.5645170000000 1.0
C      1  0.4381370000000  0.5003940000000  0.3045840000000 1.0
C      1  0.7011180000000  0.5831870000000  0.4346410000000 1.0
C      1  0.3418870000000  0.5507070000000  0.6268070000000 1.0
C      1  0.4276090000000  0.3797780000000  0.4160030000000 1.0
C      1  0.4960150000000  0.3338010000000  0.4577060000000 1.0
C      1  0.3391150000000  0.3556420000000  0.3898160000000 1.0
C      1  0.7163630000000  0.5055040000000  0.6017710000000 1.0
C      1  0.5206550000000  0.5199830000000  0.2619570000000 1.0
C      1  0.4676780000000  0.5392490000000  0.4686410000000 1.0
C      1  0.6644950000000  0.4236920000000  0.4463420000000 1.0
C      1  0.4068050000000  0.4161720000000  0.2592320000000 1.0
C      1  0.2891940000000  0.4170970000000  0.4520280000000 1.0
C      1  0.5488400000000  0.6710460000000  0.5725280000000 1.0
END
