TITL C-2158984-8299-1156 -0.00285169333109975 3375 -424.282871827 0 0 60 (C1) n - 1
REM
REM in /scratch/bkarasulu/869
REM
REM
REM
REM
REM
REM ./C.cell (a2850807a9bf4ad07a5b6933b78d9264)
REM AIRSS Version 0.9.1 bugfix July 2018 build 013d7b7c2542+ Fri, 06 Jul 2018 19:26:36 +0100
REM compiler GCC version 9.2.1 20190827 (Red Hat 9.2.1-1)
REM options -cpp -mtune=generic -march=x86-64 -g -O0 -fpre-include=/usr/include/finclude/math-vector-fortran.h
REM seed -166312517 -1340045770 -1745872533 538954933 -459948576 -954959369 699475900 338955389 -834983124 -1176538500 -1347207450 -423909504 955549834 2027734523 1293429564 123887917 561217207 2007670356 503699496 -1299445501 661356535 -1905737786 -1332460788 -354741752 -374467311 -52321870 18345230 1807107564 -738651110 951940449 583000463 724420937 1486140504
REM
CELL 1.54180   15.00000   15.00000   15.00000   90.00000   90.00000   90.00000
LATT -1
SFAC C  
C      1  0.3536760000000  0.5585420000000  0.3659370000000 1.0
C      1  0.2992300000000  0.5527950000000  0.5332230000000 1.0
C      1  0.4011970000000  0.5405010000000  0.6827680000000 1.0
C      1  0.5639320000000  0.5508910000000  0.6863840000000 1.0
C      1  0.6836240000000  0.5562920000000  0.5542830000000 1.0
C      1  0.6572020000000  0.5578630000000  0.3924940000000 1.0
C      1  0.5054260000000  0.5579430000000  0.3066360000000 1.0
C      1  0.6273290000000  0.3326550000000  0.6159250000000 1.0
C      1  0.6757230000000  0.3226810000000  0.4699530000000 1.0
C      1  0.5817300000000  0.3385120000000  0.3487430000000 1.0
C      1  0.4290850000000  0.3234030000000  0.3353930000000 1.0
C      1  0.3260620000000  0.3310000000000  0.4484260000000 1.0
C      1  0.3526350000000  0.3256910000000  0.6037780000000 1.0
C      1  0.4881110000000  0.3120130000000  0.6773790000000 1.0
C      1  0.4694050000000  0.4692660000000  0.3033320000000 1.0
C      1  0.3764830000000  0.4688330000000  0.3400920000000 1.0
C      1  0.2787860000000  0.4635360000000  0.5336270000000 1.0
C      1  0.4342090000000  0.4531300000000  0.7024840000000 1.0
C      1  0.5348820000000  0.4587490000000  0.7043930000000 1.0
C      1  0.6968910000000  0.4678880000000  0.5192680000000 1.0
C      1  0.6798940000000  0.4692650000000  0.4205100000000 1.0
C      1  0.6057470000000  0.6893710000000  0.6042000000000 1.0
C      1  0.7019920000000  0.6958580000000  0.4667640000000 1.0
C      1  0.5715740000000  0.6973440000000  0.3671050000000 1.0
C      1  0.4200310000000  0.6971210000000  0.3074010000000 1.0
C      1  0.3485020000000  0.6947130000000  0.4568830000000 1.0
C      1  0.3727400000000  0.6748020000000  0.6173910000000 1.0
C      1  0.4569630000000  0.6801670000000  0.6643300000000 1.0
C      1  0.4218010000000  0.6058590000000  0.3162310000000 1.0
C      1  0.3209380000000  0.6029520000000  0.4487160000000 1.0
C      1  0.3406130000000  0.5870710000000  0.6190490000000 1.0
C      1  0.4784820000000  0.5962600000000  0.6966410000000 1.0
C      1  0.6278450000000  0.5962360000000  0.6262160000000 1.0
C      1  0.6925120000000  0.6045280000000  0.4699810000000 1.0
C      1  0.5849810000000  0.6011380000000  0.3432220000000 1.0
C      1  0.6399670000000  0.7330220000000  0.5279830000000 1.0
C      1  0.6231880000000  0.7381770000000  0.4346640000000 1.0
C      1  0.4882050000000  0.7407630000000  0.3555560000000 1.0
C      1  0.3988540000000  0.7383610000000  0.3888740000000 1.0
C      1  0.3802440000000  0.7273390000000  0.5401200000000 1.0
C      1  0.4684450000000  0.7603370000000  0.5414620000000 1.0
C      1  0.5191730000000  0.7276140000000  0.6139960000000 1.0
C      1  0.2991650000000  0.3748570000000  0.5333640000000 1.0
C      1  0.4068170000000  0.3622100000000  0.6783420000000 1.0
C      1  0.5670900000000  0.3684120000000  0.6841960000000 1.0
C      1  0.6866640000000  0.3756720000000  0.5500740000000 1.0
C      1  0.6599360000000  0.3783210000000  0.3924510000000 1.0
C      1  0.5032200000000  0.3783470000000  0.3061820000000 1.0
C      1  0.3541990000000  0.3761990000000  0.3643510000000 1.0
C      1  0.6088570000000  0.2541000000000  0.4796710000000 1.0
C      1  0.5508460000000  0.2621090000000  0.4044550000000 1.0
C      1  0.4553820000000  0.2563150000000  0.3990330000000 1.0
C      1  0.3885200000000  0.2583310000000  0.4674580000000 1.0
C      1  0.4050190000000  0.2549790000000  0.5614750000000 1.0
C      1  0.4910940000000  0.2493710000000  0.6046870000000 1.0
C      1  0.5799490000000  0.2576180000000  0.5702100000000 1.0
C      1  0.4936640000000  0.5470910000000  0.5072410000000 1.0
C      1  0.4919450000000  0.3814050000000  0.5047180000000 1.0
C      1  0.4969330000000  0.6235990000000  0.4791050000000 1.0
C      1  0.4920850000000  0.4629830000000  0.5033710000000 1.0
END
