TITL C-2158988-7926-768 -0.00222861783746374 3375 -414.575829454698 0 0 60 (C1) n - 1
REM
REM in /scratch/bkarasulu/868
REM
REM
REM
REM
REM
REM ./C.cell (a2850807a9bf4ad07a5b6933b78d9264)
REM AIRSS Version 0.9.1 bugfix July 2018 build 013d7b7c2542+ Fri, 06 Jul 2018 19:26:36 +0100
REM compiler GCC version 9.2.1 20190827 (Red Hat 9.2.1-1)
REM options -cpp -mtune=generic -march=x86-64 -g -O0 -fpre-include=/usr/include/finclude/math-vector-fortran.h
REM seed -239173699 1784859855 59249630 1043705768 -976492207 -1710209485 1534243035 -2018739888 -1724105294 1157566673 871249932 -1821701089 1855379592 1893525975 1365525479 1470012242 -477497158 -531296663 -498529062 369918589 -1619777947 -2042142786 -769231654 1076414759 2109993908 -1535493032 -869678053 412193702 53492949 -129360479 -1992895602 232815488 -1970009060
REM
CELL 1.54180   15.00000   15.00000   15.00000   90.00000   90.00000   90.00000
LATT -1
SFAC C  
C      1  0.6050350000000  0.4115180000000  0.7117170000000 1.0
C      1  0.6676850000000  0.3482540000000  0.5779260000000 1.0
C      1  0.3478010000000  0.4523760000000  0.3269500000000 1.0
C      1  0.3726240000000  0.5817580000000  0.5111940000000 1.0
C      1  0.4622340000000  0.6698590000000  0.3237890000000 1.0
C      1  0.2671250000000  0.4075450000000  0.4552320000000 1.0
C      1  0.3751170000000  0.7210290000000  0.5993890000000 1.0
C      1  0.7040670000000  0.5600910000000  0.4248510000000 1.0
C      1  0.5007350000000  0.4898630000000  0.5630220000000 1.0
C      1  0.5160570000000  0.4913670000000  0.2761170000000 1.0
C      1  0.5018740000000  0.2595160000000  0.3920780000000 1.0
C      1  0.4694220000000  0.5582770000000  0.6307200000000 1.0
C      1  0.4811500000000  0.2996050000000  0.5402230000000 1.0
C      1  0.3863510000000  0.5256310000000  0.2713330000000 1.0
C      1  0.4995270000000  0.4107990000000  0.3247610000000 1.0
C      1  0.4282640000000  0.7512160000000  0.3604570000000 1.0
C      1  0.6433830000000  0.4190190000000  0.3772400000000 1.0
C      1  0.3696790000000  0.4016460000000  0.6805980000000 1.0
C      1  0.4404570000000  0.7056270000000  0.6615840000000 1.0
C      1  0.3273760000000  0.4819210000000  0.6513780000000 1.0
C      1  0.3966520000000  0.3118490000000  0.4933540000000 1.0
C      1  0.6556190000000  0.6195140000000  0.4853350000000 1.0
C      1  0.5436360000000  0.6357550000000  0.3608110000000 1.0
C      1  0.5506420000000  0.4033010000000  0.4081360000000 1.0
C      1  0.3231750000000  0.6377220000000  0.3750370000000 1.0
C      1  0.7029460000000  0.3722170000000  0.4305820000000 1.0
C      1  0.6674230000000  0.5976000000000  0.5797310000000 1.0
C      1  0.7581220000000  0.4322710000000  0.4822180000000 1.0
C      1  0.3558810000000  0.6552520000000  0.6621100000000 1.0
C      1  0.3671380000000  0.5664450000000  0.6192060000000 1.0
C      1  0.6054190000000  0.6299740000000  0.6442940000000 1.0
C      1  0.6990100000000  0.5082770000000  0.6161950000000 1.0
C      1  0.5077610000000  0.5308500000000  0.7181520000000 1.0
C      1  0.7813030000000  0.5139910000000  0.4496720000000 1.0
C      1  0.4173220000000  0.3048710000000  0.3976500000000 1.0
C      1  0.4568650000000  0.3702900000000  0.6954770000000 1.0
C      1  0.3106280000000  0.4003740000000  0.6083190000000 1.0
C      1  0.5154000000000  0.4352940000000  0.7337630000000 1.0
C      1  0.7248610000000  0.4275910000000  0.5717830000000 1.0
C      1  0.6021670000000  0.3417450000000  0.6460410000000 1.0
C      1  0.3724060000000  0.7121980000000  0.4207570000000 1.0
C      1  0.5960050000000  0.5655280000000  0.7143490000000 1.0
C      1  0.6484100000000  0.3183480000000  0.4904870000000 1.0
C      1  0.4545950000000  0.5086970000000  0.2094480000000 1.0
C      1  0.4075590000000  0.6806310000000  0.5070890000000 1.0
C      1  0.2915170000000  0.4770410000000  0.4018460000000 1.0
C      1  0.5164120000000  0.6559720000000  0.6127120000000 1.0
C      1  0.6522880000000  0.5136240000000  0.3572200000000 1.0
C      1  0.5727840000000  0.6591430000000  0.4524820000000 1.0
C      1  0.5083780000000  0.6828650000000  0.5189390000000 1.0
C      1  0.3066740000000  0.5696020000000  0.4368800000000 1.0
C      1  0.3145170000000  0.3613690000000  0.5195980000000 1.0
C      1  0.5778370000000  0.5549080000000  0.3211140000000 1.0
C      1  0.4416450000000  0.5076510000000  0.4927580000000 1.0
C      1  0.6549380000000  0.4931240000000  0.6992360000000 1.0
C      1  0.3797410000000  0.6155030000000  0.3020670000000 1.0
C      1  0.5519010000000  0.3053530000000  0.4628760000000 1.0
C      1  0.5088440000000  0.3168340000000  0.6301270000000 1.0
C      1  0.5256520000000  0.4803610000000  0.4759640000000 1.0
C      1  0.4099630000000  0.3791470000000  0.3356290000000 1.0
END
