TITL C-2159252-5904-355 -0.00156567560444442 3375 -405.064638596277 0 0 60 (C3) n - 1
REM
REM in /scratch/bkarasulu/870
REM
REM
REM
REM
REM
REM ./C.cell (a2850807a9bf4ad07a5b6933b78d9264)
REM AIRSS Version 0.9.1 bugfix July 2018 build 013d7b7c2542+ Fri, 06 Jul 2018 19:26:36 +0100
REM compiler GCC version 9.2.1 20190827 (Red Hat 9.2.1-1)
REM options -cpp -mtune=generic -march=x86-64 -g -O0 -fpre-include=/usr/include/finclude/math-vector-fortran.h
REM seed 200569757 763788140 549889658 63668222 1593238149 -1500547015 -122799870 1110047995 -1499875930 -955760127 -605750707 -261842292 309540052 2048981917 -854814546 -1539752771 2086649146 -1126594154 -1691851693 -2037923997 -1130263947 2118594261 -1291471838 227610813 -1148924537 -973277350 1874709157 -41587809 -1984331963 421425662 -67629869 983438970 -938202618
REM
CELL 1.54180   15.00000   15.00000   15.00000   90.00000   90.00000   90.00000
LATT -1
SFAC C  
C      1  0.4725290000000  0.5006100000000  0.5865680000000 1.0
C      1  0.4725260000000  0.5746620000000  0.4561820000000 1.0
C      1  0.4725260000000  0.4247240000000  0.4572450000000 1.0
C      1  0.4337860000000  0.5004120000000  0.4158390000000 1.0
C      1  0.4338020000000  0.4268960000000  0.5417280000000 1.0
C      1  0.4337780000000  0.5726630000000  0.5424270000000 1.0
C      1  0.4716460000000  0.2705740000000  0.4270820000000 1.0
C      1  0.4716510000000  0.5515630000000  0.7351500000000 1.0
C      1  0.4716480000000  0.6778630000000  0.3377710000000 1.0
C      1  0.2920990000000  0.5805130000000  0.4506240000000 1.0
C      1  0.2921040000000  0.4169870000000  0.4549700000000 1.0
C      1  0.2920960000000  0.5025080000000  0.5944180000000 1.0
C      1  0.4871960000000  0.6843060000000  0.4334970000000 1.0
C      1  0.4871930000000  0.3502550000000  0.3736410000000 1.0
C      1  0.4871970000000  0.4654410000000  0.6928680000000 1.0
C      1  0.6210870000000  0.6062700000000  0.4032290000000 1.0
C      1  0.6210860000000  0.3630610000000  0.4563520000000 1.0
C      1  0.6210920000000  0.5306690000000  0.6404170000000 1.0
C      1  0.4068950000000  0.5619630000000  0.2923000000000 1.0
C      1  0.4068970000000  0.2891500000000  0.5501900000000 1.0
C      1  0.4069010000000  0.6488880000000  0.6575080000000 1.0
C      1  0.7536960000000  0.4618240000000  0.6197340000000 1.0
C      1  0.7536940000000  0.6227810000000  0.4731880000000 1.0
C      1  0.7536910000000  0.4153910000000  0.4070700000000 1.0
C      1  0.3958640000000  0.3824000000000  0.3401890000000 1.0
C      1  0.3958680000000  0.4204020000000  0.6817550000000 1.0
C      1  0.3958690000000  0.6972010000000  0.4780630000000 1.0
C      1  0.3400170000000  0.4962530000000  0.6752950000000 1.0
C      1  0.3400180000000  0.6536830000000  0.4156030000000 1.0
C      1  0.3400160000000  0.3500710000000  0.4091110000000 1.0
C      1  0.3801610000000  0.6433750000000  0.3331170000000 1.0
C      1  0.3801590000000  0.2837880000000  0.4592790000000 1.0
C      1  0.3801630000000  0.5728400000000  0.7076100000000 1.0
C      1  0.5822930000000  0.4394340000000  0.6730030000000 1.0
C      1  0.5822930000000  0.6801090000000  0.4659500000000 1.0
C      1  0.5822900000000  0.3804580000000  0.3610460000000 1.0
C      1  0.5018770000000  0.2699790000000  0.5223180000000 1.0
C      1  0.5018810000000  0.6343340000000  0.6880420000000 1.0
C      1  0.5018760000000  0.5956830000000  0.2896360000000 1.0
C      1  0.7128320000000  0.3766850000000  0.4785040000000 1.0
C      1  0.7128370000000  0.5430410000000  0.6175400000000 1.0
C      1  0.7128330000000  0.5802720000000  0.4039510000000 1.0
C      1  0.7072130000000  0.4851490000000  0.3694670000000 1.0
C      1  0.7072150000000  0.3943820000000  0.5781240000000 1.0
C      1  0.7072170000000  0.6204670000000  0.5524020000000 1.0
C      1  0.5654590000000  0.5456740000000  0.4653460000000 1.0
C      1  0.5654590000000  0.4471550000000  0.4777690000000 1.0
C      1  0.5654600000000  0.5071780000000  0.5568810000000 1.0
C      1  0.3015350000000  0.5829600000000  0.5449540000000 1.0
C      1  0.3015390000000  0.4974530000000  0.4056840000000 1.0
C      1  0.3015380000000  0.4195950000000  0.5493720000000 1.0
C      1  0.6199970000000  0.6642730000000  0.5565580000000 1.0
C      1  0.6199910000000  0.4668460000000  0.3294550000000 1.0
C      1  0.6199910000000  0.3688840000000  0.6139820000000 1.0
C      1  0.3741000000000  0.6494270000000  0.5655530000000 1.0
C      1  0.3740950000000  0.4820570000000  0.3378140000000 1.0
C      1  0.3740980000000  0.3685190000000  0.5966350000000 1.0
C      1  0.5797080000000  0.3185360000000  0.5374450000000 1.0
C      1  0.5797130000000  0.6231590000000  0.6384270000000 1.0
C      1  0.5797080000000  0.5583030000000  0.3241230000000 1.0
END
