TITL C-2158984-8299-660 -0.00213647081644812 3375 -419.089741485304 0 0 60 (C1) n - 1
REM
REM in /scratch/bkarasulu/869
REM
REM
REM
REM
REM
REM ./C.cell (a2850807a9bf4ad07a5b6933b78d9264)
REM AIRSS Version 0.9.1 bugfix July 2018 build 013d7b7c2542+ Fri, 06 Jul 2018 19:26:36 +0100
REM compiler GCC version 9.2.1 20190827 (Red Hat 9.2.1-1)
REM options -cpp -mtune=generic -march=x86-64 -g -O0 -fpre-include=/usr/include/finclude/math-vector-fortran.h
REM seed 1159815468 -1981795644 -490507129 -203262975 1573909572 -1984875099 -19423579 1703962708 -1510346134 917060502 -1379844718 1048968929 1501233851 -11544330 -1130646736 2017467558 -1013969611 1595250088 1889429838 -1103677548 -1670293860 -1168865279 922868044 -454830620 -165636153 951642547 -66316781 -292185701 1812994996 1336981959 -1317472391 -111441771 1108500853
REM
CELL 1.54180   15.00000   15.00000   15.00000   90.00000   90.00000   90.00000
LATT -1
SFAC C  
C      1  0.4552920000000  0.2560600000000  0.5367070000000 1.0
C      1  0.2925010000000  0.4658820000000  0.5267130000000 1.0
C      1  0.4831120000000  0.5154150000000  0.2811480000000 1.0
C      1  0.5100580000000  0.4247710000000  0.2936240000000 1.0
C      1  0.5906420000000  0.3135600000000  0.6038300000000 1.0
C      1  0.3267480000000  0.6528400000000  0.5179240000000 1.0
C      1  0.4026870000000  0.6274600000000  0.3575240000000 1.0
C      1  0.4040570000000  0.6656930000000  0.4497250000000 1.0
C      1  0.4054570000000  0.6182490000000  0.6813610000000 1.0
C      1  0.5039450000000  0.4934050000000  0.7177290000000 1.0
C      1  0.3272040000000  0.5576740000000  0.5523900000000 1.0
C      1  0.7500870000000  0.5764070000000  0.4038990000000 1.0
C      1  0.3041200000000  0.4164880000000  0.6077120000000 1.0
C      1  0.4274380000000  0.4304320000000  0.7063360000000 1.0
C      1  0.4724200000000  0.7454930000000  0.4479650000000 1.0
C      1  0.5341360000000  0.5962590000000  0.2794090000000 1.0
C      1  0.4314420000000  0.3431800000000  0.6628510000000 1.0
C      1  0.6891730000000  0.4349810000000  0.5865420000000 1.0
C      1  0.7332460000000  0.5226810000000  0.4737870000000 1.0
C      1  0.6052630000000  0.3176520000000  0.3607490000000 1.0
C      1  0.5246910000000  0.4467950000000  0.4922150000000 1.0
C      1  0.4765360000000  0.6662600000000  0.3136890000000 1.0
C      1  0.6315190000000  0.3075790000000  0.5171310000000 1.0
C      1  0.5573310000000  0.7271920000000  0.6115100000000 1.0
C      1  0.3448650000000  0.4666640000000  0.6786930000000 1.0
C      1  0.6751020000000  0.4507850000000  0.3481870000000 1.0
C      1  0.4987890000000  0.2894570000000  0.6163930000000 1.0
C      1  0.6877720000000  0.5463000000000  0.3367540000000 1.0
C      1  0.5700560000000  0.5098020000000  0.4484450000000 1.0
C      1  0.4737460000000  0.6179440000000  0.5101360000000 1.0
C      1  0.3995450000000  0.5346670000000  0.3276240000000 1.0
C      1  0.6214940000000  0.5921200000000  0.5721140000000 1.0
C      1  0.5252040000000  0.7210200000000  0.3755480000000 1.0
C      1  0.5701350000000  0.6347560000000  0.6421980000000 1.0
C      1  0.5839910000000  0.2781830000000  0.4380080000000 1.0
C      1  0.6953940000000  0.5286730000000  0.5632680000000 1.0
C      1  0.7153040000000  0.4327300000000  0.4340880000000 1.0
C      1  0.4900470000000  0.2630080000000  0.4491900000000 1.0
C      1  0.5781090000000  0.4434090000000  0.7061170000000 1.0
C      1  0.3926470000000  0.6926900000000  0.6235550000000 1.0
C      1  0.6185360000000  0.6071060000000  0.3226100000000 1.0
C      1  0.4965750000000  0.5882950000000  0.6963140000000 1.0
C      1  0.4615170000000  0.4594060000000  0.5489180000000 1.0
C      1  0.3665930000000  0.4507840000000  0.3641570000000 1.0
C      1  0.3640220000000  0.2878690000000  0.5340640000000 1.0
C      1  0.3480520000000  0.3298120000000  0.4514010000000 1.0
C      1  0.6014750000000  0.3950500000000  0.3156520000000 1.0
C      1  0.3495070000000  0.3357930000000  0.6116490000000 1.0
C      1  0.6939180000000  0.3790740000000  0.5081390000000 1.0
C      1  0.4238890000000  0.3098340000000  0.3952490000000 1.0
C      1  0.4330440000000  0.3837530000000  0.3367050000000 1.0
C      1  0.4754350000000  0.6952740000000  0.5785370000000 1.0
C      1  0.3380520000000  0.5549060000000  0.6550670000000 1.0
C      1  0.4270650000000  0.5434340000000  0.5435480000000 1.0
C      1  0.3106810000000  0.7150930000000  0.5816300000000 1.0
C      1  0.3169760000000  0.4204080000000  0.4432450000000 1.0
C      1  0.5240940000000  0.7634160000000  0.5290240000000 1.0
C      1  0.5958170000000  0.6604430000000  0.4013680000000 1.0
C      1  0.5679660000000  0.6011750000000  0.4820120000000 1.0
C      1  0.6254810000000  0.3944600000000  0.6479230000000 1.0
END
