TITL C-2158988-7926-362 -0.00247581070893748 3375 -407.175756031496 0 0 60 (Ci) n - 1
REM
REM in /scratch/bkarasulu/868
REM
REM
REM
REM
REM
REM ./C.cell (a2850807a9bf4ad07a5b6933b78d9264)
REM AIRSS Version 0.9.1 bugfix July 2018 build 013d7b7c2542+ Fri, 06 Jul 2018 19:26:36 +0100
REM compiler GCC version 9.2.1 20190827 (Red Hat 9.2.1-1)
REM options -cpp -mtune=generic -march=x86-64 -g -O0 -fpre-include=/usr/include/finclude/math-vector-fortran.h
REM seed 736720659 -549802774 1718292742 1779711737 -701667461 -770174752 1364863289 -275818857 1979312377 -766203623 -1295912633 -2012507168 -2071441588 1596723536 -1736038408 -1687266890 259698278 1538481286 -825660320 -1236824114 1088378158 -1569188748 -1061019155 -806362399 -2023827330 -784619842 -700438554 1926792370 1972521198 162660591 1081848091 1730431561 -825408734
REM
CELL 1.54180   15.00000   15.00000   15.00000   90.00000   90.00000   90.00000
LATT -1
SFAC C  
C      1  0.5220190000000  0.2424760000000  0.5640510000000 1.0
C      1  0.5980890000000  0.7737760000000  0.5504120000000 1.0
C      1  0.5634900000000  0.2459340000000  0.4770520000000 1.0
C      1  0.4779810000000  0.7575240000000  0.4359490000000 1.0
C      1  0.4019110000000  0.2262240000000  0.4495880000000 1.0
C      1  0.4365100000000  0.7540660000000  0.5229480000000 1.0
C      1  0.5004760000000  0.4859210000000  0.4103130000000 1.0
C      1  0.4220640000000  0.5062560000000  0.4514940000000 1.0
C      1  0.4212990000000  0.5079300000000  0.5418750000000 1.0
C      1  0.4995240000000  0.5140790000000  0.5896870000000 1.0
C      1  0.5779360000000  0.4937440000000  0.5485060000000 1.0
C      1  0.5787010000000  0.4920700000000  0.4581250000000 1.0
C      1  0.6725000000000  0.3519260000000  0.4448170000000 1.0
C      1  0.5411610000000  0.6518760000000  0.3349070000000 1.0
C      1  0.3616370000000  0.3518010000000  0.3752250000000 1.0
C      1  0.3275000000000  0.6480740000000  0.5551830000000 1.0
C      1  0.4588390000000  0.3481240000000  0.6650930000000 1.0
C      1  0.6383630000000  0.6481990000000  0.6247750000000 1.0
C      1  0.3217500000000  0.3559190000000  0.4679170000000 1.0
C      1  0.3930950000000  0.6465110000000  0.6299770000000 1.0
C      1  0.5638380000000  0.3556100000000  0.6687550000000 1.0
C      1  0.6782500000000  0.6440810000000  0.5320830000000 1.0
C      1  0.6069050000000  0.3534890000000  0.3700230000000 1.0
C      1  0.4361620000000  0.6443900000000  0.3312450000000 1.0
C      1  0.3985090000000  0.4072900000000  0.6992960000000 1.0
C      1  0.6427160000000  0.5876740000000  0.6913910000000 1.0
C      1  0.7182690000000  0.4319850000000  0.4589210000000 1.0
C      1  0.6014910000000  0.5927100000000  0.3007040000000 1.0
C      1  0.3572840000000  0.4123260000000  0.3086090000000 1.0
C      1  0.2817310000000  0.5680150000000  0.5410790000000 1.0
C      1  0.4386840000000  0.2840330000000  0.3857280000000 1.0
C      1  0.3593290000000  0.7063790000000  0.4855160000000 1.0
C      1  0.4414110000000  0.2863200000000  0.5887370000000 1.0
C      1  0.5613160000000  0.7159670000000  0.6142720000000 1.0
C      1  0.6406710000000  0.2936210000000  0.5144840000000 1.0
C      1  0.5585890000000  0.7136800000000  0.4112630000000 1.0
C      1  0.5842880000000  0.5204240000000  0.7183360000000 1.0
C      1  0.7303790000000  0.4828410000000  0.5415530000000 1.0
C      1  0.6470240000000  0.5141940000000  0.3215660000000 1.0
C      1  0.4157120000000  0.4795760000000  0.2816640000000 1.0
C      1  0.2696210000000  0.5171590000000  0.4584470000000 1.0
C      1  0.3529760000000  0.4858060000000  0.6784340000000 1.0
C      1  0.4968460000000  0.5396840000000  0.6815540000000 1.0
C      1  0.6570780000000  0.4648320000000  0.5979740000000 1.0
C      1  0.6768530000000  0.5097070000000  0.4167020000000 1.0
C      1  0.5031540000000  0.4603160000000  0.3184460000000 1.0
C      1  0.3429220000000  0.5351680000000  0.4020260000000 1.0
C      1  0.3231470000000  0.4902930000000  0.5832980000000 1.0
C      1  0.3751640000000  0.2870350000000  0.5173680000000 1.0
C      1  0.4646670000000  0.7084890000000  0.6018000000000 1.0
C      1  0.5968720000000  0.2941320000000  0.6023150000000 1.0
C      1  0.6248360000000  0.7129650000000  0.4826320000000 1.0
C      1  0.5353330000000  0.2915110000000  0.3982000000000 1.0
C      1  0.4031280000000  0.7058680000000  0.3976850000000 1.0
C      1  0.2838960000000  0.4327720000000  0.5044450000000 1.0
C      1  0.4044590000000  0.5705970000000  0.6901150000000 1.0
C      1  0.6154100000000  0.4341710000000  0.6830510000000 1.0
C      1  0.7161040000000  0.5672280000000  0.4955550000000 1.0
C      1  0.5955410000000  0.4294030000000  0.3098850000000 1.0
C      1  0.3845900000000  0.5658290000000  0.3169490000000 1.0
END
