TITL C-2159252-5904-190 -0.00186451443824243 3375 -412.774256311892 0 0 60 (S4) n - 1
REM
REM in /scratch/bkarasulu/870
REM
REM
REM
REM
REM
REM ./C.cell (a2850807a9bf4ad07a5b6933b78d9264)
REM AIRSS Version 0.9.1 bugfix July 2018 build 013d7b7c2542+ Fri, 06 Jul 2018 19:26:36 +0100
REM compiler GCC version 9.2.1 20190827 (Red Hat 9.2.1-1)
REM options -cpp -mtune=generic -march=x86-64 -g -O0 -fpre-include=/usr/include/finclude/math-vector-fortran.h
REM seed 2059228607 1942814121 -1747333016 1375499432 -1409115880 1889236200 -873709211 1982844610 -1437615950 -30242261 2045047981 1653619892 -1596996471 -1005543929 1006946859 -518164930 -1461906770 1785971201 1226132149 -1451543967 -846648560 -717328287 49708702 -2077957587 921923560 591870982 64128300 -1857946283 -1502051286 -1034402368 1875929336 -329339330 906760473
REM
CELL 1.54180   15.00000   15.00000   15.00000   90.00000   90.00000   90.00000
LATT -1
SFAC C  
C      1  0.3922260000000  0.4540700000000  0.7171380000000 1.0
C      1  0.2828620000000  0.5459300000000  0.3922260000000 1.0
C      1  0.6077740000000  0.4540700000000  0.2828620000000 1.0
C      1  0.7171380000000  0.5459300000000  0.6077740000000 1.0
C      1  0.5177080000000  0.4277550000000  0.2905230000000 1.0
C      1  0.7094770000000  0.5722450000000  0.5177080000000 1.0
C      1  0.4822920000000  0.4277550000000  0.7094770000000 1.0
C      1  0.2905230000000  0.5722450000000  0.4822920000000 1.0
C      1  0.7027850000000  0.4047640000000  0.4872210000000 1.0
C      1  0.5127790000000  0.5952360000000  0.7027850000000 1.0
C      1  0.2972150000000  0.4047640000000  0.5127790000000 1.0
C      1  0.4872210000000  0.5952360000000  0.2972150000000 1.0
C      1  0.5906410000000  0.6362270000000  0.6618270000000 1.0
C      1  0.3381730000000  0.3637730000000  0.5906410000000 1.0
C      1  0.4093590000000  0.6362270000000  0.3381730000000 1.0
C      1  0.6618270000000  0.3637730000000  0.4093590000000 1.0
C      1  0.4360330000000  0.5088060000000  0.4224710000000 1.0
C      1  0.5775290000000  0.4911940000000  0.4360330000000 1.0
C      1  0.5639670000000  0.5088060000000  0.5775290000000 1.0
C      1  0.4224710000000  0.4911940000000  0.5639670000000 1.0
C      1  0.5481270000000  0.2991950000000  0.5003720000000 1.0
C      1  0.4996280000000  0.7008050000000  0.5481270000000 1.0
C      1  0.4518730000000  0.2991950000000  0.4996280000000 1.0
C      1  0.5003720000000  0.7008050000000  0.4518730000000 1.0
C      1  0.7108100000000  0.5027940000000  0.3638640000000 1.0
C      1  0.6361360000000  0.4972060000000  0.7108100000000 1.0
C      1  0.2891900000000  0.5027940000000  0.6361360000000 1.0
C      1  0.3638640000000  0.4972060000000  0.2891900000000 1.0
C      1  0.3340710000000  0.5837890000000  0.3211720000000 1.0
C      1  0.6788280000000  0.4162110000000  0.3340710000000 1.0
C      1  0.6659290000000  0.5837890000000  0.6788280000000 1.0
C      1  0.3211720000000  0.4162110000000  0.6659290000000 1.0
C      1  0.6886810000000  0.4532640000000  0.6396070000000 1.0
C      1  0.3603930000000  0.5467360000000  0.6886810000000 1.0
C      1  0.3113190000000  0.4532640000000  0.3603930000000 1.0
C      1  0.6396070000000  0.5467360000000  0.3113190000000 1.0
C      1  0.5424640000000  0.5019410000000  0.7305640000000 1.0
C      1  0.2694360000000  0.4980590000000  0.5424640000000 1.0
C      1  0.4575360000000  0.5019410000000  0.2694360000000 1.0
C      1  0.7305640000000  0.4980590000000  0.4575360000000 1.0
C      1  0.6309540000000  0.6373390000000  0.4994000000000 1.0
C      1  0.5006000000000  0.3626610000000  0.6309540000000 1.0
C      1  0.3690460000000  0.6373390000000  0.5006000000000 1.0
C      1  0.4994000000000  0.3626610000000  0.3690460000000 1.0
C      1  0.4164830000000  0.3335420000000  0.4189260000000 1.0
C      1  0.5810740000000  0.6664580000000  0.4164830000000 1.0
C      1  0.5835170000000  0.3335420000000  0.5810740000000 1.0
C      1  0.4189260000000  0.6664580000000  0.5835170000000 1.0
C      1  0.5756870000000  0.6135560000000  0.3332570000000 1.0
C      1  0.6667430000000  0.3864440000000  0.5756870000000 1.0
C      1  0.4243130000000  0.6135560000000  0.6667430000000 1.0
C      1  0.3332570000000  0.3864440000000  0.4243130000000 1.0
C      1  0.4186260000000  0.5518100000000  0.4982400000000 1.0
C      1  0.5017600000000  0.4481900000000  0.4186260000000 1.0
C      1  0.5813740000000  0.5518100000000  0.5017600000000 1.0
C      1  0.4982400000000  0.4481900000000  0.5813740000000 1.0
C      1  0.5849230000000  0.6797970000000  0.5783670000000 1.0
C      1  0.4216330000000  0.3202030000000  0.5849230000000 1.0
C      1  0.4150770000000  0.6797970000000  0.4216330000000 1.0
C      1  0.5783670000000  0.3202030000000  0.4150770000000 1.0
END
