TITL C-2158984-8299-513 -0.00200491183904255 3375 -403.769047827467 0 0 60 (D5h) n - 1
REM
REM in /scratch/bkarasulu/869
REM
REM
REM
REM
REM
REM ./C.cell (a2850807a9bf4ad07a5b6933b78d9264)
REM AIRSS Version 0.9.1 bugfix July 2018 build 013d7b7c2542+ Fri, 06 Jul 2018 19:26:36 +0100
REM compiler GCC version 9.2.1 20190827 (Red Hat 9.2.1-1)
REM options -cpp -mtune=generic -march=x86-64 -g -O0 -fpre-include=/usr/include/finclude/math-vector-fortran.h
REM seed -61098787 -2064570449 605133599 -2085164241 1406094858 1882787685 113008965 -1115894541 1695644994 86849877 -362074378 2070655913 1377537036 -2048839152 212726187 1691682359 1841372097 -2133939514 -1732360860 1757221432 -1199842203 1411977531 -1964938590 -1290127620 544967819 -836347803 -1345473191 -169624676 -1074921921 -267563561 210031453 -270366269 -1093853778
REM
CELL 1.54180   15.00000   15.00000   15.00000   90.00000   90.00000   90.00000
LATT -1
SFAC C  
C      1  0.5818220000000  0.7385720000000  0.4993070000000 1.0
C      1  0.5259440000000  0.7385730000000  0.5776030000000 1.0
C      1  0.4342120000000  0.7385730000000  0.5486540000000 1.0
C      1  0.4333970000000  0.7385730000000  0.4524670000000 1.0
C      1  0.5246250000000  0.7385730000000  0.4219690000000 1.0
C      1  0.5818220000000  0.2614280000000  0.4993070000000 1.0
C      1  0.5259440000000  0.2614270000000  0.5776030000000 1.0
C      1  0.4342120000000  0.2614270000000  0.5486540000000 1.0
C      1  0.4333970000000  0.2614270000000  0.4524670000000 1.0
C      1  0.5246250000000  0.2614270000000  0.4219690000000 1.0
C      1  0.3959550000000  0.3723270000000  0.3376570000000 1.0
C      1  0.6222450000000  0.3723270000000  0.3508800000000 1.0
C      1  0.6795980000000  0.3723270000000  0.5701820000000 1.0
C      1  0.4887510000000  0.3723270000000  0.6924950000000 1.0
C      1  0.3134500000000  0.3723270000000  0.5487860000000 1.0
C      1  0.3959550000000  0.6276730000000  0.3376570000000 1.0
C      1  0.6222450000000  0.6276730000000  0.3508800000000 1.0
C      1  0.6795980000000  0.6276730000000  0.5701820000000 1.0
C      1  0.4887510000000  0.6276730000000  0.6924950000000 1.0
C      1  0.3134500000000  0.6276730000000  0.5487860000000 1.0
C      1  0.5807400000000  0.4500210000000  0.4993160000000 1.0
C      1  0.5256010000000  0.4500210000000  0.5765770000000 1.0
C      1  0.4350820000000  0.4500210000000  0.5480110000000 1.0
C      1  0.4342790000000  0.4500210000000  0.4530960000000 1.0
C      1  0.5243000000000  0.4500210000000  0.4230010000000 1.0
C      1  0.5807400000000  0.5499790000000  0.4993160000000 1.0
C      1  0.5256010000000  0.5499790000000  0.5765770000000 1.0
C      1  0.4350820000000  0.5499790000000  0.5480110000000 1.0
C      1  0.4342790000000  0.5499790000000  0.4530960000000 1.0
C      1  0.5243000000000  0.5499790000000  0.4230010000000 1.0
C      1  0.5490810000000  0.3080160000000  0.3444710000000 1.0
C      1  0.6630840000000  0.3080160000000  0.4986180000000 1.0
C      1  0.5517100000000  0.3080160000000  0.6546750000000 1.0
C      1  0.3688750000000  0.3080160000000  0.5969760000000 1.0
C      1  0.3672500000000  0.3080160000000  0.4052600000000 1.0
C      1  0.5490810000000  0.6919840000000  0.3444710000000 1.0
C      1  0.6630840000000  0.6919840000000  0.4986180000000 1.0
C      1  0.5517100000000  0.6919840000000  0.6546750000000 1.0
C      1  0.3688750000000  0.6919840000000  0.5969760000000 1.0
C      1  0.3672500000000  0.6919840000000  0.4052600000000 1.0
C      1  0.6247550000000  0.6276730000000  0.6470270000000 1.0
C      1  0.3987200000000  0.6276730000000  0.6640820000000 1.0
C      1  0.3126500000000  0.6276730000000  0.4543820000000 1.0
C      1  0.4854910000000  0.6276730000000  0.3077230000000 1.0
C      1  0.6783830000000  0.6276730000000  0.4267850000000 1.0
C      1  0.6247550000000  0.3723270000000  0.6470270000000 1.0
C      1  0.3987200000000  0.3723270000000  0.6640820000000 1.0
C      1  0.3126500000000  0.3723270000000  0.4543820000000 1.0
C      1  0.4854910000000  0.3723270000000  0.3077230000000 1.0
C      1  0.6783830000000  0.3723270000000  0.4267850000000 1.0
C      1  0.3537560000000  0.4446910000000  0.6081570000000 1.0
C      1  0.3519450000000  0.4446910000000  0.3943370000000 1.0
C      1  0.5547400000000  0.4446910000000  0.3265390000000 1.0
C      1  0.6818870000000  0.4446910000000  0.4984590000000 1.0
C      1  0.5576720000000  0.4446910000000  0.6725090000000 1.0
C      1  0.3537560000000  0.5553090000000  0.6081570000000 1.0
C      1  0.3519450000000  0.5553090000000  0.3943370000000 1.0
C      1  0.5547400000000  0.5553090000000  0.3265390000000 1.0
C      1  0.6818870000000  0.5553090000000  0.4984590000000 1.0
C      1  0.5576720000000  0.5553090000000  0.6725090000000 1.0
END
