TITL C-2158984-8299-627 -0.00510620511330899 3375 -407.834802516006 0 0 60 (Th) n - 1
REM
REM in /scratch/bkarasulu/869
REM
REM
REM
REM
REM
REM ./C.cell (a2850807a9bf4ad07a5b6933b78d9264)
REM AIRSS Version 0.9.1 bugfix July 2018 build 013d7b7c2542+ Fri, 06 Jul 2018 19:26:36 +0100
REM compiler GCC version 9.2.1 20190827 (Red Hat 9.2.1-1)
REM options -cpp -mtune=generic -march=x86-64 -g -O0 -fpre-include=/usr/include/finclude/math-vector-fortran.h
REM seed -249718024 -1712923227 879416473 -1649308155 1005665524 1021509654 1820944173 173111640 -960245757 -753525218 1897443754 1668172687 -1765327524 -844273505 -380936366 -147368345 -1452669193 -262474628 -360370959 892627197 927939734 1874220604 -1295955266 -1188669228 463870237 -983049312 1372810543 543465640 -137232959 438215369 1221427587 -528964708 1241658887
REM
CELL 1.54180   15.00000   15.00000   15.00000   90.00000   90.00000   90.00000
LATT -1
SFAC C  
C      1  0.2567830000000  0.4504640000000  0.4112980000000 1.0
C      1  0.4112980000000  0.2567830000000  0.4504640000000 1.0
C      1  0.4504640000000  0.4112980000000  0.2567830000000 1.0
C      1  0.7432170000000  0.4504640000000  0.5887020000000 1.0
C      1  0.2567830000000  0.5495360000000  0.5887020000000 1.0
C      1  0.7432170000000  0.5495360000000  0.4112980000000 1.0
C      1  0.5887020000000  0.2567830000000  0.5495360000000 1.0
C      1  0.4112980000000  0.7432170000000  0.5495360000000 1.0
C      1  0.5887020000000  0.7432170000000  0.4504640000000 1.0
C      1  0.5495360000000  0.4112980000000  0.7432170000000 1.0
C      1  0.4504640000000  0.5887020000000  0.7432170000000 1.0
C      1  0.5495360000000  0.5887020000000  0.2567830000000 1.0
C      1  0.2567830000000  0.5495360000000  0.4112980000000 1.0
C      1  0.4112980000000  0.7432170000000  0.4504640000000 1.0
C      1  0.4504640000000  0.5887020000000  0.2567830000000 1.0
C      1  0.7432170000000  0.5495360000000  0.5887020000000 1.0
C      1  0.2567830000000  0.4504640000000  0.5887020000000 1.0
C      1  0.7432170000000  0.4504640000000  0.4112980000000 1.0
C      1  0.5887020000000  0.7432170000000  0.5495360000000 1.0
C      1  0.4112980000000  0.2567830000000  0.5495360000000 1.0
C      1  0.5887020000000  0.2567830000000  0.4504640000000 1.0
C      1  0.5495360000000  0.5887020000000  0.7432170000000 1.0
C      1  0.4504640000000  0.4112980000000  0.7432170000000 1.0
C      1  0.5495360000000  0.4112980000000  0.2567830000000 1.0
C      1  0.3733460000000  0.6842240000000  0.6117880000000 1.0
C      1  0.6117880000000  0.3733460000000  0.6842240000000 1.0
C      1  0.6842240000000  0.6117880000000  0.3733460000000 1.0
C      1  0.6266540000000  0.6842240000000  0.3882120000000 1.0
C      1  0.3733460000000  0.3157760000000  0.3882120000000 1.0
C      1  0.6266540000000  0.3157760000000  0.6117880000000 1.0
C      1  0.3882120000000  0.3733460000000  0.3157760000000 1.0
C      1  0.6117880000000  0.6266540000000  0.3157760000000 1.0
C      1  0.3882120000000  0.6266540000000  0.6842240000000 1.0
C      1  0.3157760000000  0.6117880000000  0.6266540000000 1.0
C      1  0.6842240000000  0.3882120000000  0.6266540000000 1.0
C      1  0.3157760000000  0.3882120000000  0.3733460000000 1.0
C      1  0.3733460000000  0.3157760000000  0.6117880000000 1.0
C      1  0.6117880000000  0.6266540000000  0.6842240000000 1.0
C      1  0.6842240000000  0.3882120000000  0.3733460000000 1.0
C      1  0.6266540000000  0.3157760000000  0.3882120000000 1.0
C      1  0.3733460000000  0.6842240000000  0.3882120000000 1.0
C      1  0.6266540000000  0.6842240000000  0.6117880000000 1.0
C      1  0.3882120000000  0.6266540000000  0.3157760000000 1.0
C      1  0.6117880000000  0.3733460000000  0.3157760000000 1.0
C      1  0.3882120000000  0.3733460000000  0.6842240000000 1.0
C      1  0.3157760000000  0.3882120000000  0.6266540000000 1.0
C      1  0.6842240000000  0.6117880000000  0.6266540000000 1.0
C      1  0.3157760000000  0.6117880000000  0.3733460000000 1.0
C      1  0.5000000000000  0.2247000000000  0.4501800000000 1.0
C      1  0.5000000000000  0.7753000000000  0.4501800000000 1.0
C      1  0.5000000000000  0.7753000000000  0.5498200000000 1.0
C      1  0.5000000000000  0.2247000000000  0.5498200000000 1.0
C      1  0.5498200000000  0.5000000000000  0.2247000000000 1.0
C      1  0.2247000000000  0.5498200000000  0.5000000000000 1.0
C      1  0.4501800000000  0.5000000000000  0.7753000000000 1.0
C      1  0.5498200000000  0.5000000000000  0.7753000000000 1.0
C      1  0.4501800000000  0.5000000000000  0.2247000000000 1.0
C      1  0.7753000000000  0.5498200000000  0.5000000000000 1.0
C      1  0.2247000000000  0.4501800000000  0.5000000000000 1.0
C      1  0.7753000000000  0.4501800000000  0.5000000000000 1.0
END
