TITL C-2158984-8299-730 -0.00277340998833866 3375 -397.09820882733 0 0 60 (Cs) n - 1
REM
REM in /scratch/bkarasulu/869
REM
REM
REM
REM
REM
REM ./C.cell (a2850807a9bf4ad07a5b6933b78d9264)
REM AIRSS Version 0.9.1 bugfix July 2018 build 013d7b7c2542+ Fri, 06 Jul 2018 19:26:36 +0100
REM compiler GCC version 9.2.1 20190827 (Red Hat 9.2.1-1)
REM options -cpp -mtune=generic -march=x86-64 -g -O0 -fpre-include=/usr/include/finclude/math-vector-fortran.h
REM seed 504888954 787249213 -567421845 1664249297 213418205 1137073889 -1272757053 -811326190 -889776270 -1668785134 283623276 -887878709 309360723 -200665167 227149035 2005596520 -556174914 -1319575365 1865551978 -2030006708 -2083231042 647528457 -912420378 -3590134 -212688720 -972193790 1117976948 380925960 -2024250729 -1773898723 1512551089 1767659961 667188145
REM
CELL 1.54180   15.00000   15.00000   15.00000   90.00000   90.00000   90.00000
LATT -1
SFAC C  
C      1  0.3775800000000  0.4762210000000  0.6152320000000 1.0
C      1  0.5470440000000  0.6448930000000  0.6117400000000 1.0
C      1  0.5867760000000  0.3928440000000  0.6113410000000 1.0
C      1  0.3775800000000  0.4762210000000  0.3847680000000 1.0
C      1  0.5470440000000  0.6448930000000  0.3882600000000 1.0
C      1  0.5867760000000  0.3928440000000  0.3886590000000 1.0
C      1  0.3750250000000  0.2206480000000  0.3771530000000 1.0
C      1  0.3188940000000  0.7470910000000  0.3773810000000 1.0
C      1  0.7958930000000  0.5271980000000  0.3766410000000 1.0
C      1  0.3750250000000  0.2206480000000  0.6228470000000 1.0
C      1  0.3188940000000  0.7470910000000  0.6226190000000 1.0
C      1  0.7958930000000  0.5271980000000  0.6233590000000 1.0
C      1  0.3160980000000  0.5509520000000  0.6322150000000 1.0
C      1  0.6429690000000  0.6479710000000  0.6309490000000 1.0
C      1  0.5537680000000  0.3011410000000  0.6301520000000 1.0
C      1  0.3160980000000  0.5509520000000  0.3677850000000 1.0
C      1  0.6429690000000  0.6479710000000  0.3690510000000 1.0
C      1  0.5537680000000  0.3011410000000  0.3698480000000 1.0
C      1  0.5155440000000  0.4264160000000  0.4493320000000 1.0
C      1  0.4534920000000  0.5112980000000  0.4455390000000 1.0
C      1  0.5403230000000  0.5666860000000  0.4471380000000 1.0
C      1  0.5155440000000  0.4264160000000  0.5506680000000 1.0
C      1  0.4534920000000  0.5112980000000  0.5544610000000 1.0
C      1  0.5403230000000  0.5666860000000  0.5528620000000 1.0
C      1  0.3822430000000  0.6937560000000  0.3258470000000 1.0
C      1  0.7157400000000  0.5065240000000  0.3257110000000 1.0
C      1  0.3964820000000  0.3023710000000  0.3263870000000 1.0
C      1  0.3822430000000  0.6937560000000  0.6741530000000 1.0
C      1  0.7157400000000  0.5065240000000  0.6742890000000 1.0
C      1  0.3964820000000  0.3023710000000  0.6736130000000 1.0
C      1  0.6525300000000  0.4560430000000  0.6202060000000 1.0
C      1  0.3816120000000  0.3824450000000  0.6211900000000 1.0
C      1  0.4591040000000  0.6737300000000  0.6199880000000 1.0
C      1  0.6525300000000  0.4560430000000  0.3797940000000 1.0
C      1  0.3816120000000  0.3824450000000  0.3788100000000 1.0
C      1  0.4591040000000  0.6737300000000  0.3800120000000 1.0
C      1  0.2931230000000  0.7044240000000  0.4503260000000 1.0
C      1  0.7791200000000  0.5732860000000  0.4505080000000 1.0
C      1  0.4242880000000  0.2079750000000  0.4496500000000 1.0
C      1  0.2931230000000  0.7044240000000  0.5496740000000 1.0
C      1  0.7791200000000  0.5732860000000  0.5494920000000 1.0
C      1  0.4242880000000  0.2079750000000  0.5503500000000 1.0
C      1  0.3144250000000  0.6068940000000  0.4494290000000 1.0
C      1  0.6852890000000  0.6081160000000  0.4494980000000 1.0
C      1  0.4998870000000  0.2735800000000  0.4491920000000 1.0
C      1  0.3144250000000  0.6068940000000  0.5505710000000 1.0
C      1  0.6852890000000  0.6081160000000  0.5505020000000 1.0
C      1  0.4998870000000  0.2735800000000  0.5508080000000 1.0
C      1  0.4157400000000  0.6187870000000  0.4504840000000 1.0
C      1  0.6318260000000  0.5220590000000  0.4493740000000 1.0
C      1  0.4428840000000  0.3584820000000  0.4498410000000 1.0
C      1  0.4157400000000  0.6187870000000  0.5495160000000 1.0
C      1  0.6318260000000  0.5220590000000  0.5506260000000 1.0
C      1  0.4428840000000  0.3584820000000  0.5501590000000 1.0
C      1  0.4856400000000  0.2894270000000  0.6891860000000 1.0
C      1  0.3339510000000  0.6177900000000  0.6921580000000 1.0
C      1  0.6827110000000  0.5909550000000  0.6896550000000 1.0
C      1  0.4856400000000  0.2894270000000  0.3108140000000 1.0
C      1  0.3339510000000  0.6177900000000  0.3078420000000 1.0
C      1  0.6827110000000  0.5909550000000  0.3103450000000 1.0
END
