TITL C-2158984-8299-93 -0.00150598451512159 3375 -389.498953772453 0 0 60 (Td) n - 1
REM
REM in /scratch/bkarasulu/869
REM
REM
REM
REM
REM
REM ./C.cell (a2850807a9bf4ad07a5b6933b78d9264)
REM AIRSS Version 0.9.1 bugfix July 2018 build 013d7b7c2542+ Fri, 06 Jul 2018 19:26:36 +0100
REM compiler GCC version 9.2.1 20190827 (Red Hat 9.2.1-1)
REM options -cpp -mtune=generic -march=x86-64 -g -O0 -fpre-include=/usr/include/finclude/math-vector-fortran.h
REM seed -187166399 1214087563 750934007 -1134095278 -748903607 1500320250 1122839350 -2028991066 770872933 -2099294399 -1110763128 1237063552 947268095 440145518 626566278 139244555 -126790185 815378358 -1591650231 -386816594 -212729877 -58307462 1492463463 -1837168921 -129429578 891105659 -182125869 1277919653 -2083864675 -1639279241 -230158106 -1947777 -1311746971
REM
CELL 1.54180   15.00000   15.00000   15.00000   90.00000   90.00000   90.00000
LATT -1
SFAC C  
C      1  0.4582190000000  0.6822640000000  0.3904210000000 1.0
C      1  0.3904210000000  0.4582190000000  0.6822640000000 1.0
C      1  0.6822630000000  0.3904210000000  0.4582190000000 1.0
C      1  0.5417810000000  0.3177370000000  0.3904210000000 1.0
C      1  0.5417810000000  0.6822630000000  0.6095790000000 1.0
C      1  0.4582190000000  0.3177370000000  0.6095790000000 1.0
C      1  0.6095790000000  0.5417810000000  0.6822640000000 1.0
C      1  0.6095790000000  0.4582190000000  0.3177370000000 1.0
C      1  0.3904210000000  0.5417810000000  0.3177370000000 1.0
C      1  0.3177360000000  0.6095790000000  0.4582190000000 1.0
C      1  0.3177360000000  0.3904210000000  0.5417810000000 1.0
C      1  0.6822630000000  0.6095790000000  0.5417810000000 1.0
C      1  0.6822630000000  0.4582190000000  0.3904210000000 1.0
C      1  0.4582190000000  0.3904210000000  0.6822630000000 1.0
C      1  0.3904210000000  0.6822630000000  0.4582190000000 1.0
C      1  0.3177370000000  0.5417810000000  0.3904210000000 1.0
C      1  0.6822640000000  0.5417810000000  0.6095790000000 1.0
C      1  0.3177370000000  0.4582190000000  0.6095790000000 1.0
C      1  0.5417810000000  0.6095790000000  0.6822630000000 1.0
C      1  0.4582190000000  0.6095790000000  0.3177360000000 1.0
C      1  0.5417810000000  0.3904210000000  0.3177360000000 1.0
C      1  0.6095790000000  0.3177370000000  0.4582190000000 1.0
C      1  0.3904210000000  0.3177360000000  0.5417810000000 1.0
C      1  0.6095790000000  0.6822630000000  0.5417810000000 1.0
C      1  0.3764810000000  0.3078960000000  0.4423960000000 1.0
C      1  0.4423960000000  0.3764810000000  0.3078960000000 1.0
C      1  0.3078960000000  0.4423960000000  0.3764810000000 1.0
C      1  0.6235190000000  0.6921040000000  0.4423960000000 1.0
C      1  0.6235190000000  0.3078960000000  0.5576040000000 1.0
C      1  0.3764810000000  0.6921040000000  0.5576040000000 1.0
C      1  0.5576040000000  0.6235190000000  0.3078960000000 1.0
C      1  0.5576040000000  0.3764810000000  0.6921040000000 1.0
C      1  0.4423960000000  0.6235190000000  0.6921040000000 1.0
C      1  0.6921040000000  0.5576040000000  0.3764810000000 1.0
C      1  0.6921040000000  0.4423960000000  0.6235190000000 1.0
C      1  0.3078960000000  0.5576040000000  0.6235190000000 1.0
C      1  0.3078960000000  0.3764810000000  0.4423960000000 1.0
C      1  0.3764810000000  0.4423960000000  0.3078960000000 1.0
C      1  0.4423960000000  0.3078960000000  0.3764810000000 1.0
C      1  0.6921040000000  0.6235190000000  0.4423960000000 1.0
C      1  0.3078960000000  0.6235190000000  0.5576040000000 1.0
C      1  0.6921040000000  0.3764810000000  0.5576040000000 1.0
C      1  0.6235190000000  0.5576040000000  0.3078960000000 1.0
C      1  0.3764810000000  0.5576040000000  0.6921040000000 1.0
C      1  0.6235190000000  0.4423960000000  0.6921040000000 1.0
C      1  0.5576040000000  0.6921040000000  0.3764810000000 1.0
C      1  0.4423960000000  0.6921040000000  0.6235190000000 1.0
C      1  0.5576040000000  0.3078960000000  0.6235190000000 1.0
C      1  0.6062500000000  0.5343240000000  0.5343240000000 1.0
C      1  0.3937500000000  0.4656760000000  0.5343240000000 1.0
C      1  0.3937500000000  0.5343240000000  0.4656760000000 1.0
C      1  0.6062500000000  0.4656760000000  0.4656760000000 1.0
C      1  0.4656760000000  0.6062500000000  0.4656760000000 1.0
C      1  0.5343240000000  0.3937500000000  0.4656760000000 1.0
C      1  0.4656760000000  0.4656760000000  0.6062500000000 1.0
C      1  0.5343240000000  0.6062500000000  0.5343240000000 1.0
C      1  0.5343240000000  0.5343240000000  0.6062500000000 1.0
C      1  0.4656760000000  0.3937500000000  0.5343240000000 1.0
C      1  0.4656760000000  0.5343240000000  0.3937500000000 1.0
C      1  0.5343240000000  0.4656760000000  0.3937500000000 1.0
END
