TITL C-2158984-8299-906 -0.00189794058650345 3375 -387.171667004314 0 0 60 (C3i) n - 1
REM
REM in /scratch/bkarasulu/869
REM
REM
REM
REM
REM
REM ./C.cell (a2850807a9bf4ad07a5b6933b78d9264)
REM AIRSS Version 0.9.1 bugfix July 2018 build 013d7b7c2542+ Fri, 06 Jul 2018 19:26:36 +0100
REM compiler GCC version 9.2.1 20190827 (Red Hat 9.2.1-1)
REM options -cpp -mtune=generic -march=x86-64 -g -O0 -fpre-include=/usr/include/finclude/math-vector-fortran.h
REM seed -543641328 1475726417 -2053755244 1499441104 313083692 -130566681 -205223983 -1950911445 -105379730 2018913416 -1266165618 -1032226464 -1088957863 -409412482 -1564009611 -2016445043 1638672931 3207245 -1624555019 -1946166474 -251386347 -1218936972 2057360188 -336581221 83641062 1140390984 -754200728 1820418904 -163391385 -651329074 -404994650 874685182 -196440820
REM
CELL 1.54180   15.00000   15.00000   15.00000   90.00000   90.00000   90.00000
LATT -1
SFAC C  
C      1  0.5956610000000  0.6762830000000  0.5268640000000 1.0
C      1  0.5245670000000  0.3237190000000  0.5962550000000 1.0
C      1  0.4289190000000  0.6763130000000  0.5694080000000 1.0
C      1  0.4043390000000  0.3237170000000  0.4731360000000 1.0
C      1  0.4754330000000  0.6762810000000  0.4037450000000 1.0
C      1  0.5710810000000  0.3236870000000  0.4305920000000 1.0
C      1  0.5487120000000  0.5449040000000  0.3481230000000 1.0
C      1  0.6558670000000  0.4550720000000  0.4662700000000 1.0
C      1  0.6071520000000  0.5449230000000  0.6181510000000 1.0
C      1  0.4512880000000  0.4550960000000  0.6518770000000 1.0
C      1  0.3441330000000  0.5449280000000  0.5337300000000 1.0
C      1  0.3928480000000  0.4550770000000  0.3818490000000 1.0
C      1  0.5550760000000  0.3288940000000  0.6901170000000 1.0
C      1  0.3628870000000  0.6711610000000  0.6427640000000 1.0
C      1  0.3077920000000  0.3289300000000  0.4526090000000 1.0
C      1  0.4449240000000  0.6711060000000  0.3098830000000 1.0
C      1  0.6371130000000  0.3288390000000  0.3572360000000 1.0
C      1  0.6922080000000  0.6710700000000  0.5473910000000 1.0
C      1  0.5983650000000  0.3231420000000  0.5279770000000 1.0
C      1  0.5249640000000  0.6768630000000  0.5991840000000 1.0
C      1  0.4265870000000  0.3231620000000  0.5711970000000 1.0
C      1  0.4016350000000  0.6768580000000  0.4720230000000 1.0
C      1  0.4750360000000  0.3231370000000  0.4008160000000 1.0
C      1  0.5734130000000  0.6768380000000  0.4288030000000 1.0
C      1  0.2475610000000  0.5694270000000  0.4310500000000 1.0
C      1  0.4337140000000  0.4305960000000  0.2468210000000 1.0
C      1  0.6859680000000  0.5693800000000  0.3159070000000 1.0
C      1  0.7524390000000  0.4305730000000  0.5689500000000 1.0
C      1  0.5662860000000  0.5694040000000  0.7531790000000 1.0
C      1  0.3140320000000  0.4306200000000  0.6840930000000 1.0
C      1  0.3770460000000  0.4040970000000  0.6146060000000 1.0
C      1  0.3392610000000  0.5959210000000  0.4507930000000 1.0
C      1  0.4622350000000  0.4040690000000  0.3361890000000 1.0
C      1  0.6229540000000  0.5959030000000  0.3853940000000 1.0
C      1  0.6607390000000  0.4040790000000  0.5492070000000 1.0
C      1  0.5377650000000  0.5959310000000  0.6638110000000 1.0
C      1  0.3964900000000  0.5924700000000  0.2864810000000 1.0
C      1  0.6331290000000  0.4074840000000  0.3036240000000 1.0
C      1  0.7366560000000  0.5924590000000  0.5170510000000 1.0
C      1  0.6035100000000  0.4075300000000  0.7135190000000 1.0
C      1  0.3668710000000  0.5925160000000  0.6963760000000 1.0
C      1  0.2633440000000  0.4075410000000  0.4829490000000 1.0
C      1  0.3987900000000  0.4244800000000  0.4682460000000 1.0
C      1  0.4768610000000  0.5755130000000  0.3964560000000 1.0
C      1  0.5780870000000  0.4244530000000  0.4282200000000 1.0
C      1  0.6012100000000  0.5755200000000  0.5317540000000 1.0
C      1  0.5231390000000  0.4244870000000  0.6035440000000 1.0
C      1  0.4219130000000  0.5755470000000  0.5717800000000 1.0
C      1  0.6630480000000  0.5484510000000  0.4640340000000 1.0
C      1  0.6126980000000  0.4515430000000  0.6232710000000 1.0
C      1  0.4496160000000  0.5484820000000  0.6591950000000 1.0
C      1  0.3369520000000  0.4515490000000  0.5359660000000 1.0
C      1  0.3873020000000  0.5484570000000  0.3767290000000 1.0
C      1  0.5503840000000  0.4515180000000  0.3408050000000 1.0
C      1  0.3146580000000  0.5147840000000  0.7021230000000 1.0
C      1  0.2321660000000  0.4852940000000  0.4407370000000 1.0
C      1  0.4177360000000  0.5147570000000  0.2384250000000 1.0
C      1  0.6853420000000  0.4852160000000  0.2978770000000 1.0
C      1  0.7678340000000  0.5147060000000  0.5592630000000 1.0
C      1  0.5822640000000  0.4852430000000  0.7615750000000 1.0
END
