TITL C-2158988-7926-530 -0.00190306595236712 3375 -400.733499138542 0 0 60 (C3) n - 1
REM
REM in /scratch/bkarasulu/868
REM
REM
REM
REM
REM
REM ./C.cell (a2850807a9bf4ad07a5b6933b78d9264)
REM AIRSS Version 0.9.1 bugfix July 2018 build 013d7b7c2542+ Fri, 06 Jul 2018 19:26:36 +0100
REM compiler GCC version 9.2.1 20190827 (Red Hat 9.2.1-1)
REM options -cpp -mtune=generic -march=x86-64 -g -O0 -fpre-include=/usr/include/finclude/math-vector-fortran.h
REM seed -1825266212 -559657369 872898585 -1710784693 433096756 -1837011124 -1439756623 -1345628080 -2080117802 658568732 -918388378 -2056743796 -2086191451 431785792 -16759559 136688858 -2003716582 929180356 -1951118096 -1966302887 -1240144101 -1500716178 506036550 -1502513651 -877799088 -1315399648 -87848326 1859625876 749619671 2098281852 1040054148 1499149594 -191062208
REM
CELL 1.54180   15.00000   15.00000   15.00000   90.00000   90.00000   90.00000
LATT -1
SFAC C  
C      1  0.6512400000000  0.3554640000000  0.4617370000000 1.0
C      1  0.3912580000000  0.3554570000000  0.3881520000000 1.0
C      1  0.4575200000000  0.3554480000000  0.6500940000000 1.0
C      1  0.5285760000000  0.4565550000000  0.4150760000000 1.0
C      1  0.4121700000000  0.4565470000000  0.5177140000000 1.0
C      1  0.5592600000000  0.4565490000000  0.5672050000000 1.0
C      1  0.5682320000000  0.4224400000000  0.3255590000000 1.0
C      1  0.3148200000000  0.4224210000000  0.5281250000000 1.0
C      1  0.6169550000000  0.4224270000000  0.6463040000000 1.0
C      1  0.5625430000000  0.5506690000000  0.7075260000000 1.0
C      1  0.6484460000000  0.5506890000000  0.3420740000000 1.0
C      1  0.2890030000000  0.5506720000000  0.4504080000000 1.0
C      1  0.5875520000000  0.5050180000000  0.2840230000000 1.0
C      1  0.2691790000000  0.5049940000000  0.5321650000000 1.0
C      1  0.6432640000000  0.5050010000000  0.6838120000000 1.0
C      1  0.3230600000000  0.3624500000000  0.5981120000000 1.0
C      1  0.6734530000000  0.3624640000000  0.6041720000000 1.0
C      1  0.5035020000000  0.3624710000000  0.2976940000000 1.0
C      1  0.4729300000000  0.5091790000000  0.7196920000000 1.0
C      1  0.7037930000000  0.5092020000000  0.4135970000000 1.0
C      1  0.3232750000000  0.5091900000000  0.3667140000000 1.0
C      1  0.5374850000000  0.7611900000000  0.4590020000000 1.0
C      1  0.4457280000000  0.7611850000000  0.4880470000000 1.0
C      1  0.5167600000000  0.7611840000000  0.5529880000000 1.0
C      1  0.7075110000000  0.5201140000000  0.6083430000000 1.0
C      1  0.4900700000000  0.5201220000000  0.2661200000000 1.0
C      1  0.3024150000000  0.5200970000000  0.6255390000000 1.0
C      1  0.3347580000000  0.4370550000000  0.6623780000000 1.0
C      1  0.7232520000000  0.4370750000000  0.5619110000000 1.0
C      1  0.4419960000000  0.4370780000000  0.2757010000000 1.0
C      1  0.6014280000000  0.6320560000000  0.5715450000000 1.0
C      1  0.5112330000000  0.6320620000000  0.3763940000000 1.0
C      1  0.3873250000000  0.6320490000000  0.5520790000000 1.0
C      1  0.3651050000000  0.5940210000000  0.3435580000000 1.0
C      1  0.4319530000000  0.5940060000000  0.6950470000000 1.0
C      1  0.7029320000000  0.5940280000000  0.4614090000000 1.0
C      1  0.5201170000000  0.6375560000000  0.6855200000000 1.0
C      1  0.6505930000000  0.6375750000000  0.3898220000000 1.0
C      1  0.3292730000000  0.6375620000000  0.4246790000000 1.0
C      1  0.5543200000000  0.6991390000000  0.6187860000000 1.0
C      1  0.5756920000000  0.6991510000000  0.3935720000000 1.0
C      1  0.3699650000000  0.6991410000000  0.4876710000000 1.0
C      1  0.4546770000000  0.2591970000000  0.5318240000000 1.0
C      1  0.5502470000000  0.2592010000000  0.5233310000000 1.0
C      1  0.4951070000000  0.2592020000000  0.4448110000000 1.0
C      1  0.4761490000000  0.4172750000000  0.5770040000000 1.0
C      1  0.5786220000000  0.4172830000000  0.4821510000000 1.0
C      1  0.4452400000000  0.4172800000000  0.4408350000000 1.0
C      1  0.7101470000000  0.4303770000000  0.4673510000000 1.0
C      1  0.3666590000000  0.4303700000000  0.3343330000000 1.0
C      1  0.4232030000000  0.4303550000000  0.6983090000000 1.0
C      1  0.3992770000000  0.3014740000000  0.5992690000000 1.0
C      1  0.6363520000000  0.3014850000000  0.5375860000000 1.0
C      1  0.4643940000000  0.3014870000000  0.3631160000000 1.0
C      1  0.6889880000000  0.5962940000000  0.5569080000000 1.0
C      1  0.4547810000000  0.5962980000000  0.3078820000000 1.0
C      1  0.3562200000000  0.5962780000000  0.6352220000000 1.0
C      1  0.4436960000000  0.5524620000000  0.5139130000000 1.0
C      1  0.5401980000000  0.5524640000000  0.5418060000000 1.0
C      1  0.5161020000000  0.5524670000000  0.4442870000000 1.0
END
