TITL C-2158984-8299-1120 -0.000767452001238595 3375 -411.419905680827 0 0 60 (D4h) n - 1
REM
REM in /scratch/bkarasulu/869
REM
REM
REM
REM
REM
REM ./C.cell (a2850807a9bf4ad07a5b6933b78d9264)
REM AIRSS Version 0.9.1 bugfix July 2018 build 013d7b7c2542+ Fri, 06 Jul 2018 19:26:36 +0100
REM compiler GCC version 9.2.1 20190827 (Red Hat 9.2.1-1)
REM options -cpp -mtune=generic -march=x86-64 -g -O0 -fpre-include=/usr/include/finclude/math-vector-fortran.h
REM seed 129174501 -382864917 -338938749 -1716336879 1683849290 -1277057476 277468508 -523316687 1633409679 1097208274 320928634 -1289097467 2058283380 -689924183 1101998796 -1325229293 1075214577 -1613098273 -584768819 -1589868337 1955834275 1929648224 -12962321 -584677693 -1618973599 -1441965054 1749316114 5740471 2087375466 1402727479 1341254341 -414169183 -1377832092
REM
CELL 1.54180   15.00000   15.00000   15.00000   90.00000   90.00000   90.00000
LATT -1
SFAC C  
C      1  0.6286250000000  0.3040110000000  0.4183450000000 1.0
C      1  0.3713750000000  0.6959890000000  0.4183450000000 1.0
C      1  0.3713750000000  0.3040110000000  0.5816550000000 1.0
C      1  0.6286250000000  0.6959890000000  0.5816550000000 1.0
C      1  0.3040110000000  0.6286250000000  0.4183450000000 1.0
C      1  0.6959890000000  0.3713750000000  0.4183450000000 1.0
C      1  0.3040110000000  0.3713750000000  0.5816550000000 1.0
C      1  0.6959890000000  0.6286250000000  0.5816550000000 1.0
C      1  0.4275500000000  0.5000000000000  0.5800760000000 1.0
C      1  0.5724500000000  0.5000000000000  0.5800760000000 1.0
C      1  0.5724500000000  0.5000000000000  0.4199240000000 1.0
C      1  0.4275500000000  0.5000000000000  0.4199240000000 1.0
C      1  0.5000000000000  0.4275500000000  0.5800760000000 1.0
C      1  0.5000000000000  0.5724500000000  0.5800760000000 1.0
C      1  0.5000000000000  0.5724500000000  0.4199240000000 1.0
C      1  0.5000000000000  0.4275500000000  0.4199240000000 1.0
C      1  0.5000000000000  0.3671400000000  0.6586880000000 1.0
C      1  0.5000000000000  0.6328600000000  0.6586880000000 1.0
C      1  0.5000000000000  0.3671400000000  0.3413120000000 1.0
C      1  0.5000000000000  0.6328600000000  0.3413120000000 1.0
C      1  0.3671400000000  0.5000000000000  0.6586880000000 1.0
C      1  0.6328600000000  0.5000000000000  0.6586880000000 1.0
C      1  0.3671400000000  0.5000000000000  0.3413120000000 1.0
C      1  0.6328600000000  0.5000000000000  0.3413120000000 1.0
C      1  0.6945560000000  0.4207020000000  0.4999990000000 1.0
C      1  0.3054440000000  0.5792980000000  0.4999990000000 1.0
C      1  0.3054440000000  0.4207020000000  0.5000010000000 1.0
C      1  0.6945560000000  0.5792980000000  0.5000010000000 1.0
C      1  0.4207020000000  0.6945560000000  0.5000000000000 1.0
C      1  0.5792980000000  0.3054440000000  0.5000000000000 1.0
C      1  0.4207020000000  0.3054440000000  0.5000000000000 1.0
C      1  0.5792980000000  0.6945560000000  0.5000000000000 1.0
C      1  0.3713760000000  0.3040110000000  0.4183460000000 1.0
C      1  0.6286240000000  0.6959890000000  0.4183460000000 1.0
C      1  0.6286240000000  0.3040110000000  0.5816540000000 1.0
C      1  0.3713760000000  0.6959890000000  0.5816540000000 1.0
C      1  0.3040110000000  0.3713760000000  0.4183460000000 1.0
C      1  0.6959890000000  0.6286240000000  0.4183460000000 1.0
C      1  0.3040110000000  0.6286240000000  0.5816540000000 1.0
C      1  0.6959890000000  0.3713760000000  0.5816540000000 1.0
C      1  0.4109160000000  0.3413350000000  0.6664690000000 1.0
C      1  0.5890840000000  0.6586650000000  0.6664690000000 1.0
C      1  0.5890840000000  0.3413350000000  0.3335310000000 1.0
C      1  0.4109160000000  0.6586650000000  0.3335310000000 1.0
C      1  0.3413350000000  0.4109160000000  0.6664690000000 1.0
C      1  0.6586650000000  0.5890840000000  0.6664690000000 1.0
C      1  0.3413350000000  0.5890840000000  0.3335310000000 1.0
C      1  0.6586650000000  0.4109160000000  0.3335310000000 1.0
C      1  0.5890840000000  0.6586650000000  0.3335320000000 1.0
C      1  0.4109160000000  0.3413350000000  0.3335320000000 1.0
C      1  0.4109160000000  0.6586650000000  0.6664680000000 1.0
C      1  0.5890840000000  0.3413350000000  0.6664680000000 1.0
C      1  0.6586650000000  0.5890840000000  0.3335320000000 1.0
C      1  0.3413350000000  0.4109160000000  0.3335320000000 1.0
C      1  0.6586650000000  0.4109160000000  0.6664680000000 1.0
C      1  0.3413350000000  0.5890840000000  0.6664680000000 1.0
C      1  0.6381710000000  0.5000000000000  0.5000000000000 1.0
C      1  0.3618290000000  0.5000000000000  0.5000000000000 1.0
C      1  0.5000000000000  0.6381710000000  0.5000000000000 1.0
C      1  0.5000000000000  0.3618290000000  0.5000000000000 1.0
END
