TITL C-2159252-5904-126 -0.00245730793138309 3375 -401.192478856468 0 0 60 (C1) n - 1
REM
REM in /scratch/bkarasulu/870
REM
REM
REM
REM
REM
REM ./C.cell (a2850807a9bf4ad07a5b6933b78d9264)
REM AIRSS Version 0.9.1 bugfix July 2018 build 013d7b7c2542+ Fri, 06 Jul 2018 19:26:36 +0100
REM compiler GCC version 9.2.1 20190827 (Red Hat 9.2.1-1)
REM options -cpp -mtune=generic -march=x86-64 -g -O0 -fpre-include=/usr/include/finclude/math-vector-fortran.h
REM seed -1253672531 -1775636154 -1001792049 1091179978 210063633 -1807936327 1266753236 -719151942 -2016254227 -1885222660 1522882558 969023569 677526406 1673330270 1584237159 687326180 -725092364 66653873 1381360499 1193851727 -2115413752 398315491 -1292055900 1209125130 2016230550 1856027112 90378121 -1420850940 -1510978397 1161088173 523654677 2048947025 -572923287
REM
CELL 1.54180   15.00000   15.00000   15.00000   90.00000   90.00000   90.00000
LATT -1
SFAC C  
C      1  0.7064010000000  0.6702630000000  0.5296660000000 1.0
C      1  0.7603830000000  0.4475770000000  0.5246650000000 1.0
C      1  0.6133300000000  0.2727070000000  0.5157920000000 1.0
C      1  0.3902440000000  0.2662660000000  0.5249520000000 1.0
C      1  0.2467560000000  0.4318920000000  0.5256630000000 1.0
C      1  0.2990100000000  0.6445670000000  0.5165010000000 1.0
C      1  0.4949710000000  0.7554800000000  0.5280240000000 1.0
C      1  0.3392150000000  0.5044330000000  0.3398000000000 1.0
C      1  0.4129510000000  0.6561690000000  0.3215590000000 1.0
C      1  0.5895550000000  0.6850680000000  0.3182980000000 1.0
C      1  0.7021810000000  0.5518710000000  0.3165460000000 1.0
C      1  0.6436850000000  0.3818990000000  0.3204290000000 1.0
C      1  0.4806040000000  0.3355980000000  0.3377960000000 1.0
C      1  0.3142320000000  0.3411320000000  0.3293930000000 1.0
C      1  0.4146530000000  0.3166640000000  0.6000600000000 1.0
C      1  0.2967040000000  0.4469860000000  0.6042380000000 1.0
C      1  0.3377190000000  0.6193320000000  0.6000110000000 1.0
C      1  0.4972550000000  0.7039130000000  0.6071470000000 1.0
C      1  0.6656600000000  0.6355470000000  0.6080630000000 1.0
C      1  0.7113140000000  0.4592770000000  0.6043920000000 1.0
C      1  0.5939440000000  0.3193180000000  0.5966820000000 1.0
C      1  0.4933700000000  0.7620000000000  0.4432470000000 1.0
C      1  0.7154730000000  0.6772990000000  0.4447720000000 1.0
C      1  0.7653110000000  0.4446150000000  0.4394900000000 1.0
C      1  0.6123190000000  0.2687510000000  0.4304470000000 1.0
C      1  0.3757100000000  0.2519590000000  0.4435050000000 1.0
C      1  0.2345990000000  0.4184970000000  0.4434970000000 1.0
C      1  0.2959140000000  0.6448120000000  0.4311940000000 1.0
C      1  0.5972110000000  0.5756790000000  0.4227780000000 1.0
C      1  0.6140630000000  0.4868580000000  0.4207080000000 1.0
C      1  0.5437520000000  0.4341040000000  0.4462710000000 1.0
C      1  0.4720560000000  0.4099410000000  0.3886390000000 1.0
C      1  0.4110640000000  0.4821550000000  0.3901910000000 1.0
C      1  0.4487610000000  0.5463630000000  0.4501300000000 1.0
C      1  0.5123130000000  0.6066360000000  0.4220010000000 1.0
C      1  0.4041810000000  0.4243250000000  0.7184990000000 1.0
C      1  0.3795280000000  0.5190250000000  0.7191210000000 1.0
C      1  0.4566340000000  0.5798780000000  0.6995740000000 1.0
C      1  0.5528800000000  0.5981610000000  0.7132930000000 1.0
C      1  0.6190430000000  0.5285470000000  0.7127810000000 1.0
C      1  0.5938320000000  0.4369500000000  0.7081890000000 1.0
C      1  0.5011440000000  0.4108060000000  0.6927730000000 1.0
C      1  0.3578880000000  0.3826440000000  0.6456460000000 1.0
C      1  0.3195150000000  0.5339590000000  0.6453960000000 1.0
C      1  0.4230860000000  0.6492500000000  0.6390450000000 1.0
C      1  0.5782530000000  0.6618640000000  0.6474900000000 1.0
C      1  0.6839900000000  0.5459790000000  0.6465530000000 1.0
C      1  0.6450510000000  0.3946640000000  0.6390380000000 1.0
C      1  0.5044320000000  0.3331710000000  0.6325420000000 1.0
C      1  0.3400020000000  0.6108730000000  0.3525500000000 1.0
C      1  0.4986850000000  0.6912960000000  0.3667860000000 1.0
C      1  0.6614770000000  0.6311950000000  0.3657510000000 1.0
C      1  0.6944850000000  0.4603530000000  0.3643640000000 1.0
C      1  0.5866720000000  0.3175250000000  0.3510760000000 1.0
C      1  0.3871710000000  0.2896220000000  0.3566590000000 1.0
C      1  0.2766830000000  0.4220680000000  0.3577250000000 1.0
C      1  0.4976470000000  0.4889600000000  0.5094560000000 1.0
C      1  0.4797210000000  0.4969660000000  0.6324210000000 1.0
C      1  0.5465130000000  0.5225470000000  0.5752020000000 1.0
C      1  0.5322050000000  0.5225960000000  0.2758800000000 1.0
END
