TITL C-2159255-4746-154 -0.00210570750514446 3375 -402.817391953311 0 0 60 (D2) n - 1
REM
REM in /scratch/bkarasulu/871
REM
REM
REM
REM
REM
REM ./C.cell (a2850807a9bf4ad07a5b6933b78d9264)
REM AIRSS Version 0.9.1 bugfix July 2018 build 013d7b7c2542+ Fri, 06 Jul 2018 19:26:36 +0100
REM compiler GCC version 9.2.1 20190827 (Red Hat 9.2.1-1)
REM options -cpp -mtune=generic -march=x86-64 -g -O0 -fpre-include=/usr/include/finclude/math-vector-fortran.h
REM seed 1448375855 -402884351 -233421461 -465873415 53508818 -1017940495 1797354624 939187186 1087924404 692023129 -704075686 917923226 -27042401 -49603206 -518492780 -281421411 1450287661 -1259399986 -837961465 -967106239 -1396697474 -433037768 832166529 611729715 -2065800980 -1316743194 191801575 -1614710259 -1653389834 2023011073 790448757 1054526568 169422736
REM
CELL 1.54180   15.00000   15.00000   15.00000   90.00000   90.00000   90.00000
LATT -1
SFAC C  
C      1  0.7036360000000  0.3276410000000  0.5285140000000 1.0
C      1  0.7036360000000  0.6723590000000  0.4714860000000 1.0
C      1  0.2963640000000  0.6723590000000  0.5285140000000 1.0
C      1  0.2963640000000  0.3276410000000  0.4714860000000 1.0
C      1  0.6091580000000  0.4554190000000  0.2806430000000 1.0
C      1  0.6091580000000  0.5445810000000  0.7193570000000 1.0
C      1  0.3908420000000  0.5445810000000  0.2806430000000 1.0
C      1  0.3908420000000  0.4554190000000  0.7193570000000 1.0
C      1  0.4261740000000  0.3223420000000  0.3898800000000 1.0
C      1  0.4261740000000  0.6776580000000  0.6101200000000 1.0
C      1  0.5738260000000  0.6776580000000  0.3898800000000 1.0
C      1  0.5738260000000  0.3223420000000  0.6101200000000 1.0
C      1  0.3073100000000  0.4787160000000  0.4036390000000 1.0
C      1  0.3073100000000  0.5212840000000  0.5963610000000 1.0
C      1  0.6926900000000  0.5212840000000  0.4036390000000 1.0
C      1  0.6926900000000  0.4787160000000  0.5963610000000 1.0
C      1  0.6286870000000  0.6804750000000  0.5367420000000 1.0
C      1  0.6286870000000  0.3195250000000  0.4632580000000 1.0
C      1  0.3713130000000  0.3195250000000  0.5367420000000 1.0
C      1  0.3713130000000  0.6804750000000  0.4632580000000 1.0
C      1  0.3172510000000  0.4453770000000  0.6532640000000 1.0
C      1  0.3172510000000  0.5546230000000  0.3467360000000 1.0
C      1  0.6827490000000  0.5546230000000  0.6532640000000 1.0
C      1  0.6827490000000  0.4453770000000  0.3467360000000 1.0
C      1  0.4570420000000  0.5220620000000  0.7204750000000 1.0
C      1  0.4570420000000  0.4779380000000  0.2795250000000 1.0
C      1  0.5429580000000  0.4779380000000  0.7204750000000 1.0
C      1  0.5429580000000  0.5220620000000  0.2795250000000 1.0
C      1  0.3877410000000  0.4774380000000  0.4596270000000 1.0
C      1  0.3877410000000  0.5225620000000  0.5403730000000 1.0
C      1  0.6122590000000  0.5225620000000  0.4596270000000 1.0
C      1  0.6122590000000  0.4774380000000  0.5403730000000 1.0
C      1  0.5467400000000  0.3074150000000  0.5172040000000 1.0
C      1  0.5467400000000  0.6925850000000  0.4827960000000 1.0
C      1  0.4532600000000  0.6925850000000  0.5172040000000 1.0
C      1  0.4532600000000  0.3074150000000  0.4827960000000 1.0
C      1  0.7283980000000  0.3936930000000  0.5959320000000 1.0
C      1  0.7283980000000  0.6063070000000  0.4040680000000 1.0
C      1  0.2716020000000  0.6063070000000  0.5959320000000 1.0
C      1  0.2716020000000  0.3936930000000  0.4040680000000 1.0
C      1  0.6392020000000  0.6392070000000  0.6207350000000 1.0
C      1  0.6392020000000  0.3607930000000  0.3792650000000 1.0
C      1  0.3607980000000  0.3607930000000  0.6207350000000 1.0
C      1  0.3607980000000  0.6392070000000  0.3792650000000 1.0
C      1  0.3304300000000  0.6845630000000  0.6131800000000 1.0
C      1  0.3304300000000  0.3154370000000  0.3868200000000 1.0
C      1  0.6695700000000  0.3154370000000  0.6131800000000 1.0
C      1  0.6695700000000  0.6845630000000  0.3868200000000 1.0
C      1  0.4318490000000  0.3752320000000  0.6837260000000 1.0
C      1  0.4318490000000  0.6247680000000  0.3162740000000 1.0
C      1  0.5681510000000  0.6247680000000  0.6837260000000 1.0
C      1  0.5681510000000  0.3752320000000  0.3162740000000 1.0
C      1  0.5307290000000  0.4647630000000  0.5853900000000 1.0
C      1  0.5307290000000  0.5352370000000  0.4146100000000 1.0
C      1  0.4692710000000  0.5352370000000  0.5853900000000 1.0
C      1  0.4692710000000  0.4647630000000  0.4146100000000 1.0
C      1  0.4747460000000  0.6054560000000  0.6603420000000 1.0
C      1  0.4747460000000  0.3945440000000  0.3396580000000 1.0
C      1  0.5252540000000  0.3945440000000  0.6603420000000 1.0
C      1  0.5252540000000  0.6054560000000  0.3396580000000 1.0
END
