TITL C-2158984-8299-577 -0.00156747003086915 3375 -400.148759732628 0 0 60 (C1) n - 1
REM
REM in /scratch/bkarasulu/869
REM
REM
REM
REM
REM
REM ./C.cell (a2850807a9bf4ad07a5b6933b78d9264)
REM AIRSS Version 0.9.1 bugfix July 2018 build 013d7b7c2542+ Fri, 06 Jul 2018 19:26:36 +0100
REM compiler GCC version 9.2.1 20190827 (Red Hat 9.2.1-1)
REM options -cpp -mtune=generic -march=x86-64 -g -O0 -fpre-include=/usr/include/finclude/math-vector-fortran.h
REM seed 1124511720 1691488924 1457448024 115280487 -441153116 -2142101429 1583353898 -176408073 346724545 -830918379 -1507594225 1234193855 530417457 -103704491 1954565082 1400277210 633926649 -291537168 1291537435 1909831392 371805261 -472688792 719008291 1689023510 -1989563122 1082152865 440429400 -387037524 -1963989911 -325137667 -1781695710 -282973606 602419781
REM
CELL 1.54180   15.00000   15.00000   15.00000   90.00000   90.00000   90.00000
LATT -1
SFAC C  
C      1  0.4802120000000  0.4885710000000  0.3790010000000 1.0
C      1  0.4019800000000  0.6864120000000  0.4075180000000 1.0
C      1  0.5680350000000  0.6910010000000  0.5862450000000 1.0
C      1  0.5671850000000  0.2779410000000  0.5137040000000 1.0
C      1  0.4193990000000  0.5503800000000  0.3154160000000 1.0
C      1  0.7241160000000  0.3973150000000  0.5164970000000 1.0
C      1  0.3616950000000  0.3774050000000  0.3690820000000 1.0
C      1  0.5784840000000  0.4937270000000  0.4055710000000 1.0
C      1  0.5007990000000  0.4097230000000  0.3133110000000 1.0
C      1  0.5526520000000  0.6950260000000  0.3308350000000 1.0
C      1  0.6453030000000  0.6580750000000  0.6212010000000 1.0
C      1  0.6191630000000  0.3751070000000  0.6526760000000 1.0
C      1  0.5185240000000  0.4943480000000  0.5877540000000 1.0
C      1  0.2858350000000  0.5007120000000  0.5610600000000 1.0
C      1  0.6094580000000  0.6246030000000  0.3451620000000 1.0
C      1  0.7069170000000  0.3232150000000  0.4554840000000 1.0
C      1  0.3594950000000  0.6204430000000  0.7166750000000 1.0
C      1  0.3252800000000  0.4536650000000  0.4239770000000 1.0
C      1  0.2832250000000  0.5794940000000  0.5042240000000 1.0
C      1  0.5442920000000  0.6661990000000  0.4885070000000 1.0
C      1  0.6220130000000  0.5072240000000  0.5700820000000 1.0
C      1  0.3038180000000  0.5546290000000  0.4160210000000 1.0
C      1  0.7029130000000  0.3944140000000  0.3763470000000 1.0
C      1  0.4079260000000  0.6903700000000  0.6730580000000 1.0
C      1  0.6446520000000  0.5285150000000  0.4743390000000 1.0
C      1  0.3247630000000  0.6680110000000  0.6384650000000 1.0
C      1  0.4973790000000  0.2974100000000  0.4409550000000 1.0
C      1  0.3634310000000  0.6104430000000  0.3652050000000 1.0
C      1  0.5910090000000  0.4528730000000  0.2700760000000 1.0
C      1  0.5598370000000  0.3332390000000  0.5920700000000 1.0
C      1  0.4856250000000  0.6497960000000  0.6269550000000 1.0
C      1  0.4071140000000  0.4063440000000  0.2877550000000 1.0
C      1  0.6651300000000  0.4198870000000  0.5853710000000 1.0
C      1  0.6063450000000  0.3960280000000  0.4054830000000 1.0
C      1  0.4072480000000  0.3208640000000  0.4360850000000 1.0
C      1  0.3854600000000  0.6866410000000  0.4991720000000 1.0
C      1  0.2789820000000  0.4295610000000  0.5055550000000 1.0
C      1  0.6521370000000  0.2570890000000  0.4823260000000 1.0
C      1  0.4985870000000  0.7044750000000  0.4047230000000 1.0
C      1  0.4080640000000  0.5363530000000  0.6949220000000 1.0
C      1  0.5819990000000  0.4369640000000  0.7144830000000 1.0
C      1  0.5396880000000  0.3398220000000  0.3676520000000 1.0
C      1  0.4567360000000  0.6297610000000  0.5333130000000 1.0
C      1  0.5874050000000  0.5322200000000  0.7110340000000 1.0
C      1  0.5075050000000  0.4214470000000  0.7629840000000 1.0
C      1  0.6183430000000  0.6173390000000  0.4436140000000 1.0
C      1  0.4840970000000  0.3922030000000  0.5855900000000 1.0
C      1  0.4398880000000  0.3828090000000  0.5008290000000 1.0
C      1  0.3088090000000  0.6597580000000  0.5459100000000 1.0
C      1  0.6657560000000  0.4002280000000  0.2899100000000 1.0
C      1  0.6081330000000  0.5328020000000  0.3189390000000 1.0
C      1  0.3893160000000  0.4937010000000  0.2504700000000 1.0
C      1  0.4279020000000  0.4455020000000  0.7300200000000 1.0
C      1  0.5016590000000  0.5603190000000  0.6695860000000 1.0
C      1  0.4417060000000  0.5292150000000  0.5342920000000 1.0
C      1  0.4250690000000  0.4703460000000  0.4580500000000 1.0
C      1  0.4091860000000  0.4129290000000  0.6436980000000 1.0
C      1  0.3728900000000  0.4983610000000  0.6071050000000 1.0
C      1  0.7227350000000  0.4658840000000  0.4482280000000 1.0
C      1  0.6466950000000  0.5708650000000  0.6454260000000 1.0
END
