TITL C-2159252-5904-313 -0.00747123656469159 3375 -416.19891433339 0 0 60 (Cs) n - 1
REM
REM in /scratch/bkarasulu/870
REM
REM
REM
REM
REM
REM ./C.cell (a2850807a9bf4ad07a5b6933b78d9264)
REM AIRSS Version 0.9.1 bugfix July 2018 build 013d7b7c2542+ Fri, 06 Jul 2018 19:26:36 +0100
REM compiler GCC version 9.2.1 20190827 (Red Hat 9.2.1-1)
REM options -cpp -mtune=generic -march=x86-64 -g -O0 -fpre-include=/usr/include/finclude/math-vector-fortran.h
REM seed -1891788751 1194869292 906627869 -1384294811 -1959143884 1243968091 2096316407 -2147182750 11395599 226780820 1269291731 1662144963 -780567447 -1413627511 735137943 244975110 -1352874804 -1395044087 119057810 1695208434 48256278 1856780844 -155547507 -1933481630 97238504 2080717066 -935296397 1993633298 -145853728 -1070109211 -1597692529 1829404121 -1406057226
REM
CELL 1.54180   15.00000   15.00000   15.00000   90.00000   90.00000   90.00000
LATT -1
SFAC C  
C      1  0.2443930000000  0.4762120000000  0.5568440000000 1.0
C      1  0.2983270000000  0.3414110000000  0.5559420000000 1.0
C      1  0.4146640000000  0.2550100000000  0.5587560000000 1.0
C      1  0.5596110000000  0.2452740000000  0.5615610000000 1.0
C      1  0.6861950000000  0.3170110000000  0.5615400000000 1.0
C      1  0.7523370000000  0.4463560000000  0.5587200000000 1.0
C      1  0.7380390000000  0.5905560000000  0.5559330000000 1.0
C      1  0.6501220000000  0.7061060000000  0.5568470000000 1.0
C      1  0.5137920000000  0.7562600000000  0.5592260000000 1.0
C      1  0.3722180000000  0.7235990000000  0.5602150000000 1.0
C      1  0.2714430000000  0.6189330000000  0.5592160000000 1.0
C      1  0.7832930000000  0.5215490000000  0.5146150000000 1.0
C      1  0.7233480000000  0.6708970000000  0.5131130000000 1.0
C      1  0.5948340000000  0.7678670000000  0.5161830000000 1.0
C      1  0.4336700000000  0.7793300000000  0.5191870000000 1.0
C      1  0.2928380000000  0.6995180000000  0.5191750000000 1.0
C      1  0.2198380000000  0.5553770000000  0.5161710000000 1.0
C      1  0.2369600000000  0.3953010000000  0.5131140000000 1.0
C      1  0.3342610000000  0.2671170000000  0.5146370000000 1.0
C      1  0.4852130000000  0.2112140000000  0.5181660000000 1.0
C      1  0.6423070000000  0.2468910000000  0.5199740000000 1.0
C      1  0.7536290000000  0.3633350000000  0.5181220000000 1.0
C      1  0.5143250000000  0.7974220000000  0.3810430000000 1.0
C      1  0.3510630000000  0.7609480000000  0.3826760000000 1.0
C      1  0.2358850000000  0.6396140000000  0.3810270000000 1.0
C      1  0.2055700000000  0.4742820000000  0.3778000000000 1.0
C      1  0.2684180000000  0.3173360000000  0.3766990000000 1.0
C      1  0.4036480000000  0.2174100000000  0.3791990000000 1.0
C      1  0.5702370000000  0.2049960000000  0.3824470000000 1.0
C      1  0.7152150000000  0.2872150000000  0.3824140000000 1.0
C      1  0.7902290000000  0.4364940000000  0.3791610000000 1.0
C      1  0.7740660000000  0.6038540000000  0.3766900000000 1.0
C      1  0.6717070000000  0.7384050000000  0.3778010000000 1.0
C      1  0.4310780000000  0.7879730000000  0.4209380000000 1.0
C      1  0.2867660000000  0.7061780000000  0.4209250000000 1.0
C      1  0.2124240000000  0.5578790000000  0.4181220000000 1.0
C      1  0.2301250000000  0.3929230000000  0.4153880000000 1.0
C      1  0.3306370000000  0.2609060000000  0.4164740000000 1.0
C      1  0.4856420000000  0.2026480000000  0.4200260000000 1.0
C      1  0.6469260000000  0.2387150000000  0.4219160000000 1.0
C      1  0.7607260000000  0.3585730000000  0.4199800000000 1.0
C      1  0.7904800000000  0.5214720000000  0.4164520000000 1.0
C      1  0.7288920000000  0.6755380000000  0.4153850000000 1.0
C      1  0.5964930000000  0.7755170000000  0.4181320000000 1.0
C      1  0.6255060000000  0.3759620000000  0.6154890000000 1.0
C      1  0.6704690000000  0.4630460000000  0.6137270000000 1.0
C      1  0.6609080000000  0.5605940000000  0.6113990000000 1.0
C      1  0.6009600000000  0.6380220000000  0.6107570000000 1.0
C      1  0.5091970000000  0.6711720000000  0.6113760000000 1.0
C      1  0.4143620000000  0.6492180000000  0.6117410000000 1.0
C      1  0.3467890000000  0.5791480000000  0.6113720000000 1.0
C      1  0.3280620000000  0.4833940000000  0.6107610000000 1.0
C      1  0.3636670000000  0.3921720000000  0.6114090000000 1.0
C      1  0.4424280000000  0.3338290000000  0.6137480000000 1.0
C      1  0.5402370000000  0.3276450000000  0.6155010000000 1.0
C      1  0.4990160000000  0.4998130000000  0.5298520000000 1.0
C      1  0.4999820000000  0.4981040000000  0.6174100000000 1.0
C      1  0.4869940000000  0.5210920000000  0.4481190000000 1.0
C      1  0.4943900000000  0.5080020000000  0.3617770000000 1.0
C      1  0.5004750000000  0.4972320000000  0.7017510000000 1.0
END
