TITL C-2158984-8299-271 -0.00461269949935965 3375 -404.241996711394 0 0 60 (D2d) n - 1
REM
REM in /scratch/bkarasulu/869
REM
REM
REM
REM
REM
REM ./C.cell (a2850807a9bf4ad07a5b6933b78d9264)
REM AIRSS Version 0.9.1 bugfix July 2018 build 013d7b7c2542+ Fri, 06 Jul 2018 19:26:36 +0100
REM compiler GCC version 9.2.1 20190827 (Red Hat 9.2.1-1)
REM options -cpp -mtune=generic -march=x86-64 -g -O0 -fpre-include=/usr/include/finclude/math-vector-fortran.h
REM seed 600090550 -1443225771 -44208022 1862742578 32791196 -221576280 2046529241 721274540 1929236002 360588729 -1595790113 -1784145748 661885184 1525663784 -346021931 -792240027 12605627 1867416001 1459236542 1730131280 622183963 398712570 1727189401 -1651545969 1823052418 660136695 -1333245713 -517674217 289285924 457229034 1575903317 -1192527750 15539747
REM
CELL 1.54180   15.00000   15.00000   15.00000   90.00000   90.00000   90.00000
LATT -1
SFAC C  
C      1  0.5874300000000  0.7524480000000  0.4279500000000 1.0
C      1  0.5874300000000  0.2475520000000  0.5720500000000 1.0
C      1  0.4125700000000  0.7524480000000  0.5720500000000 1.0
C      1  0.4125700000000  0.2475520000000  0.4279500000000 1.0
C      1  0.5874300000000  0.4279500000000  0.7524480000000 1.0
C      1  0.5874300000000  0.5720500000000  0.2475520000000 1.0
C      1  0.4125700000000  0.5720500000000  0.7524480000000 1.0
C      1  0.4125700000000  0.4279500000000  0.2475520000000 1.0
C      1  0.3924610000000  0.2908970000000  0.3498340000000 1.0
C      1  0.3924610000000  0.7091030000000  0.6501660000000 1.0
C      1  0.6075390000000  0.2908970000000  0.6501660000000 1.0
C      1  0.6075390000000  0.7091030000000  0.3498340000000 1.0
C      1  0.3924610000000  0.3498340000000  0.2908970000000 1.0
C      1  0.3924610000000  0.6501660000000  0.7091030000000 1.0
C      1  0.6075390000000  0.6501660000000  0.2908970000000 1.0
C      1  0.6075390000000  0.3498340000000  0.7091030000000 1.0
C      1  0.3783230000000  0.4847980000000  0.7124270000000 1.0
C      1  0.3783230000000  0.5152020000000  0.2875730000000 1.0
C      1  0.6216770000000  0.4847980000000  0.2875730000000 1.0
C      1  0.6216770000000  0.5152020000000  0.7124270000000 1.0
C      1  0.3783230000000  0.7124270000000  0.4847980000000 1.0
C      1  0.3783230000000  0.2875730000000  0.5152020000000 1.0
C      1  0.6216770000000  0.2875730000000  0.4847980000000 1.0
C      1  0.6216770000000  0.7124270000000  0.5152020000000 1.0
C      1  0.4966870000000  0.4489780000000  0.2062560000000 1.0
C      1  0.4966870000000  0.5510220000000  0.7937440000000 1.0
C      1  0.5033130000000  0.4489780000000  0.7937440000000 1.0
C      1  0.5033130000000  0.5510220000000  0.2062560000000 1.0
C      1  0.4966870000000  0.2062560000000  0.4489780000000 1.0
C      1  0.4966870000000  0.7937440000000  0.5510220000000 1.0
C      1  0.5033130000000  0.7937440000000  0.4489780000000 1.0
C      1  0.5033130000000  0.2062560000000  0.5510220000000 1.0
C      1  0.4205310000000  0.2360680000000  0.5797040000000 1.0
C      1  0.4205310000000  0.7639320000000  0.4202960000000 1.0
C      1  0.5794690000000  0.2360680000000  0.4202960000000 1.0
C      1  0.5794690000000  0.7639320000000  0.5797040000000 1.0
C      1  0.4205310000000  0.5797040000000  0.2360680000000 1.0
C      1  0.4205310000000  0.4202960000000  0.7639320000000 1.0
C      1  0.5794690000000  0.4202960000000  0.2360680000000 1.0
C      1  0.5794690000000  0.5797040000000  0.7639320000000 1.0
C      1  0.4632050000000  0.4696760000000  0.4039920000000 1.0
C      1  0.4632050000000  0.5303240000000  0.5960080000000 1.0
C      1  0.5367950000000  0.4696760000000  0.5960080000000 1.0
C      1  0.5367950000000  0.5303240000000  0.4039920000000 1.0
C      1  0.4632050000000  0.4039920000000  0.4696760000000 1.0
C      1  0.4632050000000  0.5960080000000  0.5303240000000 1.0
C      1  0.5367950000000  0.5960080000000  0.4696760000000 1.0
C      1  0.5367950000000  0.4039920000000  0.5303240000000 1.0
C      1  0.3717590000000  0.3822810000000  0.5049030000000 1.0
C      1  0.3717590000000  0.6177190000000  0.4950970000000 1.0
C      1  0.6282410000000  0.3822810000000  0.4950970000000 1.0
C      1  0.6282410000000  0.6177190000000  0.5049030000000 1.0
C      1  0.3717590000000  0.5049030000000  0.3822810000000 1.0
C      1  0.3717590000000  0.4950970000000  0.6177190000000 1.0
C      1  0.6282410000000  0.4950970000000  0.3822810000000 1.0
C      1  0.6282410000000  0.5049030000000  0.6177190000000 1.0
C      1  0.6699630000000  0.4642470000000  0.4642470000000 1.0
C      1  0.3300370000000  0.4642470000000  0.5357530000000 1.0
C      1  0.3300370000000  0.5357530000000  0.4642470000000 1.0
C      1  0.6699630000000  0.5357530000000  0.5357530000000 1.0
END
