TITL C-2158988-7926-847 -0.00418349720543407 3375 -382.20696752017 0 0 60 (Td) n - 1
REM
REM in /scratch/bkarasulu/868
REM
REM
REM
REM
REM
REM ./C.cell (a2850807a9bf4ad07a5b6933b78d9264)
REM AIRSS Version 0.9.1 bugfix July 2018 build 013d7b7c2542+ Fri, 06 Jul 2018 19:26:36 +0100
REM compiler GCC version 9.2.1 20190827 (Red Hat 9.2.1-1)
REM options -cpp -mtune=generic -march=x86-64 -g -O0 -fpre-include=/usr/include/finclude/math-vector-fortran.h
REM seed -1625795866 -575572884 518543068 -991464646 314604400 1773878194 -1506250189 -64780941 1571202380 1993508309 1940229808 -1244023966 -2134994456 -1741824466 2034362629 -1836144131 -958645019 379298950 -1430273257 -2060566630 1555417093 -114622145 629109113 -1485916022 -2080545223 709822614 207247413 -1458015741 1867967852 -689793218 -322147998 1256491321 -2024998954
REM
CELL 1.54180   15.00000   15.00000   15.00000   90.00000   90.00000   90.00000
LATT -1
SFAC C  
C      1  0.6748330000000  0.5309130000000  0.3964600000000 1.0
C      1  0.3964600000000  0.6748330000000  0.5309130000000 1.0
C      1  0.5309130000000  0.3964600000000  0.6748330000000 1.0
C      1  0.6748330000000  0.4690870000000  0.6035400000000 1.0
C      1  0.3251670000000  0.4690870000000  0.3964600000000 1.0
C      1  0.3251670000000  0.5309130000000  0.6035400000000 1.0
C      1  0.3964600000000  0.3251670000000  0.4690870000000 1.0
C      1  0.6035400000000  0.3251670000000  0.5309130000000 1.0
C      1  0.6035400000000  0.6748330000000  0.4690870000000 1.0
C      1  0.5309130000000  0.6035400000000  0.3251670000000 1.0
C      1  0.4690870000000  0.6035400000000  0.6748330000000 1.0
C      1  0.4690870000000  0.3964600000000  0.3251670000000 1.0
C      1  0.6748330000000  0.3964600000000  0.5309130000000 1.0
C      1  0.3964600000000  0.5309130000000  0.6748330000000 1.0
C      1  0.5309130000000  0.6748330000000  0.3964600000000 1.0
C      1  0.6748330000000  0.6035400000000  0.4690870000000 1.0
C      1  0.3251670000000  0.3964600000000  0.4690870000000 1.0
C      1  0.3251670000000  0.6035400000000  0.5309130000000 1.0
C      1  0.3964600000000  0.4690870000000  0.3251670000000 1.0
C      1  0.6035400000000  0.5309130000000  0.3251670000000 1.0
C      1  0.6035400000000  0.4690870000000  0.6748330000000 1.0
C      1  0.5309130000000  0.3251670000000  0.6035400000000 1.0
C      1  0.4690870000000  0.6748330000000  0.6035400000000 1.0
C      1  0.4690870000000  0.3251670000000  0.3964600000000 1.0
C      1  0.2362360000000  0.4306760000000  0.5000710000000 1.0
C      1  0.5000710000000  0.2362360000000  0.4306760000000 1.0
C      1  0.4306760000000  0.5000710000000  0.2362360000000 1.0
C      1  0.2362360000000  0.5693240000000  0.4999290000000 1.0
C      1  0.7637640000000  0.5693240000000  0.5000710000000 1.0
C      1  0.7637640000000  0.4306760000000  0.4999290000000 1.0
C      1  0.5000710000000  0.7637640000000  0.5693240000000 1.0
C      1  0.4999290000000  0.7637640000000  0.4306760000000 1.0
C      1  0.4999290000000  0.2362360000000  0.5693240000000 1.0
C      1  0.4306760000000  0.4999290000000  0.7637640000000 1.0
C      1  0.5693240000000  0.4999290000000  0.2362360000000 1.0
C      1  0.5693240000000  0.5000710000000  0.7637640000000 1.0
C      1  0.2362360000000  0.5000710000000  0.4306760000000 1.0
C      1  0.5000710000000  0.4306760000000  0.2362360000000 1.0
C      1  0.4306760000000  0.2362360000000  0.5000710000000 1.0
C      1  0.2362360000000  0.4999290000000  0.5693240000000 1.0
C      1  0.7637640000000  0.5000710000000  0.5693240000000 1.0
C      1  0.7637640000000  0.4999290000000  0.4306760000000 1.0
C      1  0.5000710000000  0.5693240000000  0.7637640000000 1.0
C      1  0.4999290000000  0.4306760000000  0.7637640000000 1.0
C      1  0.4999290000000  0.5693240000000  0.2362360000000 1.0
C      1  0.4306760000000  0.7637640000000  0.4999290000000 1.0
C      1  0.5693240000000  0.2362360000000  0.4999290000000 1.0
C      1  0.5693240000000  0.7637640000000  0.5000710000000 1.0
C      1  0.6170550000000  0.3829450000000  0.4521970000000 1.0
C      1  0.3829450000000  0.6170550000000  0.4521970000000 1.0
C      1  0.4521970000000  0.3829450000000  0.6170550000000 1.0
C      1  0.4521970000000  0.6170550000000  0.3829450000000 1.0
C      1  0.6170550000000  0.4521970000000  0.3829450000000 1.0
C      1  0.3829450000000  0.4521970000000  0.6170550000000 1.0
C      1  0.5478030000000  0.3829450000000  0.3829450000000 1.0
C      1  0.6170550000000  0.6170550000000  0.5478030000000 1.0
C      1  0.5478030000000  0.6170550000000  0.6170550000000 1.0
C      1  0.6170550000000  0.5478030000000  0.6170550000000 1.0
C      1  0.3829450000000  0.3829450000000  0.5478030000000 1.0
C      1  0.3829450000000  0.5478030000000  0.3829450000000 1.0
END
