TITL C-2159255-4746-1051 -0.00110730827179892 3375 -413.281641291768 0 0 60 (D5) n - 1
REM
REM in /scratch/bkarasulu/871
REM
REM
REM
REM
REM
REM ./C.cell (a2850807a9bf4ad07a5b6933b78d9264)
REM AIRSS Version 0.9.1 bugfix July 2018 build 013d7b7c2542+ Fri, 06 Jul 2018 19:26:36 +0100
REM compiler GCC version 9.2.1 20190827 (Red Hat 9.2.1-1)
REM options -cpp -mtune=generic -march=x86-64 -g -O0 -fpre-include=/usr/include/finclude/math-vector-fortran.h
REM seed 686047602 -410252672 -102222629 708165449 -123592117 1667697440 2121632471 879905982 -460267645 -1443841029 504540830 1407058814 -115422072 959992492 1529985228 1725782648 464210947 1931210520 -83358069 875010592 -932332596 610664618 -743800354 539122196 -1924341638 -967575425 590086103 -2067776717 1091380388 1177627640 -1214135658 -961050243 709473102
REM
CELL 1.54180   15.00000   15.00000   15.00000   90.00000   90.00000   90.00000
LATT -1
SFAC C  
C      1  0.4514560000000  0.4882480000000  0.4188650000000 1.0
C      1  0.4514550000000  0.5735320000000  0.4637510000000 1.0
C      1  0.4514550000000  0.5571970000000  0.5587320000000 1.0
C      1  0.4514560000000  0.4618170000000  0.5725470000000 1.0
C      1  0.4514560000000  0.4192040000000  0.4861050000000 1.0
C      1  0.5485440000000  0.5117520000000  0.4188650000000 1.0
C      1  0.5485450000000  0.4264680000000  0.4637510000000 1.0
C      1  0.5485450000000  0.4428030000000  0.5587320000000 1.0
C      1  0.5485440000000  0.5381830000000  0.5725470000000 1.0
C      1  0.5485440000000  0.5807960000000  0.4861050000000 1.0
C      1  0.5920210000000  0.4263370000000  0.6934270000000 1.0
C      1  0.5920220000000  0.2932760000000  0.4897140000000 1.0
C      1  0.5920220000000  0.4459010000000  0.3002160000000 1.0
C      1  0.5920210000000  0.6732870000000  0.3868130000000 1.0
C      1  0.5920210000000  0.6611970000000  0.6298290000000 1.0
C      1  0.4079790000000  0.5736630000000  0.6934270000000 1.0
C      1  0.4079780000000  0.7067240000000  0.4897140000000 1.0
C      1  0.4079780000000  0.5540990000000  0.3002160000000 1.0
C      1  0.4079790000000  0.3267130000000  0.3868130000000 1.0
C      1  0.4079790000000  0.3388030000000  0.6298290000000 1.0
C      1  0.3014780000000  0.4507010000000  0.4333020000000 1.0
C      1  0.3014770000000  0.5481990000000  0.4325030000000 1.0
C      1  0.3014770000000  0.5790880000000  0.5249830000000 1.0
C      1  0.3014780000000  0.5006790000000  0.5829380000000 1.0
C      1  0.3014780000000  0.4213320000000  0.5262760000000 1.0
C      1  0.6985220000000  0.5492990000000  0.4333020000000 1.0
C      1  0.6985230000000  0.4518010000000  0.4325030000000 1.0
C      1  0.6985230000000  0.4209120000000  0.5249830000000 1.0
C      1  0.6985220000000  0.4993210000000  0.5829380000000 1.0
C      1  0.6985220000000  0.5786680000000  0.5262760000000 1.0
C      1  0.5025010000000  0.4537000000000  0.7190770000000 1.0
C      1  0.5025020000000  0.2773370000000  0.5236640000000 1.0
C      1  0.5025010000000  0.4086880000000  0.2955480000000 1.0
C      1  0.5025010000000  0.6662270000000  0.3499780000000 1.0
C      1  0.5025010000000  0.6940470000000  0.6117310000000 1.0
C      1  0.4974990000000  0.5463000000000  0.7190770000000 1.0
C      1  0.4974980000000  0.7226630000000  0.5236640000000 1.0
C      1  0.4974990000000  0.5913120000000  0.2955480000000 1.0
C      1  0.4974990000000  0.3337730000000  0.3499780000000 1.0
C      1  0.4974990000000  0.3059530000000  0.6117310000000 1.0
C      1  0.6481940000000  0.4008230000000  0.3657060000000 1.0
C      1  0.6481930000000  0.5970740000000  0.3641780000000 1.0
C      1  0.6481930000000  0.6591720000000  0.5503520000000 1.0
C      1  0.6481930000000  0.5013000000000  0.6669420000000 1.0
C      1  0.6481940000000  0.3416310000000  0.5528240000000 1.0
C      1  0.3518060000000  0.5991770000000  0.3657060000000 1.0
C      1  0.3518070000000  0.4029260000000  0.3641780000000 1.0
C      1  0.3518070000000  0.3408280000000  0.5503520000000 1.0
C      1  0.3518070000000  0.4987000000000  0.6669420000000 1.0
C      1  0.3518060000000  0.6583690000000  0.5528240000000 1.0
C      1  0.4194760000000  0.4618750000000  0.3222560000000 1.0
C      1  0.4194760000000  0.6572620000000  0.4088150000000 1.0
C      1  0.4194760000000  0.6353190000000  0.6213880000000 1.0
C      1  0.4194760000000  0.4263690000000  0.6662080000000 1.0
C      1  0.4194770000000  0.3191740000000  0.4813340000000 1.0
C      1  0.5805240000000  0.5381250000000  0.3222560000000 1.0
C      1  0.5805240000000  0.3427380000000  0.4088150000000 1.0
C      1  0.5805240000000  0.3646810000000  0.6213880000000 1.0
C      1  0.5805240000000  0.5736310000000  0.6662080000000 1.0
C      1  0.5805230000000  0.6808260000000  0.4813340000000 1.0
END
