TITL C-2159255-4746-1387 -0.00347938584371493 3375 -406.841680648948 0 0 60 (C1) n - 1
REM
REM in /scratch/bkarasulu/871
REM
REM
REM
REM
REM
REM ./C.cell (a2850807a9bf4ad07a5b6933b78d9264)
REM AIRSS Version 0.9.1 bugfix July 2018 build 013d7b7c2542+ Fri, 06 Jul 2018 19:26:36 +0100
REM compiler GCC version 9.2.1 20190827 (Red Hat 9.2.1-1)
REM options -cpp -mtune=generic -march=x86-64 -g -O0 -fpre-include=/usr/include/finclude/math-vector-fortran.h
REM seed 17807612 289230371 1872826567 -1966247926 577497043 1209222836 -448639521 1079818660 -660748183 -1700097395 237367683 -643858562 -1213510289 30796428 477655832 398096467 1848483041 -1154706638 1745319518 216185463 438594155 1731911113 1674539486 859692461 -1167037379 801997034 -2062412423 2125525606 -1198972155 -1529300585 -1111467109 258647154 -1615505312
REM
CELL 1.54180   15.00000   15.00000   15.00000   90.00000   90.00000   90.00000
LATT -1
SFAC C  
C      1  0.5440790000000  0.3682480000000  0.3314100000000 1.0
C      1  0.4455420000000  0.3735090000000  0.3355060000000 1.0
C      1  0.3653830000000  0.3739490000000  0.3907340000000 1.0
C      1  0.3259810000000  0.3692410000000  0.4813730000000 1.0
C      1  0.3441120000000  0.3738400000000  0.5785440000000 1.0
C      1  0.4100930000000  0.3738410000000  0.6500790000000 1.0
C      1  0.5054830000000  0.3692380000000  0.6759900000000 1.0
C      1  0.5990060000000  0.3739430000000  0.6440290000000 1.0
C      1  0.6605200000000  0.3735000000000  0.5685850000000 1.0
C      1  0.6725510000000  0.3682420000000  0.4707000000000 1.0
C      1  0.6275920000000  0.3731850000000  0.3832740000000 1.0
C      1  0.5826130000000  0.4838330000000  0.7618750000000 1.0
C      1  0.7115480000000  0.4899220000000  0.6724130000000 1.0
C      1  0.7726590000000  0.4833890000000  0.5282310000000 1.0
C      1  0.7456280000000  0.4840460000000  0.3821430000000 1.0
C      1  0.6382460000000  0.4840530000000  0.2657220000000 1.0
C      1  0.4948140000000  0.4834060000000  0.2269960000000 1.0
C      1  0.3461730000000  0.4899390000000  0.2762760000000 1.0
C      1  0.2466020000000  0.4838420000000  0.3975720000000 1.0
C      1  0.2297350000000  0.4836460000000  0.5455590000000 1.0
C      1  0.2993780000000  0.4896760000000  0.6860010000000 1.0
C      1  0.4337460000000  0.4836450000000  0.7667460000000 1.0
C      1  0.4583890000000  0.5751260000000  0.7492060000000 1.0
C      1  0.5565150000000  0.5752520000000  0.7460270000000 1.0
C      1  0.7079550000000  0.5831680000000  0.6698200000000 1.0
C      1  0.7530340000000  0.5755650000000  0.5064150000000 1.0
C      1  0.7357120000000  0.5756250000000  0.4105240000000 1.0
C      1  0.6091620000000  0.5756330000000  0.2733250000000 1.0
C      1  0.5149810000000  0.5755790000000  0.2483250000000 1.0
C      1  0.3484710000000  0.5831850000000  0.2800740000000 1.0
C      1  0.2602970000000  0.5752580000000  0.4248690000000 1.0
C      1  0.2492110000000  0.5751270000000  0.5224180000000 1.0
C      1  0.3027100000000  0.5830090000000  0.6829310000000 1.0
C      1  0.5080330000000  0.4272940000000  0.7574300000000 1.0
C      1  0.6416640000000  0.4401410000000  0.7067290000000 1.0
C      1  0.7308410000000  0.4397780000000  0.5970690000000 1.0
C      1  0.7524680000000  0.4272670000000  0.4561200000000 1.0
C      1  0.6829320000000  0.4395140000000  0.3322350000000 1.0
C      1  0.5650580000000  0.4272790000000  0.2529330000000 1.0
C      1  0.4228260000000  0.4397940000000  0.2631220000000 1.0
C      1  0.3063300000000  0.4401510000000  0.3431590000000 1.0
C      1  0.2450130000000  0.4272970000000  0.4722640000000 1.0
C      1  0.2755560000000  0.4397030000000  0.6119190000000 1.0
C      1  0.3712990000000  0.4397060000000  0.7157180000000 1.0
C      1  0.3694980000000  0.6241510000000  0.6213360000000 1.0
C      1  0.4542770000000  0.6257810000000  0.6653750000000 1.0
C      1  0.5548420000000  0.6256010000000  0.6618100000000 1.0
C      1  0.6367120000000  0.6240270000000  0.6127070000000 1.0
C      1  0.6696140000000  0.6250100000000  0.5236740000000 1.0
C      1  0.6504880000000  0.6261260000000  0.4254680000000 1.0
C      1  0.5873970000000  0.6261280000000  0.3570690000000 1.0
C      1  0.4910520000000  0.6250190000000  0.3300840000000 1.0
C      1  0.3996550000000  0.6240360000000  0.3556950000000 1.0
C      1  0.3441060000000  0.6256060000000  0.4333350000000 1.0
C      1  0.3324390000000  0.6257810000000  0.5332820000000 1.0
C      1  0.4924050000000  0.6217810000000  0.5079750000000 1.0
C      1  0.4997680000000  0.2764170000000  0.5011690000000 1.0
C      1  0.4982720000000  0.5326520000000  0.5025600000000 1.0
C      1  0.5009290000000  0.4481940000000  0.5001050000000 1.0
C      1  0.5001970000000  0.3590660000000  0.5007770000000 1.0
END
