TITL C-2159255-4746-119 -0.00246624348005826 3375 -440.881806362327 0 0 60 (Cs) n - 1
REM
REM in /scratch/bkarasulu/871
REM
REM
REM
REM
REM
REM ./C.cell (a2850807a9bf4ad07a5b6933b78d9264)
REM AIRSS Version 0.9.1 bugfix July 2018 build 013d7b7c2542+ Fri, 06 Jul 2018 19:26:36 +0100
REM compiler GCC version 9.2.1 20190827 (Red Hat 9.2.1-1)
REM options -cpp -mtune=generic -march=x86-64 -g -O0 -fpre-include=/usr/include/finclude/math-vector-fortran.h
REM seed -631614617 1058265383 -718461535 2044526086 -990348445 -1716984535 2046084253 904221968 740778198 1634462422 -869190640 -1206147698 -2076563448 569577679 -1327742527 1741254203 541743677 708419019 -1565276672 708916282 -1342998814 -1993818383 510070689 -794922154 1911727372 -314885130 1340055364 -2071104265 99901492 -1839959703 -1940017810 1518558006 1423686013
REM
CELL 1.54180   15.00000   15.00000   15.00000   90.00000   90.00000   90.00000
LATT -1
SFAC C  
C      1  0.6773450000000  0.3596870000000  0.5524430000000 1.0
C      1  0.5735020000000  0.3595370000000  0.6641760000000 1.0
C      1  0.4226560000000  0.3581730000000  0.6542290000000 1.0
C      1  0.3262060000000  0.3595920000000  0.5378200000000 1.0
C      1  0.3559030000000  0.3597590000000  0.3882030000000 1.0
C      1  0.4983820000000  0.3514010000000  0.3293270000000 1.0
C      1  0.6415650000000  0.3513690000000  0.4024860000000 1.0
C      1  0.3469030000000  0.5418190000000  0.3769140000000 1.0
C      1  0.5046520000000  0.5365320000000  0.3072030000000 1.0
C      1  0.6558830000000  0.5364980000000  0.3844760000000 1.0
C      1  0.6918300000000  0.5417420000000  0.5531540000000 1.0
C      1  0.5810440000000  0.5436050000000  0.6857490000000 1.0
C      1  0.4089410000000  0.5431610000000  0.6811520000000 1.0
C      1  0.3043690000000  0.5436670000000  0.5443820000000 1.0
C      1  0.4171160000000  0.4961070000000  0.3244470000000 1.0
C      1  0.5876340000000  0.4892710000000  0.3314010000000 1.0
C      1  0.6931890000000  0.4960450000000  0.4655060000000 1.0
C      1  0.6511080000000  0.5004460000000  0.6322440000000 1.0
C      1  0.4945500000000  0.4993700000000  0.7007580000000 1.0
C      1  0.3428750000000  0.4994050000000  0.6232580000000 1.0
C      1  0.3066570000000  0.5005230000000  0.4562470000000 1.0
C      1  0.3878740000000  0.2865590000000  0.5208200000000 1.0
C      1  0.3959760000000  0.2816940000000  0.4250810000000 1.0
C      1  0.4793460000000  0.2705580000000  0.3799540000000 1.0
C      1  0.6116660000000  0.2705280000000  0.4475620000000 1.0
C      1  0.6239520000000  0.2816430000000  0.5415640000000 1.0
C      1  0.5511190000000  0.2865220000000  0.6042290000000 1.0
C      1  0.4536470000000  0.2881940000000  0.5935450000000 1.0
C      1  0.3082390000000  0.6378910000000  0.5424460000000 1.0
C      1  0.3501170000000  0.6356440000000  0.3773730000000 1.0
C      1  0.5053060000000  0.6314330000000  0.3075700000000 1.0
C      1  0.6552360000000  0.6314000000000  0.3841780000000 1.0
C      1  0.6896070000000  0.6355690000000  0.5508360000000 1.0
C      1  0.5803790000000  0.6378300000000  0.6814960000000 1.0
C      1  0.4109880000000  0.6378010000000  0.6771870000000 1.0
C      1  0.4121430000000  0.7523850000000  0.5690260000000 1.0
C      1  0.3932720000000  0.7510740000000  0.4742680000000 1.0
C      1  0.4552490000000  0.7491870000000  0.3999910000000 1.0
C      1  0.5516210000000  0.7484650000000  0.4019960000000 1.0
C      1  0.6097160000000  0.7491530000000  0.4789160000000 1.0
C      1  0.5858420000000  0.7510310000000  0.5726620000000 1.0
C      1  0.4979980000000  0.7523660000000  0.6128940000000 1.0
C      1  0.4271780000000  0.6789490000000  0.3392020000000 1.0
C      1  0.5818780000000  0.6774430000000  0.3427490000000 1.0
C      1  0.6754000000000  0.6788940000000  0.4660310000000 1.0
C      1  0.6373800000000  0.6822240000000  0.6173260000000 1.0
C      1  0.4957360000000  0.6837080000000  0.6816160000000 1.0
C      1  0.3577560000000  0.6837380000000  0.6111140000000 1.0
C      1  0.3268550000000  0.6822940000000  0.4586630000000 1.0
C      1  0.4956250000000  0.4054670000000  0.6931770000000 1.0
C      1  0.3483560000000  0.4055000000000  0.6179290000000 1.0
C      1  0.3095380000000  0.4073300000000  0.4569080000000 1.0
C      1  0.4176870000000  0.4031080000000  0.3303120000000 1.0
C      1  0.5830050000000  0.3948330000000  0.3404220000000 1.0
C      1  0.6880690000000  0.4030470000000  0.4684640000000 1.0
C      1  0.6488530000000  0.4072530000000  0.6302800000000 1.0
C      1  0.5068190000000  0.4050200000000  0.4895380000000 1.0
C      1  0.4977860000000  0.4852730000000  0.5072430000000 1.0
C      1  0.4998340000000  0.5678770000000  0.5032710000000 1.0
C      1  0.5401710000000  0.2221200000000  0.4241780000000 1.0
END
