TITL C-2159255-4746-529 -0.00185676927073744 3375 -397.5405386667 0 0 60 (C3) n - 1
REM
REM in /scratch/bkarasulu/871
REM
REM
REM
REM
REM
REM ./C.cell (a2850807a9bf4ad07a5b6933b78d9264)
REM AIRSS Version 0.9.1 bugfix July 2018 build 013d7b7c2542+ Fri, 06 Jul 2018 19:26:36 +0100
REM compiler GCC version 9.2.1 20190827 (Red Hat 9.2.1-1)
REM options -cpp -mtune=generic -march=x86-64 -g -O0 -fpre-include=/usr/include/finclude/math-vector-fortran.h
REM seed -741150618 380203994 418201248 1108683315 523423590 1735867419 -924832573 74565427 -605977083 271689175 -1566820930 699906210 2119460632 -742385185 1507350357 1010683217 -94364787 -1615854865 -1141496315 -96040147 1393399174 -1259343709 -1616382999 -549169733 -718579028 1540530062 743697624 -1165492495 482865392 -353089069 -497115614 167038996 -886731704
REM
CELL 1.54180   15.00000   15.00000   15.00000   90.00000   90.00000   90.00000
LATT -1
SFAC C  
C      1  0.3378240000000  0.5471910000000  0.6515290000000 1.0
C      1  0.5402230000000  0.3359520000000  0.6515260000000 1.0
C      1  0.6219600000000  0.6168560000000  0.6515240000000 1.0
C      1  0.3378240000000  0.4528090000000  0.6515290000000 1.0
C      1  0.5402230000000  0.6640480000000  0.6515260000000 1.0
C      1  0.6219600000000  0.3831440000000  0.6515240000000 1.0
C      1  0.4178440000000  0.5490980000000  0.7064890000000 1.0
C      1  0.4985630000000  0.4042980000000  0.7064870000000 1.0
C      1  0.5836030000000  0.5466030000000  0.7064860000000 1.0
C      1  0.4178440000000  0.4509020000000  0.7064890000000 1.0
C      1  0.4985630000000  0.5957020000000  0.7064870000000 1.0
C      1  0.5836030000000  0.4533970000000  0.7064860000000 1.0
C      1  0.4745090000000  0.6418010000000  0.4216820000000 1.0
C      1  0.3899420000000  0.4070250000000  0.4216820000000 1.0
C      1  0.6355460000000  0.4511750000000  0.4216790000000 1.0
C      1  0.4745090000000  0.3581990000000  0.4216820000000 1.0
C      1  0.3899420000000  0.5929750000000  0.4216820000000 1.0
C      1  0.6355460000000  0.5488250000000  0.4216790000000 1.0
C      1  0.4163750000000  0.7288710000000  0.5723440000000 1.0
C      1  0.3436130000000  0.3131440000000  0.5723460000000 1.0
C      1  0.7400200000000  0.4579890000000  0.5723390000000 1.0
C      1  0.4163750000000  0.2711290000000  0.5723440000000 1.0
C      1  0.3436130000000  0.6868560000000  0.5723460000000 1.0
C      1  0.7400200000000  0.5420110000000  0.5723390000000 1.0
C      1  0.5528390000000  0.3116450000000  0.3288800000000 1.0
C      1  0.6366940000000  0.6399410000000  0.3288790000000 1.0
C      1  0.3104560000000  0.5484140000000  0.3288830000000 1.0
C      1  0.5528390000000  0.6883550000000  0.3288800000000 1.0
C      1  0.6366940000000  0.3600590000000  0.3288790000000 1.0
C      1  0.3104560000000  0.4515860000000  0.3288830000000 1.0
C      1  0.5750410000000  0.7217930000000  0.4978360000000 1.0
C      1  0.2704030000000  0.4540930000000  0.4978410000000 1.0
C      1  0.6545540000000  0.3241170000000  0.4978350000000 1.0
C      1  0.5750410000000  0.2782070000000  0.4978360000000 1.0
C      1  0.2704030000000  0.5459070000000  0.4978410000000 1.0
C      1  0.6545540000000  0.6758830000000  0.4978350000000 1.0
C      1  0.5255730000000  0.7234570000000  0.4133790000000 1.0
C      1  0.2936940000000  0.4104220000000  0.4133830000000 1.0
C      1  0.6807270000000  0.3661230000000  0.4133770000000 1.0
C      1  0.5255730000000  0.2765430000000  0.4133790000000 1.0
C      1  0.2936940000000  0.5895780000000  0.4133830000000 1.0
C      1  0.6807270000000  0.6338770000000  0.4133770000000 1.0
C      1  0.5011150000000  0.3992680000000  0.5101910000000 1.0
C      1  0.5866780000000  0.5513310000000  0.5101890000000 1.0
C      1  0.4122080000000  0.5494000000000  0.5101920000000 1.0
C      1  0.5011150000000  0.6007320000000  0.5101910000000 1.0
C      1  0.5866780000000  0.4486690000000  0.5101890000000 1.0
C      1  0.4122080000000  0.4506000000000  0.5101920000000 1.0
C      1  0.5005120000000  0.6005180000000  0.3314170000000 1.0
C      1  0.4126890000000  0.4501870000000  0.3314180000000 1.0
C      1  0.5867900000000  0.4492950000000  0.3314150000000 1.0
C      1  0.5005120000000  0.3994820000000  0.3314170000000 1.0
C      1  0.4126890000000  0.5498130000000  0.3314180000000 1.0
C      1  0.5867900000000  0.5507050000000  0.3314150000000 1.0
C      1  0.5075860000000  0.3105640000000  0.5662570000000 1.0
C      1  0.6602630000000  0.6012850000000  0.5662550000000 1.0
C      1  0.3321560000000  0.5881490000000  0.5662600000000 1.0
C      1  0.5075860000000  0.6894360000000  0.5662570000000 1.0
C      1  0.6602630000000  0.3987150000000  0.5662550000000 1.0
C      1  0.3321560000000  0.4118510000000  0.5662600000000 1.0
END
