TITL C-2159255-4746-523 -0.00177002363877919 3375 -406.951639708041 0 0 60 (C2) n - 1
REM
REM in /scratch/bkarasulu/871
REM
REM
REM
REM
REM
REM ./C.cell (a2850807a9bf4ad07a5b6933b78d9264)
REM AIRSS Version 0.9.1 bugfix July 2018 build 013d7b7c2542+ Fri, 06 Jul 2018 19:26:36 +0100
REM compiler GCC version 9.2.1 20190827 (Red Hat 9.2.1-1)
REM options -cpp -mtune=generic -march=x86-64 -g -O0 -fpre-include=/usr/include/finclude/math-vector-fortran.h
REM seed 1028278112 1188703326 -323884491 426701318 -2044238016 -1558216119 418655387 -978860899 -460498343 161789192 -1218332414 -1388050769 -1132020279 -844337267 991497153 1801048716 501670615 -117979973 -697884045 202389882 1116428185 1087833415 -432634161 -1068757480 1879029821 -309470223 1107944740 115246439 1696960975 1054681711 1005306359 544674292 -2034682243
REM
CELL 1.54180   15.00000   15.00000   15.00000   90.00000   90.00000   90.00000
LATT -1
SFAC C  
C      1  0.5366520000000  0.4322000000000  0.5122510000000 1.0
C      1  0.5366520000000  0.5678000000000  0.4877490000000 1.0
C      1  0.6717600000000  0.6179680000000  0.3533940000000 1.0
C      1  0.6717600000000  0.3820320000000  0.6466060000000 1.0
C      1  0.5066030000000  0.4937110000000  0.3425430000000 1.0
C      1  0.5066030000000  0.5062890000000  0.6574570000000 1.0
C      1  0.5340120000000  0.3097330000000  0.6117910000000 1.0
C      1  0.5340120000000  0.6902670000000  0.3882090000000 1.0
C      1  0.5814840000000  0.3571560000000  0.6793020000000 1.0
C      1  0.5814840000000  0.6428440000000  0.3206980000000 1.0
C      1  0.5944270000000  0.3125600000000  0.4256150000000 1.0
C      1  0.5944270000000  0.6874400000000  0.5743850000000 1.0
C      1  0.4418900000000  0.3082610000000  0.6169410000000 1.0
C      1  0.4418900000000  0.6917390000000  0.3830590000000 1.0
C      1  0.5643710000000  0.4871070000000  0.4291960000000 1.0
C      1  0.5643710000000  0.5128930000000  0.5708040000000 1.0
C      1  0.3798830000000  0.3815220000000  0.6406370000000 1.0
C      1  0.3798830000000  0.6184780000000  0.3593630000000 1.0
C      1  0.4972950000000  0.6001530000000  0.6841330000000 1.0
C      1  0.4972950000000  0.3998470000000  0.3158670000000 1.0
C      1  0.7291990000000  0.4702330000000  0.4656420000000 1.0
C      1  0.7291990000000  0.5297670000000  0.5343580000000 1.0
C      1  0.5798900000000  0.6648620000000  0.4743850000000 1.0
C      1  0.5798900000000  0.3351380000000  0.5256150000000 1.0
C      1  0.5692350000000  0.5519890000000  0.2911690000000 1.0
C      1  0.5692350000000  0.4480110000000  0.7088310000000 1.0
C      1  0.4037540000000  0.6251410000000  0.6684360000000 1.0
C      1  0.4037540000000  0.3748590000000  0.3315640000000 1.0
C      1  0.3159630000000  0.3498740000000  0.5737320000000 1.0
C      1  0.3159630000000  0.6501260000000  0.4262680000000 1.0
C      1  0.2765750000000  0.4380220000000  0.4222690000000 1.0
C      1  0.2765750000000  0.5619780000000  0.5777310000000 1.0
C      1  0.4384970000000  0.4556970000000  0.5219840000000 1.0
C      1  0.4384970000000  0.5443030000000  0.4780160000000 1.0
C      1  0.4125610000000  0.4734810000000  0.6271950000000 1.0
C      1  0.4125610000000  0.5265190000000  0.3728050000000 1.0
C      1  0.6612200000000  0.4712030000000  0.6816180000000 1.0
C      1  0.6612200000000  0.5287970000000  0.3183820000000 1.0
C      1  0.3825030000000  0.2858790000000  0.5434070000000 1.0
C      1  0.3825030000000  0.7141210000000  0.4565930000000 1.0
C      1  0.6571070000000  0.4630150000000  0.3908730000000 1.0
C      1  0.6571070000000  0.5369850000000  0.6091270000000 1.0
C      1  0.5255380000000  0.3202410000000  0.3643560000000 1.0
C      1  0.5255380000000  0.6797590000000  0.6356440000000 1.0
C      1  0.7232470000000  0.6222350000000  0.5177220000000 1.0
C      1  0.7232470000000  0.3777650000000  0.4822780000000 1.0
C      1  0.6697100000000  0.3635660000000  0.4019440000000 1.0
C      1  0.6697100000000  0.6364340000000  0.5980560000000 1.0
C      1  0.3514390000000  0.5530360000000  0.6366400000000 1.0
C      1  0.3514390000000  0.4469640000000  0.3633600000000 1.0
C      1  0.6723740000000  0.3534090000000  0.5570000000000 1.0
C      1  0.6723740000000  0.6465910000000  0.4430000000000 1.0
C      1  0.3963700000000  0.7345050000000  0.5428920000000 1.0
C      1  0.3963700000000  0.2654950000000  0.4571080000000 1.0
C      1  0.2306640000000  0.5177150000000  0.4521760000000 1.0
C      1  0.2306640000000  0.4822850000000  0.5478240000000 1.0
C      1  0.2635760000000  0.6014820000000  0.4848210000000 1.0
C      1  0.2635760000000  0.3985180000000  0.5151790000000 1.0
C      1  0.4322010000000  0.7061320000000  0.6194960000000 1.0
C      1  0.4322010000000  0.2938680000000  0.3805040000000 1.0
END
