TITL C-2158988-7926-748 -0.00171014472632885 3375 -406.841129781659 0 0 60 (C2) n - 1
REM
REM in /scratch/bkarasulu/868
REM
REM
REM
REM
REM
REM ./C.cell (a2850807a9bf4ad07a5b6933b78d9264)
REM AIRSS Version 0.9.1 bugfix July 2018 build 013d7b7c2542+ Fri, 06 Jul 2018 19:26:36 +0100
REM compiler GCC version 9.2.1 20190827 (Red Hat 9.2.1-1)
REM options -cpp -mtune=generic -march=x86-64 -g -O0 -fpre-include=/usr/include/finclude/math-vector-fortran.h
REM seed 408594219 -61504963 1523586655 267502877 641668542 1625005544 1950550560 -352121771 590147755 1450201005 626026383 108354798 1706864441 1805722487 -2080655936 523107785 76843423 427863716 1674556997 -539732423 236936628 1640947406 582298572 -1447869115 -1287039876 -424149938 1479550601 2144358786 195753692 774898020 -628476612 1782255766 -1760126794
REM
CELL 1.54180   15.00000   15.00000   15.00000   90.00000   90.00000   90.00000
LATT -1
SFAC C  
C      1  0.4159760000000  0.5991030000000  0.3098090000000 1.0
C      1  0.4159760000000  0.4008970000000  0.6901910000000 1.0
C      1  0.7185340000000  0.4524020000000  0.4945710000000 1.0
C      1  0.7185340000000  0.5475980000000  0.5054290000000 1.0
C      1  0.6277230000000  0.6219210000000  0.6135170000000 1.0
C      1  0.6277230000000  0.3780790000000  0.3864830000000 1.0
C      1  0.3393220000000  0.6666530000000  0.5350250000000 1.0
C      1  0.3393220000000  0.3333470000000  0.4649750000000 1.0
C      1  0.5194490000000  0.5090750000000  0.6964070000000 1.0
C      1  0.5194490000000  0.4909250000000  0.3035930000000 1.0
C      1  0.4928780000000  0.3156030000000  0.4126260000000 1.0
C      1  0.4928780000000  0.6843970000000  0.5873740000000 1.0
C      1  0.4882790000000  0.4114480000000  0.4359600000000 1.0
C      1  0.4882790000000  0.5885520000000  0.5640400000000 1.0
C      1  0.4230320000000  0.4950780000000  0.7016380000000 1.0
C      1  0.4230320000000  0.5049220000000  0.2983620000000 1.0
C      1  0.5686630000000  0.4271790000000  0.7002190000000 1.0
C      1  0.5686630000000  0.5728210000000  0.2997810000000 1.0
C      1  0.5031940000000  0.3617630000000  0.6784790000000 1.0
C      1  0.5031940000000  0.6382370000000  0.3215210000000 1.0
C      1  0.3090590000000  0.5935870000000  0.5839640000000 1.0
C      1  0.3090590000000  0.4064130000000  0.4160360000000 1.0
C      1  0.5130190000000  0.6688900000000  0.4151520000000 1.0
C      1  0.5130190000000  0.3311100000000  0.5848480000000 1.0
C      1  0.6541730000000  0.4060640000000  0.5617740000000 1.0
C      1  0.6541730000000  0.5939360000000  0.4382260000000 1.0
C      1  0.6617450000000  0.5694020000000  0.3418940000000 1.0
C      1  0.6617450000000  0.4305980000000  0.6581060000000 1.0
C      1  0.5876470000000  0.2995440000000  0.4251820000000 1.0
C      1  0.5876470000000  0.7004560000000  0.5748180000000 1.0
C      1  0.5594050000000  0.4477040000000  0.3839510000000 1.0
C      1  0.5594050000000  0.5522960000000  0.6160490000000 1.0
C      1  0.2653390000000  0.5135620000000  0.5448240000000 1.0
C      1  0.2653390000000  0.4864380000000  0.4551760000000 1.0
C      1  0.5818490000000  0.4744280000000  0.5441930000000 1.0
C      1  0.5818490000000  0.5255720000000  0.4558070000000 1.0
C      1  0.6251460000000  0.2448850000000  0.4924840000000 1.0
C      1  0.6251460000000  0.7551150000000  0.5075160000000 1.0
C      1  0.3411040000000  0.3822190000000  0.6348620000000 1.0
C      1  0.3411040000000  0.6177810000000  0.3651380000000 1.0
C      1  0.3526630000000  0.6737940000000  0.4379610000000 1.0
C      1  0.3526630000000  0.3262060000000  0.5620390000000 1.0
C      1  0.5005180000000  0.5763830000000  0.4643270000000 1.0
C      1  0.5005180000000  0.4236170000000  0.5356730000000 1.0
C      1  0.7137430000000  0.4968360000000  0.3430190000000 1.0
C      1  0.7137430000000  0.5031640000000  0.6569810000000 1.0
C      1  0.4302690000000  0.5076810000000  0.4524760000000 1.0
C      1  0.4302690000000  0.4923190000000  0.5475240000000 1.0
C      1  0.4366670000000  0.2803360000000  0.5506600000000 1.0
C      1  0.4366670000000  0.7196640000000  0.4493400000000 1.0
C      1  0.7085910000000  0.5722110000000  0.5955730000000 1.0
C      1  0.7085910000000  0.4277890000000  0.4044270000000 1.0
C      1  0.6062070000000  0.3158740000000  0.5510070000000 1.0
C      1  0.6062070000000  0.6841260000000  0.4489930000000 1.0
C      1  0.4220130000000  0.2785570000000  0.4555370000000 1.0
C      1  0.4220130000000  0.7214430000000  0.5444630000000 1.0
C      1  0.3421830000000  0.5356970000000  0.6603200000000 1.0
C      1  0.3421830000000  0.4643030000000  0.3396800000000 1.0
C      1  0.2916100000000  0.5384060000000  0.3783760000000 1.0
C      1  0.2916100000000  0.4615940000000  0.6216240000000 1.0
END
