TITL C-2158988-7926-50 -0.00202606709977453 3375 -400.766072465507 0 0 60 (Cs) n - 1
REM
REM in /scratch/bkarasulu/868
REM
REM
REM
REM
REM
REM ./C.cell (a2850807a9bf4ad07a5b6933b78d9264)
REM AIRSS Version 0.9.1 bugfix July 2018 build 013d7b7c2542+ Fri, 06 Jul 2018 19:26:36 +0100
REM compiler GCC version 9.2.1 20190827 (Red Hat 9.2.1-1)
REM options -cpp -mtune=generic -march=x86-64 -g -O0 -fpre-include=/usr/include/finclude/math-vector-fortran.h
REM seed -1407341019 1896698206 -1868466516 1534104430 1592322315 -1601767065 -1978923114 1917661653 -1819230124 1846862978 1426350686 527997787 -613798970 1002151913 -1607732589 -331977233 -650725415 -245587672 -390518926 -129492838 -107946326 2033644191 154616207 -1612137886 468336109 -1991964692 -1070776004 -1334319685 1086789920 -202095061 862609258 -335545860 -1827625992
REM
CELL 1.54180   15.00000   15.00000   15.00000   90.00000   90.00000   90.00000
LATT -1
SFAC C  
C      1  0.5382600000000  0.3016860000000  0.3370900000000 1.0
C      1  0.6706330000000  0.4120390000000  0.3454480000000 1.0
C      1  0.6778710000000  0.5860040000000  0.3458630000000 1.0
C      1  0.5355800000000  0.6863530000000  0.3455730000000 1.0
C      1  0.3673970000000  0.6487410000000  0.3372490000000 1.0
C      1  0.3013780000000  0.4943970000000  0.3270480000000 1.0
C      1  0.3756750000000  0.3434930000000  0.3269770000000 1.0
C      1  0.3487940000000  0.3134890000000  0.5056860000000 1.0
C      1  0.5423860000000  0.2463310000000  0.5123180000000 1.0
C      1  0.7307190000000  0.3995050000000  0.5194280000000 1.0
C      1  0.6959150000000  0.5948050000000  0.5236380000000 1.0
C      1  0.5623420000000  0.7414860000000  0.5195840000000 1.0
C      1  0.3261120000000  0.6856350000000  0.5125200000000 1.0
C      1  0.2612720000000  0.4912510000000  0.5057690000000 1.0
C      1  0.3613450000000  0.6528280000000  0.4367220000000 1.0
C      1  0.2967880000000  0.4919790000000  0.4254100000000 1.0
C      1  0.3709960000000  0.3412540000000  0.4253390000000 1.0
C      1  0.5378450000000  0.2943190000000  0.4365590000000 1.0
C      1  0.6825340000000  0.4149200000000  0.4448420000000 1.0
C      1  0.6734970000000  0.5838060000000  0.4394750000000 1.0
C      1  0.5451550000000  0.6939510000000  0.4449680000000 1.0
C      1  0.5608350000000  0.6038180000000  0.7262900000000 1.0
C      1  0.4655350000000  0.6129150000000  0.7092980000000 1.0
C      1  0.3962030000000  0.5458490000000  0.7044360000000 1.0
C      1  0.3993100000000  0.4486940000000  0.7032110000000 1.0
C      1  0.4744160000000  0.3869850000000  0.7043630000000 1.0
C      1  0.5698500000000  0.4010340000000  0.7091990000000 1.0
C      1  0.6207610000000  0.4821000000000  0.7262340000000 1.0
C      1  0.4332310000000  0.4157520000000  0.4521240000000 1.0
C      1  0.5193340000000  0.3920970000000  0.4537000000000 1.0
C      1  0.5883960000000  0.4493570000000  0.4562690000000 1.0
C      1  0.5822260000000  0.5388630000000  0.4542040000000 1.0
C      1  0.5150510000000  0.5983330000000  0.4563390000000 1.0
C      1  0.4275540000000  0.5785180000000  0.4537860000000 1.0
C      1  0.3937930000000  0.4958540000000  0.4521610000000 1.0
C      1  0.5423290000000  0.2930200000000  0.5947730000000 1.0
C      1  0.6880750000000  0.4090960000000  0.6032850000000 1.0
C      1  0.6746450000000  0.5842940000000  0.6101230000000 1.0
C      1  0.5439760000000  0.7017780000000  0.6034200000000 1.0
C      1  0.3631050000000  0.6570550000000  0.5949410000000 1.0
C      1  0.2953420000000  0.4944870000000  0.5906240000000 1.0
C      1  0.3721640000000  0.3384540000000  0.5905520000000 1.0
C      1  0.6789900000000  0.4942510000000  0.6513260000000 1.0
C      1  0.6059460000000  0.6426140000000  0.6513940000000 1.0
C      1  0.4534850000000  0.6744810000000  0.6386310000000 1.0
C      1  0.3343230000000  0.5733510000000  0.6361440000000 1.0
C      1  0.3383440000000  0.4187090000000  0.6354400000000 1.0
C      1  0.4584550000000  0.3212220000000  0.6360280000000 1.0
C      1  0.6112710000000  0.3539950000000  0.6384820000000 1.0
C      1  0.6582700000000  0.4983480000000  0.3056000000000 1.0
C      1  0.5964320000000  0.6239520000000  0.3056580000000 1.0
C      1  0.4504170000000  0.6809720000000  0.3113150000000 1.0
C      1  0.3201810000000  0.5798580000000  0.2943720000000 1.0
C      1  0.3255150000000  0.4125570000000  0.2894780000000 1.0
C      1  0.4548600000000  0.3063040000000  0.2942440000000 1.0
C      1  0.6144210000000  0.3478480000000  0.3111670000000 1.0
C      1  0.4887080000000  0.4928960000000  0.3023510000000 1.0
C      1  0.5261710000000  0.5112020000000  0.5941510000000 1.0
C      1  0.5652660000000  0.5305950000000  0.2802070000000 1.0
C      1  0.6040590000000  0.5494600000000  0.7855710000000 1.0
END
