TITL C-2158984-8299-848 -0.0018700075506639 3375 -404.232287879055 0 0 60 (Cs) n - 1
REM
REM in /scratch/bkarasulu/869
REM
REM
REM
REM
REM
REM ./C.cell (a2850807a9bf4ad07a5b6933b78d9264)
REM AIRSS Version 0.9.1 bugfix July 2018 build 013d7b7c2542+ Fri, 06 Jul 2018 19:26:36 +0100
REM compiler GCC version 9.2.1 20190827 (Red Hat 9.2.1-1)
REM options -cpp -mtune=generic -march=x86-64 -g -O0 -fpre-include=/usr/include/finclude/math-vector-fortran.h
REM seed 1058831549 -1539815833 410922889 -840263772 -870783921 661249568 -1860532872 -2064722531 13557738 -138881280 -1947529120 -1938523068 -373216437 1482648726 -1370753008 1326185170 290879990 -1197335468 -193743104 352018974 -195583589 -1965868386 -1958868337 1117599298 562843747 -183533556 -2087850712 -1763355746 -106099704 -825157582 -417911857 1135143982 -235333773
REM
CELL 1.54180   15.00000   15.00000   15.00000   90.00000   90.00000   90.00000
LATT -1
SFAC C  
C      1  0.4507410000000  0.7360610000000  0.4613390000000 1.0
C      1  0.5492590000000  0.7360610000000  0.4613390000000 1.0
C      1  0.4500960000000  0.5305170000000  0.4826820000000 1.0
C      1  0.5499040000000  0.5305170000000  0.4826820000000 1.0
C      1  0.6882330000000  0.4281970000000  0.3297550000000 1.0
C      1  0.3117670000000  0.4281970000000  0.3297550000000 1.0
C      1  0.6949510000000  0.6088060000000  0.4537690000000 1.0
C      1  0.3050490000000  0.6088060000000  0.4537690000000 1.0
C      1  0.7044740000000  0.6052940000000  0.6062280000000 1.0
C      1  0.2955260000000  0.6052940000000  0.6062280000000 1.0
C      1  0.4119940000000  0.2598210000000  0.5262100000000 1.0
C      1  0.5880060000000  0.2598210000000  0.5262100000000 1.0
C      1  0.6833180000000  0.5184680000000  0.6204980000000 1.0
C      1  0.3166820000000  0.5184680000000  0.6204980000000 1.0
C      1  0.5882630000000  0.3713550000000  0.7487700000000 1.0
C      1  0.4117370000000  0.3713550000000  0.7487700000000 1.0
C      1  0.4031300000000  0.4124080000000  0.3261270000000 1.0
C      1  0.5968700000000  0.4124080000000  0.3261270000000 1.0
C      1  0.4017000000000  0.7092720000000  0.5412710000000 1.0
C      1  0.5983000000000  0.7092720000000  0.5412710000000 1.0
C      1  0.5510060000000  0.3776830000000  0.4095500000000 1.0
C      1  0.4489940000000  0.3776830000000  0.4095500000000 1.0
C      1  0.4154710000000  0.4351960000000  0.4853520000000 1.0
C      1  0.5845290000000  0.4351960000000  0.4853520000000 1.0
C      1  0.2508320000000  0.5311570000000  0.4614640000000 1.0
C      1  0.7491680000000  0.5311570000000  0.4614640000000 1.0
C      1  0.4502510000000  0.4108870000000  0.5724020000000 1.0
C      1  0.5497490000000  0.4108870000000  0.5724020000000 1.0
C      1  0.4515740000000  0.2844480000000  0.4484150000000 1.0
C      1  0.5484260000000  0.2844480000000  0.4484150000000 1.0
C      1  0.6832190000000  0.6596160000000  0.5336240000000 1.0
C      1  0.3167810000000  0.6596160000000  0.5336240000000 1.0
C      1  0.3915780000000  0.5905180000000  0.4126280000000 1.0
C      1  0.6084220000000  0.5905180000000  0.4126280000000 1.0
C      1  0.4533060000000  0.6553120000000  0.3066130000000 1.0
C      1  0.5466940000000  0.6553120000000  0.3066130000000 1.0
C      1  0.7215420000000  0.4550570000000  0.4058040000000 1.0
C      1  0.2784580000000  0.4550570000000  0.4058040000000 1.0
C      1  0.4108800000000  0.4851440000000  0.6363360000000 1.0
C      1  0.5891200000000  0.4851440000000  0.6363360000000 1.0
C      1  0.2693970000000  0.4849590000000  0.5449010000000 1.0
C      1  0.7306030000000  0.4849590000000  0.5449010000000 1.0
C      1  0.4527150000000  0.4856020000000  0.2896090000000 1.0
C      1  0.5472850000000  0.4856020000000  0.2896090000000 1.0
C      1  0.4171340000000  0.6873190000000  0.3891260000000 1.0
C      1  0.5828660000000  0.6873190000000  0.3891260000000 1.0
C      1  0.3181390000000  0.4231670000000  0.4889400000000 1.0
C      1  0.6818610000000  0.4231670000000  0.4889400000000 1.0
C      1  0.5475500000000  0.6586220000000  0.6010210000000 1.0
C      1  0.4524500000000  0.6586220000000  0.6010210000000 1.0
C      1  0.4528970000000  0.4534410000000  0.7201940000000 1.0
C      1  0.5471030000000  0.4534410000000  0.7201940000000 1.0
C      1  0.4440870000000  0.3086950000000  0.6024560000000 1.0
C      1  0.5559130000000  0.3086950000000  0.6024560000000 1.0
C      1  0.5925180000000  0.3060980000000  0.6942030000000 1.0
C      1  0.4074820000000  0.3060980000000  0.6942030000000 1.0
C      1  0.4493170000000  0.5586470000000  0.5845830000000 1.0
C      1  0.5506830000000  0.5586470000000  0.5845830000000 1.0
C      1  0.4118620000000  0.5682330000000  0.3161320000000 1.0
C      1  0.5881380000000  0.5682330000000  0.3161320000000 1.0
END
