TITL C-2158988-7926-283 -0.0023653944981117 3375 -413.151180072383 0 0 60 (Cs) n - 1
REM
REM in /scratch/bkarasulu/868
REM
REM
REM
REM
REM
REM ./C.cell (a2850807a9bf4ad07a5b6933b78d9264)
REM AIRSS Version 0.9.1 bugfix July 2018 build 013d7b7c2542+ Fri, 06 Jul 2018 19:26:36 +0100
REM compiler GCC version 9.2.1 20190827 (Red Hat 9.2.1-1)
REM options -cpp -mtune=generic -march=x86-64 -g -O0 -fpre-include=/usr/include/finclude/math-vector-fortran.h
REM seed -1540026135 -165232847 1874361526 -1187669310 2047216412 2100307183 1636178667 1998299854 -1132315743 -814700393 1349093244 -1629373104 -176005926 -419944066 1221161863 -671366623 -1977375809 -1467063568 2146377925 1502999886 1338757507 334239123 556663341 1470176088 739641630 -1300144333 700291898 -785413257 1318828446 -1155272572 326521164 -154921563 -1745243893
REM
CELL 1.54180   15.00000   15.00000   15.00000   90.00000   90.00000   90.00000
LATT -1
SFAC C  
C      1  0.5799220000000  0.4254290000000  0.3200000000000 1.0
C      1  0.6090020000000  0.5161990000000  0.3185610000000 1.0
C      1  0.5553490000000  0.5949780000000  0.3200130000000 1.0
C      1  0.4604550000000  0.6029740000000  0.3196400000000 1.0
C      1  0.3951810000000  0.5333140000000  0.3197390000000 1.0
C      1  0.4088390000000  0.4390810000000  0.3197320000000 1.0
C      1  0.4912040000000  0.3908200000000  0.3196230000000 1.0
C      1  0.6867110000000  0.4407370000000  0.5213900000000 1.0
C      1  0.6620940000000  0.6105870000000  0.5214030000000 1.0
C      1  0.5146280000000  0.6944170000000  0.5239260000000 1.0
C      1  0.3548390000000  0.6353860000000  0.5208620000000 1.0
C      1  0.3058320000000  0.4722420000000  0.5237410000000 1.0
C      1  0.3991400000000  0.3297240000000  0.5208400000000 1.0
C      1  0.5691120000000  0.3184900000000  0.5238970000000 1.0
C      1  0.3545390000000  0.4021520000000  0.6647820000000 1.0
C      1  0.4841870000000  0.3268870000000  0.6648490000000 1.0
C      1  0.6266070000000  0.3815930000000  0.6650720000000 1.0
C      1  0.6720730000000  0.5253130000000  0.6635740000000 1.0
C      1  0.5876740000000  0.6502110000000  0.6650920000000 1.0
C      1  0.4355830000000  0.6622300000000  0.6648730000000 1.0
C      1  0.3326380000000  0.5532540000000  0.6647930000000 1.0
C      1  0.3048350000000  0.5586590000000  0.4763280000000 1.0
C      1  0.3294100000000  0.3891040000000  0.4763160000000 1.0
C      1  0.4850720000000  0.2975800000000  0.4765510000000 1.0
C      1  0.6447190000000  0.3604180000000  0.4760210000000 1.0
C      1  0.7016470000000  0.5296140000000  0.4763400000000 1.0
C      1  0.5990270000000  0.6756870000000  0.4760450000000 1.0
C      1  0.4281080000000  0.6906120000000  0.4765800000000 1.0
C      1  0.5782280000000  0.4267310000000  0.7374110000000 1.0
C      1  0.6073480000000  0.5159270000000  0.7369620000000 1.0
C      1  0.5541020000000  0.5931850000000  0.7374240000000 1.0
C      1  0.4600460000000  0.6006230000000  0.7373750000000 1.0
C      1  0.3954010000000  0.5327900000000  0.7375030000000 1.0
C      1  0.4089100000000  0.4395830000000  0.7374960000000 1.0
C      1  0.4901540000000  0.3928950000000  0.7373600000000 1.0
C      1  0.6822980000000  0.4425650000000  0.6165720000000 1.0
C      1  0.6583820000000  0.6075670000000  0.6165850000000 1.0
C      1  0.5143380000000  0.6894750000000  0.6187980000000 1.0
C      1  0.3584100000000  0.6319620000000  0.6165570000000 1.0
C      1  0.3104710000000  0.4729070000000  0.6187370000000 1.0
C      1  0.4015940000000  0.3340070000000  0.6165360000000 1.0
C      1  0.5674340000000  0.3231320000000  0.6187700000000 1.0
C      1  0.6082350000000  0.7483750000000  0.3932690000000 1.0
C      1  0.4265850000000  0.7612150000000  0.3942490000000 1.0
C      1  0.2341890000000  0.5544860000000  0.3934190000000 1.0
C      1  0.2604880000000  0.3730610000000  0.3934050000000 1.0
C      1  0.5036490000000  0.2294630000000  0.3942090000000 1.0
C      1  0.6741820000000  0.2933470000000  0.3932340000000 1.0
C      1  0.7707930000000  0.5396400000000  0.3943460000000 1.0
C      1  0.4330940000000  0.6776150000000  0.3714330000000 1.0
C      1  0.3184400000000  0.5553360000000  0.3716300000000 1.0
C      1  0.3415130000000  0.3961660000000  0.3716180000000 1.0
C      1  0.4861580000000  0.3114740000000  0.3714050000000 1.0
C      1  0.6376410000000  0.3699610000000  0.3726720000000 1.0
C      1  0.6877530000000  0.5276080000000  0.3708540000000 1.0
C      1  0.5949470000000  0.6645430000000  0.3726940000000 1.0
C      1  0.4990500000000  0.5002400000000  0.6039230000000 1.0
C      1  0.4988430000000  0.5002170000000  0.5209150000000 1.0
C      1  0.5009860000000  0.5005340000000  0.4371950000000 1.0
C      1  0.4998250000000  0.5003840000000  0.2040210000000 1.0
END
