TITL C-2158984-8299-68 -0.160624600752554 3375 -401.459275638808 0 0 60 (C1) n - 1
REM
REM in /scratch/bkarasulu/869
REM
REM
REM
REM
REM
REM ./C.cell (a2850807a9bf4ad07a5b6933b78d9264)
REM AIRSS Version 0.9.1 bugfix July 2018 build 013d7b7c2542+ Fri, 06 Jul 2018 19:26:36 +0100
REM compiler GCC version 9.2.1 20190827 (Red Hat 9.2.1-1)
REM options -cpp -mtune=generic -march=x86-64 -g -O0 -fpre-include=/usr/include/finclude/math-vector-fortran.h
REM seed -1026671118 1209031552 2092631880 1926018761 443267063 577045642 -295524248 405250093 -1278883870 1877775539 -548617713 920003955 -758278703 816440155 858006705 2123214997 1463251039 -1486754478 1085632005 1399109545 472300856 719483462 -656736413 -1706124565 -1201199308 -159650652 -1422694645 83848430 -2093018111 -1040127338 554866896 699756653 834358035
REM
CELL 1.54180   15.00000   15.00000   15.00000   90.00000   90.00000   90.00000
LATT -1
SFAC C  
C      1  0.4456030000000  0.6219460000000  0.6942390000000 1.0
C      1  0.7146520000000  0.6010450000000  0.4364650000000 1.0
C      1  0.3360420000000  0.5475150000000  0.3188390000000 1.0
C      1  0.4437260000000  0.4035530000000  0.3282710000000 1.0
C      1  0.7198050000000  0.4609740000000  0.5528210000000 1.0
C      1  0.3817040000000  0.4474050000000  0.6565820000000 1.0
C      1  0.5353930000000  0.4108400000000  0.3404750000000 1.0
C      1  0.3234620000000  0.4188040000000  0.5938100000000 1.0
C      1  0.7153210000000  0.4512140000000  0.6427710000000 1.0
C      1  0.5348930000000  0.6260630000000  0.6958550000000 1.0
C      1  0.2621980000000  0.5509280000000  0.3669050000000 1.0
C      1  0.7130790000000  0.5868810000000  0.3489510000000 1.0
C      1  0.5594390000000  0.5663740000000  0.3451200000000 1.0
C      1  0.3427280000000  0.5751060000000  0.4962740000000 1.0
C      1  0.5703830000000  0.6138050000000  0.6061590000000 1.0
C      1  0.5612910000000  0.4442610000000  0.6555870000000 1.0
C      1  0.3401950000000  0.3530890000000  0.5347440000000 1.0
C      1  0.5955150000000  0.3500030000000  0.3792590000000 1.0
C      1  0.6456180000000  0.4239310000000  0.4186350000000 1.0
C      1  0.3530280000000  0.4047160000000  0.4561030000000 1.0
C      1  0.4945790000000  0.4253060000000  0.7228080000000 1.0
C      1  0.6616440000000  0.6187710000000  0.5653740000000 1.0
C      1  0.3549790000000  0.5897360000000  0.5916900000000 1.0
C      1  0.4741490000000  0.5551910000000  0.2924210000000 1.0
C      1  0.5639150000000  0.2978010000000  0.4506700000000 1.0
C      1  0.4152570000000  0.2964250000000  0.5493830000000 1.0
C      1  0.5535440000000  0.3585640000000  0.5972810000000 1.0
C      1  0.5251750000000  0.6804660000000  0.5419550000000 1.0
C      1  0.3996870000000  0.6559640000000  0.4690480000000 1.0
C      1  0.5338130000000  0.6531400000000  0.3942430000000 1.0
C      1  0.3917790000000  0.6701870000000  0.6277330000000 1.0
C      1  0.6667110000000  0.6713880000000  0.4848790000000 1.0
C      1  0.4062890000000  0.6177310000000  0.3125740000000 1.0
C      1  0.4087240000000  0.3531500000000  0.3999330000000 1.0
C      1  0.6786250000000  0.3943610000000  0.4995440000000 1.0
C      1  0.4317720000000  0.3714230000000  0.6915690000000 1.0
C      1  0.5823010000000  0.7031990000000  0.4627960000000 1.0
C      1  0.4378940000000  0.6743200000000  0.3803720000000 1.0
C      1  0.4298330000000  0.7089640000000  0.5497970000000 1.0
C      1  0.6149480000000  0.3262610000000  0.5292150000000 1.0
C      1  0.4696190000000  0.3092820000000  0.6270420000000 1.0
C      1  0.4673850000000  0.3082500000000  0.4649530000000 1.0
C      1  0.5206260000000  0.5195140000000  0.5942480000000 1.0
C      1  0.5623850000000  0.4872770000000  0.4078050000000 1.0
C      1  0.3932130000000  0.4938330000000  0.4732860000000 1.0
C      1  0.6471780000000  0.5280660000000  0.2027640000000 1.0
C      1  0.1727230000000  0.5455630000000  0.5121210000000 1.0
C      1  0.6609990000000  0.4953430000000  0.7923240000000 1.0
C      1  0.0965635000000  0.5330550000000  0.5487530000000 1.0
C      1  0.6628940000000  0.5054650000000  0.1207730000000 1.0
C      1  0.6793080000000  0.5182060000000  0.8732470000000 1.0
C      1  0.2481660000000  0.5586750000000  0.4597270000000 1.0
C      1  0.6455640000000  0.5602090000000  0.2898340000000 1.0
C      1  0.6507830000000  0.4645200000000  0.7043490000000 1.0
C      1  0.4214760000000  0.5345800000000  0.6402030000000 1.0
C      1  0.7147640000000  0.5501780000000  0.5223800000000 1.0
C      1  0.4091570000000  0.4836030000000  0.2949310000000 1.0
C      1  0.4982200000000  0.3923820000000  0.5218120000000 1.0
C      1  0.4909640000000  0.6084430000000  0.4795600000000 1.0
C      1  0.4955350000000  0.4997930000000  0.4928780000000 1.0
END
