TITL C-2158988-7926-559 -0.00351923107897822 3375 -408.864026011465 0 0 60 (Td) n - 1
REM
REM in /scratch/bkarasulu/868
REM
REM
REM
REM
REM
REM ./C.cell (a2850807a9bf4ad07a5b6933b78d9264)
REM AIRSS Version 0.9.1 bugfix July 2018 build 013d7b7c2542+ Fri, 06 Jul 2018 19:26:36 +0100
REM compiler GCC version 9.2.1 20190827 (Red Hat 9.2.1-1)
REM options -cpp -mtune=generic -march=x86-64 -g -O0 -fpre-include=/usr/include/finclude/math-vector-fortran.h
REM seed -1574149483 973226408 -513133430 -2057455503 -1668122678 -705618495 1782341030 -1686506126 208607516 -702198348 -932981790 374811909 -851475990 235080205 1452439815 -852920630 807460127 -1081598257 -1255988796 1264994287 -1885160686 209313510 1265284273 -1158184027 151831734 -765439760 -158234566 37800073 -412843598 433748413 -1386690121 341026290 656136892
REM
CELL 1.54180   15.00000   15.00000   15.00000   90.00000   90.00000   90.00000
LATT -1
SFAC C  
C      1  0.2682920000000  0.4589970000000  0.5983080000000 1.0
C      1  0.5983080000000  0.2682920000000  0.4589970000000 1.0
C      1  0.4589970000000  0.5983080000000  0.2682920000000 1.0
C      1  0.2682920000000  0.5410030000000  0.4016920000000 1.0
C      1  0.7317080000000  0.5410030000000  0.5983080000000 1.0
C      1  0.7317080000000  0.4589970000000  0.4016920000000 1.0
C      1  0.5983080000000  0.7317080000000  0.5410030000000 1.0
C      1  0.4016920000000  0.7317080000000  0.4589970000000 1.0
C      1  0.4016920000000  0.2682920000000  0.5410030000000 1.0
C      1  0.4589970000000  0.4016920000000  0.7317080000000 1.0
C      1  0.5410030000000  0.4016920000000  0.2682920000000 1.0
C      1  0.5410030000000  0.5983080000000  0.7317080000000 1.0
C      1  0.2682920000000  0.5983080000000  0.4589970000000 1.0
C      1  0.5983080000000  0.4589970000000  0.2682920000000 1.0
C      1  0.4589970000000  0.2682920000000  0.5983080000000 1.0
C      1  0.2682920000000  0.4016920000000  0.5410030000000 1.0
C      1  0.7317080000000  0.5983080000000  0.5410030000000 1.0
C      1  0.7317080000000  0.4016920000000  0.4589970000000 1.0
C      1  0.5983080000000  0.5410030000000  0.7317080000000 1.0
C      1  0.4016920000000  0.4589970000000  0.7317080000000 1.0
C      1  0.4016920000000  0.5410030000000  0.2682920000000 1.0
C      1  0.4589970000000  0.7317080000000  0.4016920000000 1.0
C      1  0.5410030000000  0.2682920000000  0.4016920000000 1.0
C      1  0.5410030000000  0.7317080000000  0.5983080000000 1.0
C      1  0.7208030000000  0.5351210000000  0.3475920000000 1.0
C      1  0.3475920000000  0.7208030000000  0.5351210000000 1.0
C      1  0.5351210000000  0.3475920000000  0.7208030000000 1.0
C      1  0.7208030000000  0.4648790000000  0.6524080000000 1.0
C      1  0.2791970000000  0.4648790000000  0.3475920000000 1.0
C      1  0.2791970000000  0.5351210000000  0.6524080000000 1.0
C      1  0.3475920000000  0.2791970000000  0.4648790000000 1.0
C      1  0.6524080000000  0.2791970000000  0.5351210000000 1.0
C      1  0.6524080000000  0.7208030000000  0.4648790000000 1.0
C      1  0.5351210000000  0.6524080000000  0.2791970000000 1.0
C      1  0.4648790000000  0.6524080000000  0.7208030000000 1.0
C      1  0.4648790000000  0.3475920000000  0.2791970000000 1.0
C      1  0.7208030000000  0.3475920000000  0.5351210000000 1.0
C      1  0.3475920000000  0.5351210000000  0.7208030000000 1.0
C      1  0.5351210000000  0.7208030000000  0.3475920000000 1.0
C      1  0.7208030000000  0.6524080000000  0.4648790000000 1.0
C      1  0.2791970000000  0.3475920000000  0.4648790000000 1.0
C      1  0.2791970000000  0.6524080000000  0.5351210000000 1.0
C      1  0.3475920000000  0.4648790000000  0.2791970000000 1.0
C      1  0.6524080000000  0.5351210000000  0.2791970000000 1.0
C      1  0.6524080000000  0.4648790000000  0.7208030000000 1.0
C      1  0.5351210000000  0.2791970000000  0.6524080000000 1.0
C      1  0.4648790000000  0.7208030000000  0.6524080000000 1.0
C      1  0.4648790000000  0.2791970000000  0.3475920000000 1.0
C      1  0.3855600000000  0.6144400000000  0.7438610000000 1.0
C      1  0.7438610000000  0.3855600000000  0.6144400000000 1.0
C      1  0.6144400000000  0.7438610000000  0.3855600000000 1.0
C      1  0.6144400000000  0.6144400000000  0.2561390000000 1.0
C      1  0.7438610000000  0.6144400000000  0.3855600000000 1.0
C      1  0.2561390000000  0.6144400000000  0.6144400000000 1.0
C      1  0.2561390000000  0.3855600000000  0.3855600000000 1.0
C      1  0.6144400000000  0.2561390000000  0.6144400000000 1.0
C      1  0.3855600000000  0.2561390000000  0.3855600000000 1.0
C      1  0.3855600000000  0.7438610000000  0.6144400000000 1.0
C      1  0.6144400000000  0.3855600000000  0.7438610000000 1.0
C      1  0.3855600000000  0.3855600000000  0.2561390000000 1.0
END
