TITL C-2158984-8299-102 -0.00219633570432366 3375 -421.848848539511 0 0 60 (C1) n - 1
REM
REM in /scratch/bkarasulu/869
REM
REM
REM
REM
REM
REM ./C.cell (a2850807a9bf4ad07a5b6933b78d9264)
REM AIRSS Version 0.9.1 bugfix July 2018 build 013d7b7c2542+ Fri, 06 Jul 2018 19:26:36 +0100
REM compiler GCC version 9.2.1 20190827 (Red Hat 9.2.1-1)
REM options -cpp -mtune=generic -march=x86-64 -g -O0 -fpre-include=/usr/include/finclude/math-vector-fortran.h
REM seed 479692002 -1583458751 -58633163 2042180126 -1523056656 -855947250 584968274 -1372652296 60678561 800344564 63719556 885928445 1095930131 -1811086685 1376098707 1291417518 288692120 463221008 929796731 888254451 741471225 -561108360 1922670084 613040544 -941937396 1411447572 1475348395 -89960039 -2091146337 2028599277 -60317482 -707510612 -252241227
REM
CELL 1.54180   15.00000   15.00000   15.00000   90.00000   90.00000   90.00000
LATT -1
SFAC C  
C      1  0.4970240000000  0.2753870000000  0.6304180000000 1.0
C      1  0.5294090000000  0.7037930000000  0.6367580000000 1.0
C      1  0.5724550000000  0.2839640000000  0.5171540000000 1.0
C      1  0.5794100000000  0.7281100000000  0.5108160000000 1.0
C      1  0.6906880000000  0.5635190000000  0.5074990000000 1.0
C      1  0.6886080000000  0.4677710000000  0.5149030000000 1.0
C      1  0.3144750000000  0.4214420000000  0.6180250000000 1.0
C      1  0.3293920000000  0.5750470000000  0.6244310000000 1.0
C      1  0.3883200000000  0.6472730000000  0.6243940000000 1.0
C      1  0.3630020000000  0.3418450000000  0.6093130000000 1.0
C      1  0.4554830000000  0.4066470000000  0.2550400000000 1.0
C      1  0.4342470000000  0.5637320000000  0.2666900000000 1.0
C      1  0.4360270000000  0.3320400000000  0.6718220000000 1.0
C      1  0.4687770000000  0.6437090000000  0.6783160000000 1.0
C      1  0.3157270000000  0.5848970000000  0.4586740000000 1.0
C      1  0.3071220000000  0.4309020000000  0.4489210000000 1.0
C      1  0.3563910000000  0.5117080000000  0.3115670000000 1.0
C      1  0.3726120000000  0.4210700000000  0.2867090000000 1.0
C      1  0.5909900000000  0.5801090000000  0.2827110000000 1.0
C      1  0.6043100000000  0.4274090000000  0.2850150000000 1.0
C      1  0.4082470000000  0.6909280000000  0.5388710000000 1.0
C      1  0.3903330000000  0.3052820000000  0.5213940000000 1.0
C      1  0.6192690000000  0.3781970000000  0.6529800000000 1.0
C      1  0.7065950000000  0.6896300000000  0.6237570000000 1.0
C      1  0.4904350000000  0.5614750000000  0.7215100000000 1.0
C      1  0.4688150000000  0.4047420000000  0.7233710000000 1.0
C      1  0.6206330000000  0.7031960000000  0.5974760000000 1.0
C      1  0.5872270000000  0.2988440000000  0.6132500000000 1.0
C      1  0.6643890000000  0.6107130000000  0.4290720000000 1.0
C      1  0.6624140000000  0.4128450000000  0.4405080000000 1.0
C      1  0.4814520000000  0.5849040000000  0.4394270000000 1.0
C      1  0.4688200000000  0.4106990000000  0.4357940000000 1.0
C      1  0.3931160000000  0.6378240000000  0.4614480000000 1.0
C      1  0.3761830000000  0.3649170000000  0.4439450000000 1.0
C      1  0.5200410000000  0.6619780000000  0.3823370000000 1.0
C      1  0.5289740000000  0.3403580000000  0.3866960000000 1.0
C      1  0.6517460000000  0.5559340000000  0.3548800000000 1.0
C      1  0.6554380000000  0.4604150000000  0.3592500000000 1.0
C      1  0.6687930000000  0.4484430000000  0.6075680000000 1.0
C      1  0.6852910000000  0.6021020000000  0.5965690000000 1.0
C      1  0.2886340000000  0.5515380000000  0.5424770000000 1.0
C      1  0.2815220000000  0.4577720000000  0.5365300000000 1.0
C      1  0.5771160000000  0.5179440000000  0.7143790000000 1.0
C      1  0.5625270000000  0.4229650000000  0.7168960000000 1.0
C      1  0.4762770000000  0.2638620000000  0.5359080000000 1.0
C      1  0.4917500000000  0.7326100000000  0.5505090000000 1.0
C      1  0.5997880000000  0.6848730000000  0.4312930000000 1.0
C      1  0.6050910000000  0.3319170000000  0.4437910000000 1.0
C      1  0.5089310000000  0.6279440000000  0.2960520000000 1.0
C      1  0.5324880000000  0.3660790000000  0.2976860000000 1.0
C      1  0.5235490000000  0.5731490000000  0.5279370000000 1.0
C      1  0.4870200000000  0.4248200000000  0.5368940000000 1.0
C      1  0.3450720000000  0.4952560000000  0.6739730000000 1.0
C      1  0.4883300000000  0.4965750000000  0.3903140000000 1.0
C      1  0.4246060000000  0.4899060000000  0.7240550000000 1.0
C      1  0.3157360000000  0.5125820000000  0.3960560000000 1.0
C      1  0.5717690000000  0.5016080000000  0.2360780000000 1.0
C      1  0.4789630000000  0.4933320000000  0.2197070000000 1.0
C      1  0.6514260000000  0.5299710000000  0.6530810000000 1.0
C      1  0.4811770000000  0.5052880000000  0.5690620000000 1.0
END
