TITL C-2159255-4746-1237 -0.00192731050089715 3375 -398.320233442165 0 0 60 (S4) n - 1
REM
REM in /scratch/bkarasulu/871
REM
REM
REM
REM
REM
REM ./C.cell (a2850807a9bf4ad07a5b6933b78d9264)
REM AIRSS Version 0.9.1 bugfix July 2018 build 013d7b7c2542+ Fri, 06 Jul 2018 19:26:36 +0100
REM compiler GCC version 9.2.1 20190827 (Red Hat 9.2.1-1)
REM options -cpp -mtune=generic -march=x86-64 -g -O0 -fpre-include=/usr/include/finclude/math-vector-fortran.h
REM seed -309908882 -1481065424 -1500689280 -541322481 1247352753 1760761407 -142460493 1096735231 65634731 488756753 -421607436 1641199919 928721755 319211607 -494069557 659795318 -388861769 -362211423 610981190 882270881 -2033755270 318940456 -1645329426 1202755902 647089294 1287608326 1450918919 -559946255 1231702407 1496546977 215421268 -644364223 -1718161733
REM
CELL 1.54180   15.00000   15.00000   15.00000   90.00000   90.00000   90.00000
LATT -1
SFAC C  
C      1  0.4536910000000  0.3445280000000  0.6369570000000 1.0
C      1  0.5463090000000  0.6369570000000  0.6554720000000 1.0
C      1  0.4536910000000  0.6554720000000  0.3630430000000 1.0
C      1  0.5463090000000  0.3630430000000  0.3445280000000 1.0
C      1  0.6908740000000  0.4505140000000  0.3832210000000 1.0
C      1  0.3091260000000  0.3832210000000  0.5494860000000 1.0
C      1  0.6908740000000  0.5494860000000  0.6167790000000 1.0
C      1  0.3091260000000  0.6167790000000  0.4505140000000 1.0
C      1  0.6372280000000  0.4860430000000  0.3114340000000 1.0
C      1  0.3627720000000  0.3114340000000  0.5139570000000 1.0
C      1  0.6372280000000  0.5139570000000  0.6885660000000 1.0
C      1  0.3627720000000  0.6885660000000  0.4860430000000 1.0
C      1  0.6439270000000  0.5303420000000  0.5356220000000 1.0
C      1  0.3560730000000  0.5356220000000  0.4696580000000 1.0
C      1  0.6439270000000  0.4696580000000  0.4643780000000 1.0
C      1  0.3560730000000  0.4643780000000  0.5303420000000 1.0
C      1  0.6919690000000  0.6470380000000  0.6093670000000 1.0
C      1  0.3080310000000  0.6093670000000  0.3529620000000 1.0
C      1  0.6919690000000  0.3529620000000  0.3906330000000 1.0
C      1  0.3080310000000  0.3906330000000  0.6470380000000 1.0
C      1  0.6186550000000  0.3024210000000  0.3606570000000 1.0
C      1  0.3813450000000  0.3606570000000  0.6975790000000 1.0
C      1  0.6186550000000  0.6975790000000  0.6393430000000 1.0
C      1  0.3813450000000  0.6393430000000  0.3024210000000 1.0
C      1  0.5037410000000  0.4934560000000  0.6152730000000 1.0
C      1  0.4962590000000  0.6152730000000  0.5065440000000 1.0
C      1  0.5037410000000  0.5065440000000  0.3847270000000 1.0
C      1  0.4962590000000  0.3847270000000  0.4934560000000 1.0
C      1  0.4299050000000  0.7254160000000  0.4263740000000 1.0
C      1  0.5700950000000  0.4263740000000  0.2745840000000 1.0
C      1  0.4299050000000  0.2745840000000  0.5736260000000 1.0
C      1  0.5700950000000  0.5736260000000  0.7254160000000 1.0
C      1  0.4440950000000  0.3368710000000  0.3472260000000 1.0
C      1  0.5559050000000  0.3472260000000  0.6631290000000 1.0
C      1  0.4440950000000  0.6631290000000  0.6527740000000 1.0
C      1  0.5559050000000  0.6527740000000  0.3368710000000 1.0
C      1  0.5699890000000  0.5585610000000  0.3204520000000 1.0
C      1  0.4300110000000  0.3204520000000  0.4414390000000 1.0
C      1  0.5699890000000  0.4414390000000  0.6795480000000 1.0
C      1  0.4300110000000  0.6795480000000  0.5585610000000 1.0
C      1  0.6538820000000  0.2872700000000  0.4481760000000 1.0
C      1  0.3461180000000  0.4481760000000  0.7127300000000 1.0
C      1  0.6538820000000  0.7127300000000  0.5518240000000 1.0
C      1  0.3461180000000  0.5518240000000  0.2872700000000 1.0
C      1  0.6070520000000  0.2911610000000  0.6145870000000 1.0
C      1  0.3929480000000  0.6145870000000  0.7088390000000 1.0
C      1  0.6070520000000  0.7088390000000  0.3854130000000 1.0
C      1  0.3929480000000  0.3854130000000  0.2911610000000 1.0
C      1  0.5500480000000  0.4321680000000  0.4302550000000 1.0
C      1  0.4499520000000  0.4302550000000  0.5678320000000 1.0
C      1  0.5500480000000  0.5678320000000  0.5697450000000 1.0
C      1  0.4499520000000  0.5697450000000  0.4321680000000 1.0
C      1  0.5033730000000  0.2806990000000  0.5071660000000 1.0
C      1  0.4966270000000  0.5071660000000  0.7193010000000 1.0
C      1  0.5033730000000  0.7193010000000  0.4928340000000 1.0
C      1  0.4966270000000  0.4928340000000  0.2806990000000 1.0
C      1  0.4006350000000  0.5246340000000  0.7333950000000 1.0
C      1  0.5993650000000  0.7333950000000  0.4753660000000 1.0
C      1  0.4006350000000  0.4753660000000  0.2666050000000 1.0
C      1  0.5993650000000  0.2666050000000  0.5246340000000 1.0
END
