TITL C-2158988-7926-96 -0.00147564847011239 3375 -409.790747736765 0 0 60 (Ci) n - 1
REM
REM in /scratch/bkarasulu/868
REM
REM
REM
REM
REM
REM ./C.cell (a2850807a9bf4ad07a5b6933b78d9264)
REM AIRSS Version 0.9.1 bugfix July 2018 build 013d7b7c2542+ Fri, 06 Jul 2018 19:26:36 +0100
REM compiler GCC version 9.2.1 20190827 (Red Hat 9.2.1-1)
REM options -cpp -mtune=generic -march=x86-64 -g -O0 -fpre-include=/usr/include/finclude/math-vector-fortran.h
REM seed 706669959 324759587 -192155586 1826433784 1442562738 -295279407 1533868657 -1058991500 214325413 -471945034 -1704554503 2005807911 -1125371592 761686049 -2088751460 1961142255 1494348627 2112475631 223705214 -2030292841 -196224702 960568358 -1926971664 -47328401 -1050801785 1732325909 662429639 1642638527 -607635504 2017560978 1413604905 1803640475 -1731366073
REM
CELL 1.54180   15.00000   15.00000   15.00000   90.00000   90.00000   90.00000
LATT -1
SFAC C  
C      1  0.5280720000000  0.4413180000000  0.4496100000000 1.0
C      1  0.4719280000000  0.5586820000000  0.5503900000000 1.0
C      1  0.3869330000000  0.3608750000000  0.6530020000000 1.0
C      1  0.6130670000000  0.6391250000000  0.3469980000000 1.0
C      1  0.3330160000000  0.3181650000000  0.5020410000000 1.0
C      1  0.6669840000000  0.6818350000000  0.4979590000000 1.0
C      1  0.4828620000000  0.3137210000000  0.5386870000000 1.0
C      1  0.5171380000000  0.6862790000000  0.4613130000000 1.0
C      1  0.4401010000000  0.4694430000000  0.5545590000000 1.0
C      1  0.5598990000000  0.5305570000000  0.4454410000000 1.0
C      1  0.4273760000000  0.4104850000000  0.3118240000000 1.0
C      1  0.5726240000000  0.5895150000000  0.6881760000000 1.0
C      1  0.5678920000000  0.4932990000000  0.6876650000000 1.0
C      1  0.4321080000000  0.5067010000000  0.3123350000000 1.0
C      1  0.5403790000000  0.2999880000000  0.3808090000000 1.0
C      1  0.4596210000000  0.7000120000000  0.6191910000000 1.0
C      1  0.4781500000000  0.2800200000000  0.4486760000000 1.0
C      1  0.5218500000000  0.7199800000000  0.5513240000000 1.0
C      1  0.6369400000000  0.3053740000000  0.3875810000000 1.0
C      1  0.3630600000000  0.6946260000000  0.6124190000000 1.0
C      1  0.4774370000000  0.5925160000000  0.4527760000000 1.0
C      1  0.5225630000000  0.4074840000000  0.5472240000000 1.0
C      1  0.6120510000000  0.7069290000000  0.5767030000000 1.0
C      1  0.3879490000000  0.2930710000000  0.4232970000000 1.0
C      1  0.3939040000000  0.3117070000000  0.5727330000000 1.0
C      1  0.6060960000000  0.6882930000000  0.4272670000000 1.0
C      1  0.5893190000000  0.4066560000000  0.2818730000000 1.0
C      1  0.4106810000000  0.5933440000000  0.7181270000000 1.0
C      1  0.7262970000000  0.4114390000000  0.3802270000000 1.0
C      1  0.2737030000000  0.5885610000000  0.6197730000000 1.0
C      1  0.6900030000000  0.4396600000000  0.5641390000000 1.0
C      1  0.3099970000000  0.5603400000000  0.4358610000000 1.0
C      1  0.5893150000000  0.4983050000000  0.2903870000000 1.0
C      1  0.4106850000000  0.5016950000000  0.7096130000000 1.0
C      1  0.3663280000000  0.4567660000000  0.6315600000000 1.0
C      1  0.6336720000000  0.5432340000000  0.3684400000000 1.0
C      1  0.7223320000000  0.3564840000000  0.5374660000000 1.0
C      1  0.2776680000000  0.6435160000000  0.4625340000000 1.0
C      1  0.5757240000000  0.5471090000000  0.5474940000000 1.0
C      1  0.4242760000000  0.4528910000000  0.4525060000000 1.0
C      1  0.5965130000000  0.4583510000000  0.5967250000000 1.0
C      1  0.4034870000000  0.5416490000000  0.4032750000000 1.0
C      1  0.6653350000000  0.3680790000000  0.3201420000000 1.0
C      1  0.3346650000000  0.6319210000000  0.6798580000000 1.0
C      1  0.7119300000000  0.4995390000000  0.4097820000000 1.0
C      1  0.2880700000000  0.5004610000000  0.5902180000000 1.0
C      1  0.4918640000000  0.4512800000000  0.7225960000000 1.0
C      1  0.5081360000000  0.5487200000000  0.2774040000000 1.0
C      1  0.4906210000000  0.6402870000000  0.6916720000000 1.0
C      1  0.5093790000000  0.3597130000000  0.3083280000000 1.0
C      1  0.2791820000000  0.4848540000000  0.4945080000000 1.0
C      1  0.7208180000000  0.5151460000000  0.5054920000000 1.0
C      1  0.7092190000000  0.3392200000000  0.4501710000000 1.0
C      1  0.2907810000000  0.6607800000000  0.5498290000000 1.0
C      1  0.3041570000000  0.4003360000000  0.4589790000000 1.0
C      1  0.6958430000000  0.5996640000000  0.5410210000000 1.0
C      1  0.3705150000000  0.3801140000000  0.3849050000000 1.0
C      1  0.6294850000000  0.6198860000000  0.6150950000000 1.0
C      1  0.4671010000000  0.3656720000000  0.6974560000000 1.0
C      1  0.5328990000000  0.6343280000000  0.3025440000000 1.0
END
