TITL C-2158984-8299-387 -0.00219879757080167 3375 -420.010350589034 0 0 60 (C1) n - 1
REM
REM in /scratch/bkarasulu/869
REM
REM
REM
REM
REM
REM ./C.cell (a2850807a9bf4ad07a5b6933b78d9264)
REM AIRSS Version 0.9.1 bugfix July 2018 build 013d7b7c2542+ Fri, 06 Jul 2018 19:26:36 +0100
REM compiler GCC version 9.2.1 20190827 (Red Hat 9.2.1-1)
REM options -cpp -mtune=generic -march=x86-64 -g -O0 -fpre-include=/usr/include/finclude/math-vector-fortran.h
REM seed 940559530 -834717591 -2146657642 -1228656144 771304665 -606431454 -631144912 -1217479023 1571962246 1460046273 -1200211923 -690694143 -1673596099 -1696270229 -118661650 972433805 1037188170 542039088 664564994 -1628458757 -1547260909 367478822 -2064359606 -1138001134 1746558727 -1852844913 1169942750 -920301194 1888523803 309905106 -1244882682 -647888105 -646744701
REM
CELL 1.54180   15.00000   15.00000   15.00000   90.00000   90.00000   90.00000
LATT -1
SFAC C  
C      1  0.6560690000000  0.5850230000000  0.6616500000000 1.0
C      1  0.4335960000000  0.4098340000000  0.3314510000000 1.0
C      1  0.2652210000000  0.4594260000000  0.4671830000000 1.0
C      1  0.6590200000000  0.6419440000000  0.5047980000000 1.0
C      1  0.4132580000000  0.7028200000000  0.4505660000000 1.0
C      1  0.6092170000000  0.4369810000000  0.6779950000000 1.0
C      1  0.5775610000000  0.3622800000000  0.6282840000000 1.0
C      1  0.6763850000000  0.4962200000000  0.6392960000000 1.0
C      1  0.7041580000000  0.5578220000000  0.4864180000000 1.0
C      1  0.7076940000000  0.4851270000000  0.5530750000000 1.0
C      1  0.3488530000000  0.3531820000000  0.5607280000000 1.0
C      1  0.2959200000000  0.4873390000000  0.6319620000000 1.0
C      1  0.6680290000000  0.2068530000000  0.3765010000000 1.0
C      1  0.4478360000000  0.4272170000000  0.2325800000000 1.0
C      1  0.3745770000000  0.5675510000000  0.5160790000000 1.0
C      1  0.3258260000000  0.3136010000000  0.4120420000000 1.0
C      1  0.6191900000000  0.3436500000000  0.5436530000000 1.0
C      1  0.7049000000000  0.4163670000000  0.4233310000000 1.0
C      1  0.3116030000000  0.5470090000000  0.6989300000000 1.0
C      1  0.2975080000000  0.3682000000000  0.4803100000000 1.0
C      1  0.2938120000000  0.5142750000000  0.5383080000000 1.0
C      1  0.6066510000000  0.4327650000000  0.3188210000000 1.0
C      1  0.6577800000000  0.3672330000000  0.3624980000000 1.0
C      1  0.4261570000000  0.4019360000000  0.6857220000000 1.0
C      1  0.6269770000000  0.2818900000000  0.3954230000000 1.0
C      1  0.4920810000000  0.5011330000000  0.2170530000000 1.0
C      1  0.4564010000000  0.4813130000000  0.7289700000000 1.0
C      1  0.4195090000000  0.6964250000000  0.6101400000000 1.0
C      1  0.3984200000000  0.5624020000000  0.7211430000000 1.0
C      1  0.5929030000000  0.6597430000000  0.3536450000000 1.0
C      1  0.4752480000000  0.3025540000000  0.4709370000000 1.0
C      1  0.5426960000000  0.5712670000000  0.2154940000000 1.0
C      1  0.5987360000000  0.5937420000000  0.2911870000000 1.0
C      1  0.5914180000000  0.6829110000000  0.4412900000000 1.0
C      1  0.3713780000000  0.4869390000000  0.3591770000000 1.0
C      1  0.2821950000000  0.5070050000000  0.3820180000000 1.0
C      1  0.4153720000000  0.3274750000000  0.3934950000000 1.0
C      1  0.2898760000000  0.6015630000000  0.3772020000000 1.0
C      1  0.4375480000000  0.6469300000000  0.6927450000000 1.0
C      1  0.5496740000000  0.4930180000000  0.7291250000000 1.0
C      1  0.3717170000000  0.6429520000000  0.3817040000000 1.0
C      1  0.5159500000000  0.5066560000000  0.5144950000000 1.0
C      1  0.7047560000000  0.5112690000000  0.4025550000000 1.0
C      1  0.5703230000000  0.3000340000000  0.4753060000000 1.0
C      1  0.5295510000000  0.6562490000000  0.7048780000000 1.0
C      1  0.3426360000000  0.4053870000000  0.6381990000000 1.0
C      1  0.5191090000000  0.4474160000000  0.3586420000000 1.0
C      1  0.3741350000000  0.6659480000000  0.5328630000000 1.0
C      1  0.4171770000000  0.5533940000000  0.4089740000000 1.0
C      1  0.5008020000000  0.7310100000000  0.5726860000000 1.0
C      1  0.4842010000000  0.3450390000000  0.6350240000000 1.0
C      1  0.4578300000000  0.5423240000000  0.5682150000000 1.0
C      1  0.5693430000000  0.7038230000000  0.6293660000000 1.0
C      1  0.5055620000000  0.7213650000000  0.4764230000000 1.0
C      1  0.4363910000000  0.3173790000000  0.5559560000000 1.0
C      1  0.6452640000000  0.6559210000000  0.5980440000000 1.0
C      1  0.5836170000000  0.5822760000000  0.7231820000000 1.0
C      1  0.6534910000000  0.5189940000000  0.3232760000000 1.0
C      1  0.5056210000000  0.5116560000000  0.4249860000000 1.0
C      1  0.6912710000000  0.3999430000000  0.5140010000000 1.0
END
