TITL C-2158984-8299-237 -0.00293761894886511 3375 -409.471904226944 0 0 60 (Ci) n - 1
REM
REM in /scratch/bkarasulu/869
REM
REM
REM
REM
REM
REM ./C.cell (a2850807a9bf4ad07a5b6933b78d9264)
REM AIRSS Version 0.9.1 bugfix July 2018 build 013d7b7c2542+ Fri, 06 Jul 2018 19:26:36 +0100
REM compiler GCC version 9.2.1 20190827 (Red Hat 9.2.1-1)
REM options -cpp -mtune=generic -march=x86-64 -g -O0 -fpre-include=/usr/include/finclude/math-vector-fortran.h
REM seed -162400276 -315094400 -1709613527 1435589529 273354003 1571575439 1591323045 -1998431344 -1973038974 -248477102 -636283789 -636602129 1113411690 -1765276989 1689804219 -1643650065 1306329160 32964979 -1513036263 -1484212492 157105040 1642097801 2017191323 -1647338937 -1294390223 937257506 1992929421 -926666511 85233542 -781829117 -529334019 1851222161 24902158
REM
CELL 1.54180   15.00000   15.00000   15.00000   90.00000   90.00000   90.00000
LATT -1
SFAC C  
C      1  0.3769730000000  0.5373250000000  0.3306180000000 1.0
C      1  0.6251720000000  0.3672250000000  0.3816120000000 1.0
C      1  0.3754800000000  0.3335040000000  0.5537820000000 1.0
C      1  0.6230270000000  0.4626750000000  0.6693820000000 1.0
C      1  0.3748280000000  0.6327760000000  0.6183880000000 1.0
C      1  0.6245200000000  0.6664960000000  0.4462180000000 1.0
C      1  0.5710160000000  0.2889090000000  0.3711210000000 1.0
C      1  0.4285370000000  0.2838520000000  0.6162340000000 1.0
C      1  0.5708020000000  0.4920160000000  0.7442870000000 1.0
C      1  0.4289840000000  0.7110910000000  0.6288790000000 1.0
C      1  0.5714630000000  0.7161480000000  0.3837660000000 1.0
C      1  0.4291980000000  0.5079840000000  0.2557130000000 1.0
C      1  0.5783810000000  0.5848330000000  0.2772320000000 1.0
C      1  0.4227730000000  0.3508950000000  0.3163830000000 1.0
C      1  0.5782780000000  0.2615100000000  0.5374290000000 1.0
C      1  0.4216190000000  0.4151670000000  0.7227680000000 1.0
C      1  0.5772260000000  0.6491040000000  0.6836170000000 1.0
C      1  0.4217230000000  0.7384900000000  0.4625710000000 1.0
C      1  0.5221750000000  0.5554560000000  0.4457020000000 1.0
C      1  0.4785350000000  0.4734480000000  0.4269980000000 1.0
C      1  0.5155750000000  0.4057110000000  0.4787210000000 1.0
C      1  0.4778250000000  0.4445440000000  0.5542980000000 1.0
C      1  0.5214650000000  0.5265520000000  0.5730020000000 1.0
C      1  0.4844250000000  0.5942890000000  0.5212800000000 1.0
C      1  0.3828460000000  0.5603390000000  0.6780730000000 1.0
C      1  0.6186880000000  0.6849360000000  0.5378710000000 1.0
C      1  0.3824620000000  0.6258080000000  0.3611110000000 1.0
C      1  0.6171540000000  0.4396610000000  0.3219270000000 1.0
C      1  0.3813120000000  0.3150640000000  0.4621280000000 1.0
C      1  0.6175380000000  0.3741920000000  0.6388890000000 1.0
C      1  0.6328770000000  0.6232480000000  0.6085000000000 1.0
C      1  0.3658560000000  0.6601940000000  0.4485990000000 1.0
C      1  0.6312870000000  0.5323760000000  0.3387120000000 1.0
C      1  0.3671230000000  0.3767520000000  0.3914990000000 1.0
C      1  0.6341440000000  0.3398060000000  0.5514010000000 1.0
C      1  0.3687130000000  0.4676240000000  0.6612880000000 1.0
C      1  0.5436580000000  0.2432090000000  0.4546740000000 1.0
C      1  0.4556850000000  0.3336200000000  0.6979490000000 1.0
C      1  0.5445650000000  0.5878290000000  0.7432630000000 1.0
C      1  0.4563420000000  0.7567910000000  0.5453260000000 1.0
C      1  0.5443150000000  0.6663800000000  0.3020510000000 1.0
C      1  0.4554350000000  0.4121710000000  0.2567370000000 1.0
C      1  0.6148390000000  0.5293600000000  0.5990960000000 1.0
C      1  0.3866290000000  0.6075810000000  0.5259460000000 1.0
C      1  0.6153600000000  0.5725620000000  0.4247980000000 1.0
C      1  0.3851610000000  0.4706400000000  0.4009040000000 1.0
C      1  0.6133710000000  0.3924190000000  0.4740550000000 1.0
C      1  0.3846400000000  0.4274380000000  0.5752020000000 1.0
C      1  0.5189080000000  0.2524250000000  0.6081360000000 1.0
C      1  0.4801490000000  0.4709780000000  0.7686150000000 1.0
C      1  0.5197640000000  0.7170680000000  0.6585840000000 1.0
C      1  0.4810920000000  0.7475750000000  0.3918640000000 1.0
C      1  0.5198510000000  0.5290220000000  0.2313850000000 1.0
C      1  0.4802360000000  0.2829320000000  0.3414160000000 1.0
C      1  0.4512000000000  0.2529870000000  0.4330060000000 1.0
C      1  0.5478810000000  0.3185310000000  0.6788910000000 1.0
C      1  0.4519120000000  0.5651980000000  0.7471130000000 1.0
C      1  0.5488000000000  0.7470130000000  0.5669940000000 1.0
C      1  0.4521190000000  0.6814690000000  0.3211090000000 1.0
C      1  0.5480880000000  0.4348020000000  0.2528870000000 1.0
END
