TITL C-2158984-8299-1092 -0.0021041495071118 3375 -406.964235258764 0 0 60 (Cs) n - 1
REM
REM in /scratch/bkarasulu/869
REM
REM
REM
REM
REM
REM ./C.cell (a2850807a9bf4ad07a5b6933b78d9264)
REM AIRSS Version 0.9.1 bugfix July 2018 build 013d7b7c2542+ Fri, 06 Jul 2018 19:26:36 +0100
REM compiler GCC version 9.2.1 20190827 (Red Hat 9.2.1-1)
REM options -cpp -mtune=generic -march=x86-64 -g -O0 -fpre-include=/usr/include/finclude/math-vector-fortran.h
REM seed -349706636 1506392366 2108900574 1582944746 1224358985 -495018351 -612347696 -1450501953 232819716 -852760365 -474986557 -1856517213 21305733 -82353050 1857040531 -1786824114 -1248588973 -228375042 650627396 1763747205 429960290 202692069 -1380503035 1630961007 -1123084668 258790959 -784546410 -501274344 474745136 -277216240 2111593852 -1388862778 -54883764
REM
CELL 1.54180   15.00000   15.00000   15.00000   90.00000   90.00000   90.00000
LATT -1
SFAC C  
C      1  0.6316600000000  0.2808270000000  0.5490890000000 1.0
C      1  0.2290940000000  0.4952300000000  0.5506150000000 1.0
C      1  0.6231610000000  0.7281610000000  0.5488900000000 1.0
C      1  0.6316600000000  0.2808270000000  0.4509110000000 1.0
C      1  0.2290940000000  0.4952300000000  0.4493850000000 1.0
C      1  0.6231610000000  0.7281610000000  0.4511100000000 1.0
C      1  0.5250720000000  0.7261140000000  0.5512680000000 1.0
C      1  0.6813710000000  0.3647800000000  0.5506380000000 1.0
C      1  0.2821720000000  0.4117390000000  0.5509350000000 1.0
C      1  0.5250720000000  0.7261140000000  0.4487320000000 1.0
C      1  0.6813710000000  0.3647800000000  0.4493620000000 1.0
C      1  0.2821720000000  0.4117390000000  0.4490650000000 1.0
C      1  0.7155360000000  0.5910640000000  0.4534900000000 1.0
C      1  0.4655790000000  0.2724010000000  0.4538880000000 1.0
C      1  0.3252220000000  0.6306600000000  0.4539050000000 1.0
C      1  0.7155360000000  0.5910640000000  0.5465100000000 1.0
C      1  0.4655790000000  0.2724010000000  0.5461120000000 1.0
C      1  0.3252220000000  0.6306600000000  0.5460950000000 1.0
C      1  0.4827150000000  0.4239560000000  0.5467760000000 1.0
C      1  0.4798310000000  0.5240800000000  0.5526920000000 1.0
C      1  0.5747820000000  0.5494700000000  0.5466840000000 1.0
C      1  0.4827150000000  0.4239560000000  0.4532240000000 1.0
C      1  0.4798310000000  0.5240800000000  0.4473080000000 1.0
C      1  0.5747820000000  0.5494700000000  0.4533160000000 1.0
C      1  0.6336450000000  0.6101580000000  0.3415090000000 1.0
C      1  0.5228070000000  0.3355580000000  0.3458680000000 1.0
C      1  0.3437380000000  0.5563990000000  0.3459440000000 1.0
C      1  0.6336450000000  0.6101580000000  0.6584910000000 1.0
C      1  0.5228070000000  0.3355580000000  0.6541320000000 1.0
C      1  0.3437380000000  0.5563990000000  0.6540560000000 1.0
C      1  0.5438070000000  0.6313190000000  0.3158340000000 1.0
C      1  0.5872450000000  0.4026400000000  0.3236720000000 1.0
C      1  0.3642680000000  0.4690480000000  0.3173270000000 1.0
C      1  0.5438070000000  0.6313190000000  0.6841660000000 1.0
C      1  0.5872450000000  0.4026400000000  0.6763280000000 1.0
C      1  0.3642680000000  0.4690480000000  0.6826730000000 1.0
C      1  0.4472550000000  0.4838160000000  0.2759290000000 1.0
C      1  0.5095440000000  0.5545570000000  0.2743590000000 1.0
C      1  0.5396230000000  0.4667640000000  0.2769200000000 1.0
C      1  0.4472550000000  0.4838160000000  0.7240710000000 1.0
C      1  0.5095440000000  0.5545570000000  0.7256410000000 1.0
C      1  0.5396230000000  0.4667640000000  0.7230800000000 1.0
C      1  0.5500200000000  0.2697710000000  0.4083730000000 1.0
C      1  0.2697960000000  0.5676000000000  0.4066020000000 1.0
C      1  0.6760360000000  0.6662580000000  0.4069310000000 1.0
C      1  0.5500200000000  0.2697710000000  0.5916270000000 1.0
C      1  0.2697960000000  0.5676000000000  0.5933980000000 1.0
C      1  0.6760360000000  0.6662580000000  0.5930690000000 1.0
C      1  0.6625080000000  0.4278680000000  0.3796320000000 1.0
C      1  0.3467800000000  0.3944780000000  0.3788690000000 1.0
C      1  0.4838580000000  0.6751030000000  0.3794770000000 1.0
C      1  0.6625080000000  0.4278680000000  0.6203680000000 1.0
C      1  0.3467800000000  0.3944780000000  0.6211310000000 1.0
C      1  0.4838580000000  0.6751030000000  0.6205230000000 1.0
C      1  0.6600370000000  0.5261010000000  0.3969960000000 1.0
C      1  0.4342230000000  0.3518520000000  0.3993200000000 1.0
C      1  0.4086130000000  0.6122310000000  0.4000930000000 1.0
C      1  0.6600370000000  0.5261010000000  0.6030040000000 1.0
C      1  0.4342230000000  0.3518520000000  0.6006800000000 1.0
C      1  0.4086130000000  0.6122310000000  0.5999070000000 1.0
END
