TITL C-2158984-8299-32 -0.00426163327883312 3375 -420.633933116765 0 0 60 (C2h) n - 1
REM
REM in /scratch/bkarasulu/869
REM
REM
REM
REM
REM
REM ./C.cell (a2850807a9bf4ad07a5b6933b78d9264)
REM AIRSS Version 0.9.1 bugfix July 2018 build 013d7b7c2542+ Fri, 06 Jul 2018 19:26:36 +0100
REM compiler GCC version 9.2.1 20190827 (Red Hat 9.2.1-1)
REM options -cpp -mtune=generic -march=x86-64 -g -O0 -fpre-include=/usr/include/finclude/math-vector-fortran.h
REM seed 542796530 1496727956 -644976855 -195114218 348248708 -774144457 642314065 -1717189086 -1620713564 1754974699 552542058 1346765497 -535141644 -1058864781 -1296819650 -921873569 2014266838 891993352 -177886044 1759872219 1567180903 -1553001619 -607726283 -749360827 490305170 -1795997540 -405246524 -1548364543 664300995 -1452067081 -1603246093 -672322324 216629114
REM
CELL 1.54180   15.00000   15.00000   15.00000   90.00000   90.00000   90.00000
LATT -1
SFAC C  
C      1  0.4499090000000  0.3186780000000  0.4161950000000 1.0
C      1  0.4501240000000  0.6815840000000  0.5833680000000 1.0
C      1  0.5498760000000  0.3184160000000  0.4166320000000 1.0
C      1  0.5500910000000  0.6813220000000  0.5838050000000 1.0
C      1  0.5848760000000  0.3050570000000  0.5895680000000 1.0
C      1  0.5866700000000  0.6944940000000  0.4111810000000 1.0
C      1  0.4133300000000  0.3055060000000  0.5888190000000 1.0
C      1  0.4151240000000  0.6949430000000  0.4104320000000 1.0
C      1  0.4542180000000  0.5592230000000  0.2020230000000 1.0
C      1  0.4513080000000  0.4410240000000  0.7975630000000 1.0
C      1  0.5486920000000  0.5589760000000  0.2024370000000 1.0
C      1  0.5457820000000  0.4407770000000  0.7979770000000 1.0
C      1  0.2828360000000  0.4641090000000  0.5311690000000 1.0
C      1  0.2833060000000  0.5370220000000  0.4669360000000 1.0
C      1  0.7166940000000  0.4629780000000  0.5330640000000 1.0
C      1  0.7171640000000  0.5358910000000  0.4688310000000 1.0
C      1  0.4516220000000  0.5001270000000  0.4997900000000 1.0
C      1  0.4996340000000  0.4856520000000  0.5755840000000 1.0
C      1  0.5003660000000  0.5143480000000  0.4244160000000 1.0
C      1  0.5483780000000  0.4998730000000  0.5002100000000 1.0
C      1  0.6839100000000  0.5975660000000  0.6023440000000 1.0
C      1  0.6842860000000  0.4014740000000  0.3992650000000 1.0
C      1  0.3157140000000  0.5985260000000  0.6007350000000 1.0
C      1  0.3160900000000  0.4024340000000  0.3976560000000 1.0
C      1  0.3918790000000  0.3682710000000  0.3510390000000 1.0
C      1  0.3912690000000  0.6322960000000  0.6480140000000 1.0
C      1  0.6087310000000  0.3677040000000  0.3519860000000 1.0
C      1  0.6081210000000  0.6317290000000  0.6489610000000 1.0
C      1  0.3958850000000  0.5649140000000  0.7190600000000 1.0
C      1  0.3974660000000  0.4356260000000  0.2800370000000 1.0
C      1  0.6025340000000  0.5643740000000  0.7199630000000 1.0
C      1  0.6041150000000  0.4350860000000  0.2809400000000 1.0
C      1  0.3126780000000  0.3803310000000  0.4877370000000 1.0
C      1  0.3132040000000  0.6206450000000  0.5106280000000 1.0
C      1  0.6867960000000  0.3793550000000  0.4893720000000 1.0
C      1  0.6873220000000  0.6196690000000  0.5122630000000 1.0
C      1  0.4510970000000  0.5434840000000  0.7919170000000 1.0
C      1  0.4534230000000  0.4567660000000  0.2076650000000 1.0
C      1  0.5465770000000  0.5432340000000  0.7923350000000 1.0
C      1  0.5489030000000  0.4565160000000  0.2080830000000 1.0
C      1  0.2992050000000  0.4970700000000  0.3816420000000 1.0
C      1  0.2981970000000  0.5039810000000  0.6165980000000 1.0
C      1  0.7018030000000  0.4960190000000  0.3834020000000 1.0
C      1  0.7007950000000  0.5029300000000  0.6183580000000 1.0
C      1  0.3539510000000  0.5194760000000  0.3077720000000 1.0
C      1  0.3521780000000  0.4812910000000  0.6909430000000 1.0
C      1  0.6478220000000  0.5187090000000  0.3090570000000 1.0
C      1  0.6460490000000  0.4805240000000  0.6922280000000 1.0
C      1  0.4056870000000  0.5963870000000  0.2747520000000 1.0
C      1  0.4032210000000  0.4041120000000  0.7244120000000 1.0
C      1  0.5967790000000  0.5958880000000  0.2755880000000 1.0
C      1  0.5943130000000  0.4036130000000  0.7252480000000 1.0
C      1  0.5500050000000  0.3326600000000  0.6697520000000 1.0
C      1  0.5523570000000  0.6670720000000  0.3306960000000 1.0
C      1  0.4476430000000  0.3329280000000  0.6693040000000 1.0
C      1  0.4499950000000  0.6673400000000  0.3302480000000 1.0
C      1  0.6079260000000  0.3186600000000  0.5034380000000 1.0
C      1  0.6088950000000  0.6807730000000  0.4975090000000 1.0
C      1  0.3911050000000  0.3192270000000  0.5024910000000 1.0
C      1  0.3920740000000  0.6813400000000  0.4965620000000 1.0
END
