TITL C-2159252-5904-36 -0.00229561138694372 3375 -395.298917928144 0 0 60 (Td) n - 1
REM
REM in /scratch/bkarasulu/870
REM
REM
REM
REM
REM
REM ./C.cell (a2850807a9bf4ad07a5b6933b78d9264)
REM AIRSS Version 0.9.1 bugfix July 2018 build 013d7b7c2542+ Fri, 06 Jul 2018 19:26:36 +0100
REM compiler GCC version 9.2.1 20190827 (Red Hat 9.2.1-1)
REM options -cpp -mtune=generic -march=x86-64 -g -O0 -fpre-include=/usr/include/finclude/math-vector-fortran.h
REM seed -545252773 740478589 541797811 -1507297712 694014037 26984577 -124606294 -859250070 -1755443773 1799766011 -123281784 -1492406743 1538041515 -1569181107 -1678618719 -1701443977 -1080729004 -1024250181 2039325680 2062064737 -1660278293 584796280 516738167 -56675390 -223228608 1202070143 -225270471 1706511656 1156762983 428533488 -6958126 1345467335 -1785959178
REM
CELL 1.54180   15.00000   15.00000   15.00000   90.00000   90.00000   90.00000
LATT -1
SFAC C  
C      1  0.4289460000000  0.4982550000000  0.6418380000000 1.0
C      1  0.4982550000000  0.6418380000000  0.4289460000000 1.0
C      1  0.6418380000000  0.4289460000000  0.4982550000000 1.0
C      1  0.4289460000000  0.5017450000000  0.3581620000000 1.0
C      1  0.5710540000000  0.4982550000000  0.3581620000000 1.0
C      1  0.5710540000000  0.5017450000000  0.6418380000000 1.0
C      1  0.4982550000000  0.3581620000000  0.5710540000000 1.0
C      1  0.5017450000000  0.6418380000000  0.5710540000000 1.0
C      1  0.5017450000000  0.3581620000000  0.4289460000000 1.0
C      1  0.6418380000000  0.5710540000000  0.5017450000000 1.0
C      1  0.3581620000000  0.4289460000000  0.5017450000000 1.0
C      1  0.3581620000000  0.5710540000000  0.4982550000000 1.0
C      1  0.4289460000000  0.6418380000000  0.4982550000000 1.0
C      1  0.4982550000000  0.4289460000000  0.6418380000000 1.0
C      1  0.6418380000000  0.4982550000000  0.4289460000000 1.0
C      1  0.4289460000000  0.3581620000000  0.5017450000000 1.0
C      1  0.5710540000000  0.3581620000000  0.4982550000000 1.0
C      1  0.5710540000000  0.6418380000000  0.5017450000000 1.0
C      1  0.4982550000000  0.5710540000000  0.3581620000000 1.0
C      1  0.5017450000000  0.5710540000000  0.6418380000000 1.0
C      1  0.5017450000000  0.4289460000000  0.3581620000000 1.0
C      1  0.6418380000000  0.5017450000000  0.5710540000000 1.0
C      1  0.3581620000000  0.5017450000000  0.4289460000000 1.0
C      1  0.3581620000000  0.4982550000000  0.5710540000000 1.0
C      1  0.6410250000000  0.7100450000000  0.4690470000000 1.0
C      1  0.7100450000000  0.4690470000000  0.6410250000000 1.0
C      1  0.4690470000000  0.6410250000000  0.7100450000000 1.0
C      1  0.6410250000000  0.2899550000000  0.5309530000000 1.0
C      1  0.3589750000000  0.7100450000000  0.5309530000000 1.0
C      1  0.3589750000000  0.2899550000000  0.4690470000000 1.0
C      1  0.7100450000000  0.5309530000000  0.3589750000000 1.0
C      1  0.2899550000000  0.4690470000000  0.3589750000000 1.0
C      1  0.2899550000000  0.5309530000000  0.6410250000000 1.0
C      1  0.4690470000000  0.3589750000000  0.2899550000000 1.0
C      1  0.5309530000000  0.6410250000000  0.2899550000000 1.0
C      1  0.5309530000000  0.3589750000000  0.7100450000000 1.0
C      1  0.6410250000000  0.4690470000000  0.7100450000000 1.0
C      1  0.7100450000000  0.6410250000000  0.4690470000000 1.0
C      1  0.4690470000000  0.7100450000000  0.6410250000000 1.0
C      1  0.6410250000000  0.5309530000000  0.2899550000000 1.0
C      1  0.3589750000000  0.5309530000000  0.7100450000000 1.0
C      1  0.3589750000000  0.4690470000000  0.2899550000000 1.0
C      1  0.7100450000000  0.3589750000000  0.5309530000000 1.0
C      1  0.2899550000000  0.3589750000000  0.4690470000000 1.0
C      1  0.2899550000000  0.6410250000000  0.5309530000000 1.0
C      1  0.4690470000000  0.2899550000000  0.3589750000000 1.0
C      1  0.5309530000000  0.2899550000000  0.6410250000000 1.0
C      1  0.5309530000000  0.7100450000000  0.3589750000000 1.0
C      1  0.5953610000000  0.2419270000000  0.5953610000000 1.0
C      1  0.4046390000000  0.7580730000000  0.5953610000000 1.0
C      1  0.2419270000000  0.5953610000000  0.5953610000000 1.0
C      1  0.5953610000000  0.5953610000000  0.2419270000000 1.0
C      1  0.2419270000000  0.4046390000000  0.4046390000000 1.0
C      1  0.7580730000000  0.5953610000000  0.4046390000000 1.0
C      1  0.7580730000000  0.4046390000000  0.5953610000000 1.0
C      1  0.5953610000000  0.4046390000000  0.7580730000000 1.0
C      1  0.4046390000000  0.5953610000000  0.7580730000000 1.0
C      1  0.4046390000000  0.4046390000000  0.2419270000000 1.0
C      1  0.5953610000000  0.7580730000000  0.4046390000000 1.0
C      1  0.4046390000000  0.2419270000000  0.4046390000000 1.0
END
