TITL C-2158984-8299-261 -0.00258367961034081 3375 -391.806726062429 0 0 60 (S4) n - 1
REM
REM in /scratch/bkarasulu/869
REM
REM
REM
REM
REM
REM ./C.cell (a2850807a9bf4ad07a5b6933b78d9264)
REM AIRSS Version 0.9.1 bugfix July 2018 build 013d7b7c2542+ Fri, 06 Jul 2018 19:26:36 +0100
REM compiler GCC version 9.2.1 20190827 (Red Hat 9.2.1-1)
REM options -cpp -mtune=generic -march=x86-64 -g -O0 -fpre-include=/usr/include/finclude/math-vector-fortran.h
REM seed -135809125 -1995316656 -427503572 1776563200 1036117725 208372385 1622780669 -1901335277 1082453306 -228415626 -344722974 -1654963946 -734301844 1314261978 1260275280 -1895735134 -1616465482 680963163 1684083347 268773868 1110478012 1014810239 1242838266 446108323 -1400259067 -1156623341 833575333 -1931199239 1231087075 48032695 -207200971 876349384 -997810041
REM
CELL 1.54180   15.00000   15.00000   15.00000   90.00000   90.00000   90.00000
LATT -1
SFAC C  
C      1  0.5689730000000  0.3939690000000  0.2841820000000 1.0
C      1  0.4723880000000  0.6248950000000  0.3211820000000 1.0
C      1  0.3912500000000  0.4820400000000  0.3512430000000 1.0
C      1  0.2841820000000  0.6060310000000  0.4310270000000 1.0
C      1  0.3211820000000  0.3751050000000  0.5276120000000 1.0
C      1  0.3512430000000  0.5179590000000  0.6087500000000 1.0
C      1  0.4310270000000  0.3939680000000  0.7158170000000 1.0
C      1  0.5276120000000  0.6248940000000  0.6788190000000 1.0
C      1  0.6087500000000  0.4820400000000  0.6487570000000 1.0
C      1  0.7158170000000  0.6060320000000  0.5689730000000 1.0
C      1  0.6788190000000  0.3751060000000  0.4723880000000 1.0
C      1  0.6487570000000  0.5179600000000  0.3912500000000 1.0
C      1  0.4747080000000  0.7132220000000  0.3138430000000 1.0
C      1  0.4122660000000  0.3157010000000  0.3798220000000 1.0
C      1  0.3535620000000  0.6633990000000  0.4419670000000 1.0
C      1  0.3138430000000  0.2867780000000  0.5252910000000 1.0
C      1  0.3798220000000  0.6842980000000  0.5877350000000 1.0
C      1  0.4419670000000  0.3366010000000  0.6464380000000 1.0
C      1  0.5252910000000  0.7132210000000  0.6861580000000 1.0
C      1  0.5877350000000  0.3157010000000  0.6201770000000 1.0
C      1  0.6464380000000  0.6633990000000  0.5580340000000 1.0
C      1  0.6861580000000  0.2867790000000  0.4747080000000 1.0
C      1  0.6201770000000  0.6842990000000  0.4122660000000 1.0
C      1  0.5580340000000  0.3366010000000  0.3535620000000 1.0
C      1  0.5794790000000  0.5956730000000  0.5308210000000 1.0
C      1  0.5887030000000  0.4110380000000  0.4943610000000 1.0
C      1  0.5894790000000  0.5907790000000  0.4317330000000 1.0
C      1  0.5308210000000  0.4043280000000  0.4205210000000 1.0
C      1  0.4943610000000  0.5889620000000  0.4112970000000 1.0
C      1  0.4317330000000  0.4092220000000  0.4105210000000 1.0
C      1  0.4205210000000  0.5956720000000  0.4691800000000 1.0
C      1  0.4112970000000  0.4110380000000  0.5056390000000 1.0
C      1  0.4105210000000  0.5907780000000  0.5682680000000 1.0
C      1  0.4691800000000  0.4043270000000  0.5794790000000 1.0
C      1  0.5056390000000  0.5889620000000  0.5887030000000 1.0
C      1  0.5682680000000  0.4092220000000  0.5894790000000 1.0
C      1  0.6186340000000  0.4815710000000  0.3104360000000 1.0
C      1  0.5341260000000  0.4804980000000  0.2720280000000 1.0
C      1  0.4585430000000  0.5321080000000  0.3024010000000 1.0
C      1  0.3104360000000  0.5184300000000  0.3813660000000 1.0
C      1  0.2720280000000  0.5195020000000  0.4658740000000 1.0
C      1  0.3024010000000  0.4678920000000  0.5414560000000 1.0
C      1  0.3813660000000  0.4815700000000  0.6895640000000 1.0
C      1  0.4658740000000  0.4804970000000  0.7279720000000 1.0
C      1  0.5414560000000  0.5321070000000  0.6975990000000 1.0
C      1  0.6895640000000  0.5184300000000  0.6186340000000 1.0
C      1  0.7279720000000  0.5195030000000  0.5341260000000 1.0
C      1  0.6975990000000  0.4678930000000  0.4585430000000 1.0
C      1  0.5699470000000  0.7522660000000  0.4438820000000 1.0
C      1  0.5380670000000  0.2578950000000  0.4113390000000 1.0
C      1  0.4826880000000  0.7545280000000  0.4017610000000 1.0
C      1  0.4438820000000  0.2477350000000  0.4300510000000 1.0
C      1  0.4113390000000  0.7421050000000  0.4619340000000 1.0
C      1  0.4017610000000  0.2454720000000  0.5173110000000 1.0
C      1  0.4300510000000  0.7522650000000  0.5561190000000 1.0
C      1  0.4619340000000  0.2578950000000  0.5886600000000 1.0
C      1  0.5173110000000  0.7545280000000  0.5982400000000 1.0
C      1  0.5561190000000  0.2477340000000  0.5699470000000 1.0
C      1  0.5886600000000  0.7421050000000  0.5380670000000 1.0
C      1  0.5982400000000  0.2454720000000  0.4826880000000 1.0
END
