TITL C-2158988-7926-942 -0.00156753425600598 3375 -401.647304454164 0 0 60 (C2h) n - 1
REM
REM in /scratch/bkarasulu/868
REM
REM
REM
REM
REM
REM ./C.cell (a2850807a9bf4ad07a5b6933b78d9264)
REM AIRSS Version 0.9.1 bugfix July 2018 build 013d7b7c2542+ Fri, 06 Jul 2018 19:26:36 +0100
REM compiler GCC version 9.2.1 20190827 (Red Hat 9.2.1-1)
REM options -cpp -mtune=generic -march=x86-64 -g -O0 -fpre-include=/usr/include/finclude/math-vector-fortran.h
REM seed 179775205 -292859704 -1239363599 832210165 1784733375 -70090111 -923036206 2022186369 -680404984 162091917 -1847463901 390755193 1136031582 -53875567 1999954400 1809329413 -1491039805 -118417139 1422824984 -1887285211 42969116 -321766942 1191848022 274770350 -1480758670 -2083993598 -931504334 9998014 -1663306403 -431364799 -1347849621 1362677758 1468846181
REM
CELL 1.54180   15.00000   15.00000   15.00000   90.00000   90.00000   90.00000
LATT -1
SFAC C  
C      1  0.6357020000000  0.6227230000000  0.3862070000000 1.0
C      1  0.3642980000000  0.3772770000000  0.3862070000000 1.0
C      1  0.6357020000000  0.6227230000000  0.6137930000000 1.0
C      1  0.3642980000000  0.3772770000000  0.6137930000000 1.0
C      1  0.4317690000000  0.3482860000000  0.4499940000000 1.0
C      1  0.5682310000000  0.6517140000000  0.4499940000000 1.0
C      1  0.4317690000000  0.3482860000000  0.5500060000000 1.0
C      1  0.5682310000000  0.6517140000000  0.5500060000000 1.0
C      1  0.4873840000000  0.4293500000000  0.4223980000000 1.0
C      1  0.5126160000000  0.5706500000000  0.4223980000000 1.0
C      1  0.4873840000000  0.4293500000000  0.5776020000000 1.0
C      1  0.5126160000000  0.5706500000000  0.5776020000000 1.0
C      1  0.3002030000000  0.4102440000000  0.5532070000000 1.0
C      1  0.6997970000000  0.5897560000000  0.5532070000000 1.0
C      1  0.3002030000000  0.4102440000000  0.4467930000000 1.0
C      1  0.6997970000000  0.5897560000000  0.4467930000000 1.0
C      1  0.3509950000000  0.5505130000000  0.3977230000000 1.0
C      1  0.6490050000000  0.4494870000000  0.3977230000000 1.0
C      1  0.3509950000000  0.5505130000000  0.6022770000000 1.0
C      1  0.6490050000000  0.4494870000000  0.6022770000000 1.0
C      1  0.4811090000000  0.5891790000000  0.6721310000000 1.0
C      1  0.5188910000000  0.4108210000000  0.6721310000000 1.0
C      1  0.4811090000000  0.5891790000000  0.3278690000000 1.0
C      1  0.5188910000000  0.4108210000000  0.3278690000000 1.0
C      1  0.7167070000000  0.4980870000000  0.5500380000000 1.0
C      1  0.2832930000000  0.5019130000000  0.5500380000000 1.0
C      1  0.7167070000000  0.4980870000000  0.4499620000000 1.0
C      1  0.2832930000000  0.5019130000000  0.4499620000000 1.0
C      1  0.5957930000000  0.4784080000000  0.3153160000000 1.0
C      1  0.4042070000000  0.5215920000000  0.3153160000000 1.0
C      1  0.5957930000000  0.4784080000000  0.6846840000000 1.0
C      1  0.4042070000000  0.5215920000000  0.6846840000000 1.0
C      1  0.4291920000000  0.6739780000000  0.6505750000000 1.0
C      1  0.5708080000000  0.3260220000000  0.6505750000000 1.0
C      1  0.4291920000000  0.6739780000000  0.3494250000000 1.0
C      1  0.5708080000000  0.3260220000000  0.3494250000000 1.0
C      1  0.5274610000000  0.2481840000000  0.6237730000000 1.0
C      1  0.4725390000000  0.7518160000000  0.6237730000000 1.0
C      1  0.5274610000000  0.2481840000000  0.3762270000000 1.0
C      1  0.4725390000000  0.7518160000000  0.3762270000000 1.0
C      1  0.6512190000000  0.3540620000000  0.3945580000000 1.0
C      1  0.3487810000000  0.6459380000000  0.3945580000000 1.0
C      1  0.6512190000000  0.3540620000000  0.6054420000000 1.0
C      1  0.3487810000000  0.6459380000000  0.6054420000000 1.0
C      1  0.5218070000000  0.7403520000000  0.5491990000000 1.0
C      1  0.4781930000000  0.2596480000000  0.5491990000000 1.0
C      1  0.5218070000000  0.7403520000000  0.4508010000000 1.0
C      1  0.4781930000000  0.2596480000000  0.4508010000000 1.0
C      1  0.4212510000000  0.4289900000000  0.3178350000000 1.0
C      1  0.5787490000000  0.5710100000000  0.3178350000000 1.0
C      1  0.4212510000000  0.4289900000000  0.6821650000000 1.0
C      1  0.5787490000000  0.5710100000000  0.6821650000000 1.0
C      1  0.4328100000000  0.5157680000000  0.4528360000000 1.0
C      1  0.5671900000000  0.4842320000000  0.4528360000000 1.0
C      1  0.4328100000000  0.5157680000000  0.5471640000000 1.0
C      1  0.5671900000000  0.4842320000000  0.5471640000000 1.0
C      1  0.2917540000000  0.6911140000000  0.5429540000000 1.0
C      1  0.7082460000000  0.3088860000000  0.5429540000000 1.0
C      1  0.2917540000000  0.6911140000000  0.4570460000000 1.0
C      1  0.7082460000000  0.3088860000000  0.4570460000000 1.0
END
