TITL C-2158984-8299-72 -0.00125546306836934 3375 -411.443810951706 0 0 60 (C3) n - 1
REM
REM in /scratch/bkarasulu/869
REM
REM
REM
REM
REM
REM ./C.cell (a2850807a9bf4ad07a5b6933b78d9264)
REM AIRSS Version 0.9.1 bugfix July 2018 build 013d7b7c2542+ Fri, 06 Jul 2018 19:26:36 +0100
REM compiler GCC version 9.2.1 20190827 (Red Hat 9.2.1-1)
REM options -cpp -mtune=generic -march=x86-64 -g -O0 -fpre-include=/usr/include/finclude/math-vector-fortran.h
REM seed 1531205067 -1387031110 1083248053 -1090599051 -1907956503 640159414 -159152009 -524959821 -366174577 -677058365 -1530963986 -1042524858 91427837 -380200260 1724051185 107136082 -1539815942 813185419 -1637129229 819190191 -229721072 2062574137 -1205062736 -1613595342 911552809 -254767914 2052187791 1501946071 233656244 53494739 590104747 -1172052254 1782701215
REM
CELL 1.54180   15.00000   15.00000   15.00000   90.00000   90.00000   90.00000
LATT -1
SFAC C  
C      1  0.3104470000000  0.4135020000000  0.4039090000000 1.0
C      1  0.6696870000000  0.3790920000000  0.4039100000000 1.0
C      1  0.5198670000000  0.7074070000000  0.4039100000000 1.0
C      1  0.4039340000000  0.4731510000000  0.7008580000000 1.0
C      1  0.5712840000000  0.4302290000000  0.7008580000000 1.0
C      1  0.5247810000000  0.5966200000000  0.7008570000000 1.0
C      1  0.6653460000000  0.4527180000000  0.3457390000000 1.0
C      1  0.4582760000000  0.6668340000000  0.3457380000000 1.0
C      1  0.3763810000000  0.3804490000000  0.3457380000000 1.0
C      1  0.2979040000000  0.5155170000000  0.5192410000000 1.0
C      1  0.5876080000000  0.3172220000000  0.5192420000000 1.0
C      1  0.6144850000000  0.6672600000000  0.5192430000000 1.0
C      1  0.5192240000000  0.4052500000000  0.2962500000000 1.0
C      1  0.5724460000000  0.5640230000000  0.2962500000000 1.0
C      1  0.4083330000000  0.5307280000000  0.2962500000000 1.0
C      1  0.4764420000000  0.4020010000000  0.7042770000000 1.0
C      1  0.5966480000000  0.5285980000000  0.7042760000000 1.0
C      1  0.4269100000000  0.5694010000000  0.7042760000000 1.0
C      1  0.4742870000000  0.7218830000000  0.4884350000000 1.0
C      1  0.3207010000000  0.3667920000000  0.4884340000000 1.0
C      1  0.7050120000000  0.4113270000000  0.4884360000000 1.0
C      1  0.4047460000000  0.6530600000000  0.6493510000000 1.0
C      1  0.4150730000000  0.3409780000000  0.6493500000000 1.0
C      1  0.6801810000000  0.5059620000000  0.6493510000000 1.0
C      1  0.6887840000000  0.5313730000000  0.3946800000000 1.0
C      1  0.3784390000000  0.6478050000000  0.3946800000000 1.0
C      1  0.4327780000000  0.3208230000000  0.3946800000000 1.0
C      1  0.6929610000000  0.5539250000000  0.5622550000000 1.0
C      1  0.3568190000000  0.6401450000000  0.5622540000000 1.0
C      1  0.4502210000000  0.3059280000000  0.5622540000000 1.0
C      1  0.4957470000000  0.6782690000000  0.6444060000000 1.0
C      1  0.3477410000000  0.4071830000000  0.6444050000000 1.0
C      1  0.6565120000000  0.4145480000000  0.6444060000000 1.0
C      1  0.5142560000000  0.3881650000000  0.5381170000000 1.0
C      1  0.5897230000000  0.5682630000000  0.5381170000000 1.0
C      1  0.3960200000000  0.5435710000000  0.5381170000000 1.0
C      1  0.4824930000000  0.5928460000000  0.2924970000000 1.0
C      1  0.4283470000000  0.4384160000000  0.2924960000000 1.0
C      1  0.5891620000000  0.4687390000000  0.2924970000000 1.0
C      1  0.5202970000000  0.4445050000000  0.6134720000000 1.0
C      1  0.5379120000000  0.5453250000000  0.6134720000000 1.0
C      1  0.4417890000000  0.5101680000000  0.6134730000000 1.0
C      1  0.5325710000000  0.7087590000000  0.5615600000000 1.0
C      1  0.3029230000000  0.4238290000000  0.5615590000000 1.0
C      1  0.6645040000000  0.3674140000000  0.5615600000000 1.0
C      1  0.2688790000000  0.5977570000000  0.5579420000000 1.0
C      1  0.5308990000000  0.2509640000000  0.5579410000000 1.0
C      1  0.7002200000000  0.6512760000000  0.5579430000000 1.0
C      1  0.6339970000000  0.6027760000000  0.3626190000000 1.0
C      1  0.3439950000000  0.5646570000000  0.3626180000000 1.0
C      1  0.5220080000000  0.3325670000000  0.3626180000000 1.0
C      1  0.4534090000000  0.5258960000000  0.4642830000000 1.0
C      1  0.5008680000000  0.4467040000000  0.4642830000000 1.0
C      1  0.5457210000000  0.5274000000000  0.4642830000000 1.0
C      1  0.7184470000000  0.5045590000000  0.4820800000000 1.0
C      1  0.3868290000000  0.6868990000000  0.4820800000000 1.0
C      1  0.3947260000000  0.3085420000000  0.4820800000000 1.0
C      1  0.2958110000000  0.5038710000000  0.4180300000000 1.0
C      1  0.5987430000000  0.3212330000000  0.4180310000000 1.0
C      1  0.6054460000000  0.6748970000000  0.4180320000000 1.0
END
