TITL C-2159255-4746-315 -0.00166568072466992 3375 -401.490160033083 0 0 60 (C4) n - 1
REM
REM in /scratch/bkarasulu/871
REM
REM
REM
REM
REM
REM ./C.cell (a2850807a9bf4ad07a5b6933b78d9264)
REM AIRSS Version 0.9.1 bugfix July 2018 build 013d7b7c2542+ Fri, 06 Jul 2018 19:26:36 +0100
REM compiler GCC version 9.2.1 20190827 (Red Hat 9.2.1-1)
REM options -cpp -mtune=generic -march=x86-64 -g -O0 -fpre-include=/usr/include/finclude/math-vector-fortran.h
REM seed 800590228 -1998796476 1736670617 -648493370 -47803514 -1955529203 -542165361 -140305621 -934939170 -1722314190 -1249578657 12880227 1060216135 1848815525 -1424212621 312934574 1213110662 1508213362 1400668203 -1300956802 -305133413 -2093383475 1035808587 1416237695 505226759 -142335631 885912170 -1532309484 -239134893 -2026163637 -398476029 -161102116 -1974996195
REM
CELL 1.54180   15.00000   15.00000   15.00000   90.00000   90.00000   90.00000
LATT -1
SFAC C  
C      1  0.6828420000000  0.5486960000000  0.6744800000000 1.0
C      1  0.6828420000000  0.3255200000000  0.5486960000000 1.0
C      1  0.6828420000000  0.4513040000000  0.3255200000000 1.0
C      1  0.6828420000000  0.6744810000000  0.4513040000000 1.0
C      1  0.3116990000000  0.5079800000000  0.6838260000000 1.0
C      1  0.3116990000000  0.3161740000000  0.5079800000000 1.0
C      1  0.3116990000000  0.4920200000000  0.3161740000000 1.0
C      1  0.3116990000000  0.6838260000000  0.4920200000000 1.0
C      1  0.5905150000000  0.5533850000000  0.7065750000000 1.0
C      1  0.5905150000000  0.2934250000000  0.5533850000000 1.0
C      1  0.5905150000000  0.4466150000000  0.2934250000000 1.0
C      1  0.5905150000000  0.7065750000000  0.4466150000000 1.0
C      1  0.4042260000000  0.5099430000000  0.7130190000000 1.0
C      1  0.4042260000000  0.2869810000000  0.5099430000000 1.0
C      1  0.4042260000000  0.4900570000000  0.2869810000000 1.0
C      1  0.4042260000000  0.7130190000000  0.4900570000000 1.0
C      1  0.5849720000000  0.7121250000000  0.5436040000000 1.0
C      1  0.5849720000000  0.4563960000000  0.7121250000000 1.0
C      1  0.5849720000000  0.2878750000000  0.4563960000000 1.0
C      1  0.5849720000000  0.5436040000000  0.2878750000000 1.0
C      1  0.4216800000000  0.7050160000000  0.5827690000000 1.0
C      1  0.4216800000000  0.4172310000000  0.7050160000000 1.0
C      1  0.4216800000000  0.2949840000000  0.4172310000000 1.0
C      1  0.4216800000000  0.5827690000000  0.2949840000000 1.0
C      1  0.4495290000000  0.4489500000000  0.3622970000000 1.0
C      1  0.4495290000000  0.6377030000000  0.4489500000000 1.0
C      1  0.4495290000000  0.5510500000000  0.6377030000000 1.0
C      1  0.4495290000000  0.3622970000000  0.5510500000000 1.0
C      1  0.5344170000000  0.4117650000000  0.3703060000000 1.0
C      1  0.5344170000000  0.6296940000000  0.4117650000000 1.0
C      1  0.5344170000000  0.5882350000000  0.6296940000000 1.0
C      1  0.5344170000000  0.3703060000000  0.5882350000000 1.0
C      1  0.3277380000000  0.6615130000000  0.5860750000000 1.0
C      1  0.3277380000000  0.4139250000000  0.6615130000000 1.0
C      1  0.3277380000000  0.3384870000000  0.4139250000000 1.0
C      1  0.3277380000000  0.5860750000000  0.3384870000000 1.0
C      1  0.6746960000000  0.6727110000000  0.5490140000000 1.0
C      1  0.6746960000000  0.4509870000000  0.6727110000000 1.0
C      1  0.6746960000000  0.3272890000000  0.4509870000000 1.0
C      1  0.6746960000000  0.5490140000000  0.3272890000000 1.0
C      1  0.3086190000000  0.6122020000000  0.4288130000000 1.0
C      1  0.3086190000000  0.5711870000000  0.6122020000000 1.0
C      1  0.3086190000000  0.3877980000000  0.5711870000000 1.0
C      1  0.3086190000000  0.4288130000000  0.3877980000000 1.0
C      1  0.6826100000000  0.5907520000000  0.4106140000000 1.0
C      1  0.6826100000000  0.5893860000000  0.5907520000000 1.0
C      1  0.6826100000000  0.4092480000000  0.5893860000000 1.0
C      1  0.6826100000000  0.4106140000000  0.4092480000000 1.0
C      1  0.3893920000000  0.4377660000000  0.5345070000000 1.0
C      1  0.3893910000000  0.4654930000000  0.4377660000000 1.0
C      1  0.3893920000000  0.5622340000000  0.4654930000000 1.0
C      1  0.3893920000000  0.5345070000000  0.5622340000000 1.0
C      1  0.5968300000000  0.4458360000000  0.5452950000000 1.0
C      1  0.5968300000000  0.4547050000000  0.4458360000000 1.0
C      1  0.5968300000000  0.5541640000000  0.4547050000000 1.0
C      1  0.5968300000000  0.5452950000000  0.5541640000000 1.0
C      1  0.5145100000000  0.6803620000000  0.5996000000000 1.0
C      1  0.5145100000000  0.4004000000000  0.6803620000000 1.0
C      1  0.5145100000000  0.5996000000000  0.3196380000000 1.0
C      1  0.5145100000000  0.3196380000000  0.4004000000000 1.0
END
