TITL C-2159252-5904-417 -0.00304662617220994 3375 -409.675646996369 0 0 60 (C1) n - 1
REM
REM in /scratch/bkarasulu/870
REM
REM
REM
REM
REM
REM ./C.cell (a2850807a9bf4ad07a5b6933b78d9264)
REM AIRSS Version 0.9.1 bugfix July 2018 build 013d7b7c2542+ Fri, 06 Jul 2018 19:26:36 +0100
REM compiler GCC version 9.2.1 20190827 (Red Hat 9.2.1-1)
REM options -cpp -mtune=generic -march=x86-64 -g -O0 -fpre-include=/usr/include/finclude/math-vector-fortran.h
REM seed 781594226 865843389 -193651981 636289171 306569076 -1302635674 -1225970625 1112115673 -1642210509 734205552 -180724467 -779377521 1000142552 -650332301 -1616831326 1007191142 665253685 2108355939 1595420298 879953379 1432801293 -846835590 -357551659 1685068898 -1487901020 -859139536 -470345602 -1187864819 158206844 603878903 -1862020662 199615700 -1964666480
REM
CELL 1.54180   15.00000   15.00000   15.00000   90.00000   90.00000   90.00000
LATT -1
SFAC C  
C      1  0.7329630000000  0.3663540000000  0.6288110000000 1.0
C      1  0.5368370000000  0.2134550000000  0.6116400000000 1.0
C      1  0.2973880000000  0.2799700000000  0.5989650000000 1.0
C      1  0.2202980000000  0.5148550000000  0.6154490000000 1.0
C      1  0.3475800000000  0.7295140000000  0.6259120000000 1.0
C      1  0.5905680000000  0.7792490000000  0.6083240000000 1.0
C      1  0.7743010000000  0.6118170000000  0.6043510000000 1.0
C      1  0.4411200000000  0.4172040000000  0.2859850000000 1.0
C      1  0.3886100000000  0.4977360000000  0.2844870000000 1.0
C      1  0.4219040000000  0.5863790000000  0.2853040000000 1.0
C      1  0.5150180000000  0.6076820000000  0.2884710000000 1.0
C      1  0.5964460000000  0.5546560000000  0.2859570000000 1.0
C      1  0.6097020000000  0.4588270000000  0.2829530000000 1.0
C      1  0.5358900000000  0.3973860000000  0.2840480000000 1.0
C      1  0.6921410000000  0.5130530000000  0.5068020000000 1.0
C      1  0.6303110000000  0.3578250000000  0.5054540000000 1.0
C      1  0.4676490000000  0.3014090000000  0.4989070000000 1.0
C      1  0.3214800000000  0.4016630000000  0.4958150000000 1.0
C      1  0.3115700000000  0.5745690000000  0.4959870000000 1.0
C      1  0.4385800000000  0.6902170000000  0.5029760000000 1.0
C      1  0.6118310000000  0.6635040000000  0.5042970000000 1.0
C      1  0.5239790000000  0.6723240000000  0.3612850000000 1.0
C      1  0.6508590000000  0.5862630000000  0.3611840000000 1.0
C      1  0.6672010000000  0.4349200000000  0.3597780000000 1.0
C      1  0.5528190000000  0.3357950000000  0.3590500000000 1.0
C      1  0.4020220000000  0.3621730000000  0.3562070000000 1.0
C      1  0.3187840000000  0.4924070000000  0.3532710000000 1.0
C      1  0.3743550000000  0.6357100000000  0.3562370000000 1.0
C      1  0.6038910000000  0.5087470000000  0.5546040000000 1.0
C      1  0.5671420000000  0.4205770000000  0.5485570000000 1.0
C      1  0.4773640000000  0.3883520000000  0.5462230000000 1.0
C      1  0.3990990000000  0.4414060000000  0.5421470000000 1.0
C      1  0.4030790000000  0.5369020000000  0.5203330000000 1.0
C      1  0.4669090000000  0.6059050000000  0.5456760000000 1.0
C      1  0.5604480000000  0.5931710000000  0.5536560000000 1.0
C      1  0.6330610000000  0.3583410000000  0.4087290000000 1.0
C      1  0.4705500000000  0.3122590000000  0.4036940000000 1.0
C      1  0.3285200000000  0.4083830000000  0.4008700000000 1.0
C      1  0.3077940000000  0.5783910000000  0.4000010000000 1.0
C      1  0.4387200000000  0.6879890000000  0.4072460000000 1.0
C      1  0.6069560000000  0.6580590000000  0.4086780000000 1.0
C      1  0.6926470000000  0.5133990000000  0.4097830000000 1.0
C      1  0.6146910000000  0.2434360000000  0.6175060000000 1.0
C      1  0.3667850000000  0.2331660000000  0.6001630000000 1.0
C      1  0.2185910000000  0.4313740000000  0.6113520000000 1.0
C      1  0.2909070000000  0.6683910000000  0.6241250000000 1.0
C      1  0.5075080000000  0.7873010000000  0.6130320000000 1.0
C      1  0.7358020000000  0.6862860000000  0.6013870000000 1.0
C      1  0.7695410000000  0.4410670000000  0.6245640000000 1.0
C      1  0.4270140000000  0.7528010000000  0.5766420000000 1.0
C      1  0.6558160000000  0.7236380000000  0.5665650000000 1.0
C      1  0.7613250000000  0.5227330000000  0.5747170000000 1.0
C      1  0.6709620000000  0.3110720000000  0.5810430000000 1.0
C      1  0.4552820000000  0.2323040000000  0.5654380000000 1.0
C      1  0.2650890000000  0.3621850000000  0.5635060000000 1.0
C      1  0.2612470000000  0.5914560000000  0.5767250000000 1.0
C      1  0.4522640000000  0.5236220000000  0.4328200000000 1.0
C      1  0.5640870000000  0.5547670000000  0.7437640000000 1.0
C      1  0.5242000000000  0.4894430000000  0.4172860000000 1.0
C      1  0.5142780000000  0.5251240000000  0.6824320000000 1.0
END
