TITL C-2159255-4746-541 -0.00464692922831634 3375 -421.057026493504 0 0 60 (C6h) n - 1
REM
REM in /scratch/bkarasulu/871
REM
REM
REM
REM
REM
REM ./C.cell (a2850807a9bf4ad07a5b6933b78d9264)
REM AIRSS Version 0.9.1 bugfix July 2018 build 013d7b7c2542+ Fri, 06 Jul 2018 19:26:36 +0100
REM compiler GCC version 9.2.1 20190827 (Red Hat 9.2.1-1)
REM options -cpp -mtune=generic -march=x86-64 -g -O0 -fpre-include=/usr/include/finclude/math-vector-fortran.h
REM seed -1434696833 1083272161 1221902676 -2144084716 1574771731 -1239435744 296994184 1168360608 930681664 1175253895 -1647669305 -1348844991 -1666971527 -1327492189 -776934304 -1194945549 -1275167153 1163353700 519627758 -945506427 -1248364087 1005989650 -1351220444 -1300656582 1596112301 545958495 1073759157 -274392013 403017091 -458197403 146997275 -959672782 -961885362
REM
CELL 1.54180   15.00000   15.00000   15.00000   90.00000   90.00000   90.00000
LATT -1
SFAC C  
C      1  0.2442630000000  0.5467390000000  0.4198170000000 1.0
C      1  0.4126120000000  0.7448400000000  0.4198180000000 1.0
C      1  0.6683420000000  0.6980980000000  0.4198190000000 1.0
C      1  0.7557370000000  0.4532610000000  0.4198170000000 1.0
C      1  0.5873880000000  0.2551600000000  0.4198180000000 1.0
C      1  0.3316580000000  0.3019020000000  0.4198190000000 1.0
C      1  0.7557370000000  0.5467390000000  0.4198170000000 1.0
C      1  0.5873880000000  0.7448400000000  0.4198180000000 1.0
C      1  0.3316580000000  0.6980980000000  0.4198190000000 1.0
C      1  0.2442630000000  0.4532610000000  0.4198170000000 1.0
C      1  0.4126120000000  0.2551600000000  0.4198180000000 1.0
C      1  0.6683420000000  0.3019020000000  0.4198190000000 1.0
C      1  0.3224530000000  0.5499720000000  0.3556570000000 1.0
C      1  0.4545060000000  0.6787440000000  0.3556570000000 1.0
C      1  0.6320490000000  0.6287700000000  0.3556580000000 1.0
C      1  0.6775470000000  0.4500280000000  0.3556570000000 1.0
C      1  0.5454940000000  0.3212560000000  0.3556570000000 1.0
C      1  0.3679510000000  0.3712300000000  0.3556580000000 1.0
C      1  0.6775470000000  0.5499720000000  0.3556570000000 1.0
C      1  0.5454940000000  0.6787440000000  0.3556570000000 1.0
C      1  0.3679510000000  0.6287700000000  0.3556580000000 1.0
C      1  0.3224530000000  0.4500280000000  0.3556570000000 1.0
C      1  0.4545060000000  0.3212560000000  0.3556570000000 1.0
C      1  0.6320490000000  0.3712300000000  0.3556580000000 1.0
C      1  0.4545060000000  0.6787440000000  0.6443430000000 1.0
C      1  0.6320490000000  0.6287700000000  0.6443420000000 1.0
C      1  0.6775470000000  0.4500280000000  0.6443430000000 1.0
C      1  0.5454940000000  0.3212560000000  0.6443430000000 1.0
C      1  0.3679510000000  0.3712300000000  0.6443420000000 1.0
C      1  0.3224530000000  0.5499720000000  0.6443430000000 1.0
C      1  0.5454940000000  0.6787440000000  0.6443430000000 1.0
C      1  0.3679510000000  0.6287700000000  0.6443420000000 1.0
C      1  0.3224530000000  0.4500280000000  0.6443430000000 1.0
C      1  0.4545060000000  0.3212560000000  0.6443430000000 1.0
C      1  0.6320490000000  0.3712300000000  0.6443420000000 1.0
C      1  0.6775470000000  0.5499720000000  0.6443430000000 1.0
C      1  0.2398190000000  0.4040500000000  0.5000000000000 1.0
C      1  0.2868160000000  0.6773420000000  0.5000000000000 1.0
C      1  0.5469930000000  0.7732980000000  0.5000000000000 1.0
C      1  0.7601810000000  0.5959500000000  0.5000000000000 1.0
C      1  0.7131840000000  0.3226580000000  0.5000000000000 1.0
C      1  0.4530070000000  0.2267020000000  0.5000000000000 1.0
C      1  0.7601810000000  0.4040500000000  0.5000000000000 1.0
C      1  0.7131840000000  0.6773420000000  0.5000000000000 1.0
C      1  0.4530070000000  0.7732980000000  0.5000000000000 1.0
C      1  0.2398190000000  0.5959500000000  0.5000000000000 1.0
C      1  0.2868160000000  0.3226580000000  0.5000000000000 1.0
C      1  0.5469930000000  0.2267020000000  0.5000000000000 1.0
C      1  0.6683420000000  0.3019020000000  0.5801810000000 1.0
C      1  0.4126120000000  0.2551600000000  0.5801820000000 1.0
C      1  0.2442630000000  0.4532610000000  0.5801830000000 1.0
C      1  0.3316580000000  0.6980980000000  0.5801810000000 1.0
C      1  0.5873880000000  0.7448400000000  0.5801820000000 1.0
C      1  0.7557370000000  0.5467390000000  0.5801830000000 1.0
C      1  0.3316580000000  0.3019020000000  0.5801810000000 1.0
C      1  0.5873880000000  0.2551600000000  0.5801820000000 1.0
C      1  0.7557370000000  0.4532610000000  0.5801830000000 1.0
C      1  0.6683420000000  0.6980980000000  0.5801810000000 1.0
C      1  0.4126120000000  0.7448400000000  0.5801820000000 1.0
C      1  0.2442630000000  0.5467390000000  0.5801830000000 1.0
END
