TITL C-2158988-7926-12 -0.00230741965761946 3375 -396.659359047681 0 0 60 (C1) n - 1
REM
REM in /scratch/bkarasulu/868
REM
REM
REM
REM
REM
REM ./C.cell (a2850807a9bf4ad07a5b6933b78d9264)
REM AIRSS Version 0.9.1 bugfix July 2018 build 013d7b7c2542+ Fri, 06 Jul 2018 19:26:36 +0100
REM compiler GCC version 9.2.1 20190827 (Red Hat 9.2.1-1)
REM options -cpp -mtune=generic -march=x86-64 -g -O0 -fpre-include=/usr/include/finclude/math-vector-fortran.h
REM seed -1400890454 1439658395 -1753964958 -815294622 -535251762 137513445 -1347211459 -17482093 -271440501 -1697768750 -1288215224 -905464168 2130162076 473291971 1733223387 1228602682 -1821638502 -2073834644 -910942007 247719569 -1960909169 -1648200567 -312884811 -1812836712 542360090 823362406 1013744239 2045385 -1303502355 -718558301 -1594080593 579072996 -655708617
REM
CELL 1.54180   15.00000   15.00000   15.00000   90.00000   90.00000   90.00000
LATT -1
SFAC C  
C      1  0.3213980000000  0.3767910000000  0.4260370000000 1.0
C      1  0.3209890000000  0.3393970000000  0.5706220000000 1.0
C      1  0.3753880000000  0.3495280000000  0.6478840000000 1.0
C      1  0.5785190000000  0.3637730000000  0.6868430000000 1.0
C      1  0.6920140000000  0.3806900000000  0.5027060000000 1.0
C      1  0.6243920000000  0.3957400000000  0.3630550000000 1.0
C      1  0.4111780000000  0.3859100000000  0.2974650000000 1.0
C      1  0.6651510000000  0.5578770000000  0.4271890000000 1.0
C      1  0.5681490000000  0.5406380000000  0.2571220000000 1.0
C      1  0.4226230000000  0.5459320000000  0.3378210000000 1.0
C      1  0.3043490000000  0.5456080000000  0.4484360000000 1.0
C      1  0.3729920000000  0.5438830000000  0.6427270000000 1.0
C      1  0.5445390000000  0.5798900000000  0.7148140000000 1.0
C      1  0.6857570000000  0.5782650000000  0.6109910000000 1.0
C      1  0.5195280000000  0.7481950000000  0.4391260000000 1.0
C      1  0.4377230000000  0.7256990000000  0.4005900000000 1.0
C      1  0.3746720000000  0.7102010000000  0.4774060000000 1.0
C      1  0.3974580000000  0.7075210000000  0.5817060000000 1.0
C      1  0.4883400000000  0.7043720000000  0.6063230000000 1.0
C      1  0.6183510000000  0.6993430000000  0.5303630000000 1.0
C      1  0.6134180000000  0.7154250000000  0.4344200000000 1.0
C      1  0.5995520000000  0.3423040000000  0.5125690000000 1.0
C      1  0.5633830000000  0.3491990000000  0.4183610000000 1.0
C      1  0.4707890000000  0.3729660000000  0.3826540000000 1.0
C      1  0.4119320000000  0.3686030000000  0.4623040000000 1.0
C      1  0.4041700000000  0.2870680000000  0.5221520000000 1.0
C      1  0.4567430000000  0.3074290000000  0.6069340000000 1.0
C      1  0.5506260000000  0.3309600000000  0.6023880000000 1.0
C      1  0.5568940000000  0.6191610000000  0.3167860000000 1.0
C      1  0.4665910000000  0.6301110000000  0.3612900000000 1.0
C      1  0.3614660000000  0.6128660000000  0.4897100000000 1.0
C      1  0.3581250000000  0.6205700000000  0.5907210000000 1.0
C      1  0.5563090000000  0.6630940000000  0.6653150000000 1.0
C      1  0.6420360000000  0.6660880000000  0.6145010000000 1.0
C      1  0.6287950000000  0.6375550000000  0.3804970000000 1.0
C      1  0.7037180000000  0.4044570000000  0.4095920000000 1.0
C      1  0.4456440000000  0.4384730000000  0.2314350000000 1.0
C      1  0.3307390000000  0.4212540000000  0.3431280000000 1.0
C      1  0.2704980000000  0.3962910000000  0.5051320000000 1.0
C      1  0.3485170000000  0.4054100000000  0.7205350000000 1.0
C      1  0.5857900000000  0.4290520000000  0.7413550000000 1.0
C      1  0.7489040000000  0.4646050000000  0.5255280000000 1.0
C      1  0.3425730000000  0.4910330000000  0.7120480000000 1.0
C      1  0.5775760000000  0.5150770000000  0.7665280000000 1.0
C      1  0.7572020000000  0.5259650000000  0.5900690000000 1.0
C      1  0.7370260000000  0.4931270000000  0.4291440000000 1.0
C      1  0.5022910000000  0.4988020000000  0.2047150000000 1.0
C      1  0.3383940000000  0.5144860000000  0.3635080000000 1.0
C      1  0.2499860000000  0.4844790000000  0.4949980000000 1.0
C      1  0.6004870000000  0.5159210000000  0.4891870000000 1.0
C      1  0.5783800000000  0.4685750000000  0.3213140000000 1.0
C      1  0.4945690000000  0.4735070000000  0.3710940000000 1.0
C      1  0.4521000000000  0.4499130000000  0.5226190000000 1.0
C      1  0.4498180000000  0.4940760000000  0.6060250000000 1.0
C      1  0.5297370000000  0.5394870000000  0.6268130000000 1.0
C      1  0.6091240000000  0.5286600000000  0.5797690000000 1.0
C      1  0.5189420000000  0.6830890000000  0.5177990000000 1.0
C      1  0.3936540000000  0.2063270000000  0.4771690000000 1.0
C      1  0.4695640000000  0.6011990000000  0.4638160000000 1.0
C      1  0.5075350000000  0.5073830000000  0.4662190000000 1.0
END
