TITL C-2159252-5904-6 -0.00724993936308678 3375 -414.7368213014 0 0 60 (Cs) n - 1
REM
REM in /scratch/bkarasulu/870
REM
REM
REM
REM
REM
REM ./C.cell (a2850807a9bf4ad07a5b6933b78d9264)
REM AIRSS Version 0.9.1 bugfix July 2018 build 013d7b7c2542+ Fri, 06 Jul 2018 19:26:36 +0100
REM compiler GCC version 9.2.1 20190827 (Red Hat 9.2.1-1)
REM options -cpp -mtune=generic -march=x86-64 -g -O0 -fpre-include=/usr/include/finclude/math-vector-fortran.h
REM seed -243988130 -688785690 -799621456 -1740179527 729732554 124471252 1122274755 1963084989 -938030669 -1742365494 594406055 -614791105 -1952105782 -1579211985 801675066 -1112535832 -796998590 -469079004 1971748774 -350259311 -1025780744 502086473 1323791018 866200228 477017673 1092795550 -1133837421 898487825 -1202512958 471003153 -567051585 -803950402 1481110893
REM
CELL 1.54180   15.00000   15.00000   15.00000   90.00000   90.00000   90.00000
LATT -1
SFAC C  
C      1  0.3743660000000  0.3937080000000  0.3668750000000 1.0
C      1  0.3742160000000  0.4844050000000  0.3319420000000 1.0
C      1  0.3723270000000  0.5795080000000  0.3508400000000 1.0
C      1  0.3713660000000  0.6488870000000  0.4183200000000 1.0
C      1  0.3723250000000  0.6700520000000  0.5127590000000 1.0
C      1  0.3742190000000  0.6363540000000  0.6036770000000 1.0
C      1  0.3743650000000  0.5591060000000  0.6626580000000 1.0
C      1  0.3730670000000  0.4626250000000  0.6709410000000 1.0
C      1  0.3726220000000  0.3775640000000  0.6253100000000 1.0
C      1  0.3726170000000  0.3304700000000  0.5410950000000 1.0
C      1  0.3730660000000  0.3361330000000  0.4447360000000 1.0
C      1  0.6005040000000  0.2835000000000  0.7182110000000 1.0
C      1  0.6004900000000  0.2020180000000  0.5725930000000 1.0
C      1  0.6048340000000  0.2165460000000  0.4064480000000 1.0
C      1  0.6091740000000  0.3199550000000  0.2746530000000 1.0
C      1  0.6087820000000  0.4780140000000  0.2158540000000 1.0
C      1  0.6026050000000  0.6426980000000  0.2409710000000 1.0
C      1  0.5993360000000  0.7638290000000  0.3540530000000 1.0
C      1  0.6025980000000  0.7967700000000  0.5164500000000 1.0
C      1  0.6087870000000  0.7318960000000  0.6698920000000 1.0
C      1  0.6091690000000  0.5990660000000  0.7738030000000 1.0
C      1  0.6048360000000  0.4326440000000  0.7928740000000 1.0
C      1  0.4648130000000  0.2103730000000  0.4864050000000 1.0
C      1  0.4696000000000  0.2678160000000  0.3359520000000 1.0
C      1  0.4725520000000  0.3976340000000  0.2407270000000 1.0
C      1  0.4678640000000  0.5575470000000  0.2236270000000 1.0
C      1  0.4626300000000  0.7013570000000  0.2964950000000 1.0
C      1  0.4626230000000  0.7801600000000  0.4374020000000 1.0
C      1  0.4678660000000  0.7669310000000  0.5980740000000 1.0
C      1  0.4725540000000  0.6686320000000  0.7253620000000 1.0
C      1  0.4695940000000  0.5195380000000  0.7861160000000 1.0
C      1  0.4648250000000  0.3612860000000  0.7562510000000 1.0
C      1  0.4628400000000  0.2454900000000  0.6438860000000 1.0
C      1  0.4243180000000  0.6197970000000  0.2762920000000 1.0
C      1  0.4221990000000  0.7233500000000  0.3766830000000 1.0
C      1  0.4243150000000  0.7546630000000  0.5174670000000 1.0
C      1  0.4283590000000  0.7036320000000  0.6522440000000 1.0
C      1  0.4293850000000  0.5885020000000  0.7393930000000 1.0
C      1  0.4252250000000  0.4449880000000  0.7540920000000 1.0
C      1  0.4225780000000  0.3169610000000  0.6868490000000 1.0
C      1  0.4225710000000  0.2463020000000  0.5605040000000 1.0
C      1  0.4252230000000  0.2560550000000  0.4162270000000 1.0
C      1  0.4293880000000  0.3437270000000  0.3016550000000 1.0
C      1  0.4283550000000  0.4782540000000  0.2491900000000 1.0
C      1  0.5610140000000  0.2358690000000  0.6492610000000 1.0
C      1  0.5632450000000  0.2009100000000  0.4877580000000 1.0
C      1  0.5682920000000  0.2617590000000  0.3340910000000 1.0
C      1  0.5709120000000  0.3962430000000  0.2372370000000 1.0
C      1  0.5666400000000  0.5606450000000  0.2183120000000 1.0
C      1  0.5611870000000  0.7090240000000  0.2902720000000 1.0
C      1  0.5611790000000  0.7894860000000  0.4341320000000 1.0
C      1  0.5666410000000  0.7730830000000  0.5982160000000 1.0
C      1  0.5709140000000  0.6708760000000  0.7283740000000 1.0
C      1  0.5682850000000  0.5179580000000  0.7922600000000 1.0
C      1  0.5632580000000  0.3551880000000  0.7635910000000 1.0
C      1  0.3695290000000  0.4920780000000  0.5060040000000 1.0
C      1  0.7008400000000  0.4891430000000  0.5076840000000 1.0
C      1  0.6206840000000  0.5149770000000  0.4932050000000 1.0
C      1  0.4566180000000  0.4985130000000  0.5024040000000 1.0
C      1  0.5338500000000  0.5308370000000  0.4843290000000 1.0
END
