TITL C-2159255-4746-738 -0.0027996481023845 3375 -398.513909018975 0 0 60 (C1) n - 1
REM
REM in /scratch/bkarasulu/871
REM
REM
REM
REM
REM
REM ./C.cell (a2850807a9bf4ad07a5b6933b78d9264)
REM AIRSS Version 0.9.1 bugfix July 2018 build 013d7b7c2542+ Fri, 06 Jul 2018 19:26:36 +0100
REM compiler GCC version 9.2.1 20190827 (Red Hat 9.2.1-1)
REM options -cpp -mtune=generic -march=x86-64 -g -O0 -fpre-include=/usr/include/finclude/math-vector-fortran.h
REM seed -1179101125 1416236322 -1507552204 -1820779624 -1749661774 320732591 172637491 -2045533076 1001582805 -335748104 -891004314 -298785165 -691880812 -1020444372 -1245464112 -115318489 -1721081978 917311988 157465927 730484096 1661630551 703622941 1344780271 160391533 16764014 1724912538 -41447696 -865468970 30566364 -1627325639 1726601975 812390254 1263824949
REM
CELL 1.54180   15.00000   15.00000   15.00000   90.00000   90.00000   90.00000
LATT -1
SFAC C  
C      1  0.2114300000000  0.5799080000000  0.4061100000000 1.0
C      1  0.3878400000000  0.5338010000000  0.3030180000000 1.0
C      1  0.6206210000000  0.5297300000000  0.3341470000000 1.0
C      1  0.7027740000000  0.5372400000000  0.5035260000000 1.0
C      1  0.6387960000000  0.5272480000000  0.6647740000000 1.0
C      1  0.4651850000000  0.5275070000000  0.7141980000000 1.0
C      1  0.3271270000000  0.5503500000000  0.6105580000000 1.0
C      1  0.7114990000000  0.4785580000000  0.6927860000000 1.0
C      1  0.4821760000000  0.4697520000000  0.7840760000000 1.0
C      1  0.2672070000000  0.5036310000000  0.6597860000000 1.0
C      1  0.2003970000000  0.4947650000000  0.4113070000000 1.0
C      1  0.3745230000000  0.4774270000000  0.2263940000000 1.0
C      1  0.6305620000000  0.4814790000000  0.2574410000000 1.0
C      1  0.7765940000000  0.4981880000000  0.4639140000000 1.0
C      1  0.3811290000000  0.3923220000000  0.2339980000000 1.0
C      1  0.6291480000000  0.3976230000000  0.2326990000000 1.0
C      1  0.7922850000000  0.4180220000000  0.4369180000000 1.0
C      1  0.7330290000000  0.3948380000000  0.6846780000000 1.0
C      1  0.5011530000000  0.3855540000000  0.7927110000000 1.0
C      1  0.2734710000000  0.4170740000000  0.6695160000000 1.0
C      1  0.2175560000000  0.4117080000000  0.4272320000000 1.0
C      1  0.5612770000000  0.6642600000000  0.7153000000000 1.0
C      1  0.4433060000000  0.6488930000000  0.6091290000000 1.0
C      1  0.3544990000000  0.6239270000000  0.4797010000000 1.0
C      1  0.3463710000000  0.6191310000000  0.3263540000000 1.0
C      1  0.5034930000000  0.6404050000000  0.3698310000000 1.0
C      1  0.6559500000000  0.6585140000000  0.4131400000000 1.0
C      1  0.6019800000000  0.6486420000000  0.5643230000000 1.0
C      1  0.4357400000000  0.3816680000000  0.6499310000000 1.0
C      1  0.3488610000000  0.4030720000000  0.5348260000000 1.0
C      1  0.3674860000000  0.3942320000000  0.3875440000000 1.0
C      1  0.5032510000000  0.3660700000000  0.3313600000000 1.0
C      1  0.6390420000000  0.3751840000000  0.3893020000000 1.0
C      1  0.6703340000000  0.3763470000000  0.5299080000000 1.0
C      1  0.5812930000000  0.3729060000000  0.6441710000000 1.0
C      1  0.5968100000000  0.6210100000000  0.3541350000000 1.0
C      1  0.6663430000000  0.6255710000000  0.4966510000000 1.0
C      1  0.6178640000000  0.6211600000000  0.6559130000000 1.0
C      1  0.4831280000000  0.6207300000000  0.6962380000000 1.0
C      1  0.3539980000000  0.6336500000000  0.5791200000000 1.0
C      1  0.2939150000000  0.6255430000000  0.4070470000000 1.0
C      1  0.4333270000000  0.6268430000000  0.3105030000000 1.0
C      1  0.5699220000000  0.4677660000000  0.6023400000000 1.0
C      1  0.4699140000000  0.4744500000000  0.6200030000000 1.0
C      1  0.3997660000000  0.4914760000000  0.5501600000000 1.0
C      1  0.4165680000000  0.4841410000000  0.3906800000000 1.0
C      1  0.5020820000000  0.4424980000000  0.3862550000000 1.0
C      1  0.5911510000000  0.4626920000000  0.4164180000000 1.0
C      1  0.6220260000000  0.4666360000000  0.5144910000000 1.0
C      1  0.6706620000000  0.3530710000000  0.6217350000000 1.0
C      1  0.5084180000000  0.3499920000000  0.7003750000000 1.0
C      1  0.3463760000000  0.3700030000000  0.6247700000000 1.0
C      1  0.3034350000000  0.3777690000000  0.4536410000000 1.0
C      1  0.4113880000000  0.3511140000000  0.3124170000000 1.0
C      1  0.5941990000000  0.3506690000000  0.3097710000000 1.0
C      1  0.7129420000000  0.3611950000000  0.4463020000000 1.0
C      1  0.4954950000000  0.3305680000000  0.4994890000000 1.0
C      1  0.4726820000000  0.6262700000000  0.4590660000000 1.0
C      1  0.5100140000000  0.6580220000000  0.5414120000000 1.0
C      1  0.4155230000000  0.5444700000000  0.4683200000000 1.0
END
