TITL C-2159255-4746-116 -0.00178301068199507 3375 -405.498089756248 0 0 60 (S4) n - 1
REM
REM in /scratch/bkarasulu/871
REM
REM
REM
REM
REM
REM ./C.cell (a2850807a9bf4ad07a5b6933b78d9264)
REM AIRSS Version 0.9.1 bugfix July 2018 build 013d7b7c2542+ Fri, 06 Jul 2018 19:26:36 +0100
REM compiler GCC version 9.2.1 20190827 (Red Hat 9.2.1-1)
REM options -cpp -mtune=generic -march=x86-64 -g -O0 -fpre-include=/usr/include/finclude/math-vector-fortran.h
REM seed -712719959 -1335840059 1069845209 -1112085138 1201212623 922151522 9118424 537843533 -835990913 1719017255 2081031575 1998706189 -563258056 -167245572 -8343050 -1940880099 -1694484737 -666832701 1685668531 1290643811 -697527163 587320362 -1367624005 -1570091325 520032159 -1463167958 1547008476 -1391454294 307791894 1203363894 -1038904962 1052181668 1140477919
REM
CELL 1.54180   15.00000   15.00000   15.00000   90.00000   90.00000   90.00000
LATT -1
SFAC C  
C      1  0.7263870000000  0.4065430000000  0.5775920000000 1.0
C      1  0.2736130000000  0.4224080000000  0.4065430000000 1.0
C      1  0.7263870000000  0.5934570000000  0.4224080000000 1.0
C      1  0.2736130000000  0.5775920000000  0.5934570000000 1.0
C      1  0.5352360000000  0.4473940000000  0.4163210000000 1.0
C      1  0.4647640000000  0.5836790000000  0.4473940000000 1.0
C      1  0.5352360000000  0.5526060000000  0.5836790000000 1.0
C      1  0.4647640000000  0.4163210000000  0.5526060000000 1.0
C      1  0.3951320000000  0.3556870000000  0.4224450000000 1.0
C      1  0.6048680000000  0.5775550000000  0.3556870000000 1.0
C      1  0.3951320000000  0.6443130000000  0.5775550000000 1.0
C      1  0.6048680000000  0.4224450000000  0.6443130000000 1.0
C      1  0.4816860000000  0.4999050000000  0.2866730000000 1.0
C      1  0.5183140000000  0.7133270000000  0.4999050000000 1.0
C      1  0.4816860000000  0.5000950000000  0.7133270000000 1.0
C      1  0.5183140000000  0.2866730000000  0.5000950000000 1.0
C      1  0.4466160000000  0.4319250000000  0.4567660000000 1.0
C      1  0.5533840000000  0.5432340000000  0.4319250000000 1.0
C      1  0.4466160000000  0.5680750000000  0.5432340000000 1.0
C      1  0.5533840000000  0.4567660000000  0.5680750000000 1.0
C      1  0.5032230000000  0.3355100000000  0.7415590000000 1.0
C      1  0.4967770000000  0.2584410000000  0.3355100000000 1.0
C      1  0.5032230000000  0.6644900000000  0.2584410000000 1.0
C      1  0.4967770000000  0.7415590000000  0.6644900000000 1.0
C      1  0.6044820000000  0.3261040000000  0.5104060000000 1.0
C      1  0.3955180000000  0.4895940000000  0.3261040000000 1.0
C      1  0.6044820000000  0.6738960000000  0.4895940000000 1.0
C      1  0.3955180000000  0.5104060000000  0.6738960000000 1.0
C      1  0.5217250000000  0.3369240000000  0.3079690000000 1.0
C      1  0.4782750000000  0.6920310000000  0.3369240000000 1.0
C      1  0.5217250000000  0.6630760000000  0.6920310000000 1.0
C      1  0.4782750000000  0.3079690000000  0.6630760000000 1.0
C      1  0.6504650000000  0.3470130000000  0.5911880000000 1.0
C      1  0.3495350000000  0.4088120000000  0.3470130000000 1.0
C      1  0.6504650000000  0.6529870000000  0.4088120000000 1.0
C      1  0.3495350000000  0.5911880000000  0.6529870000000 1.0
C      1  0.3116410000000  0.5690890000000  0.4472710000000 1.0
C      1  0.6883590000000  0.5527290000000  0.5690890000000 1.0
C      1  0.3116410000000  0.4309110000000  0.5527290000000 1.0
C      1  0.6883590000000  0.4472710000000  0.4309110000000 1.0
C      1  0.5337960000000  0.4208710000000  0.7140310000000 1.0
C      1  0.4662040000000  0.2859690000000  0.4208710000000 1.0
C      1  0.5337960000000  0.5791290000000  0.2859690000000 1.0
C      1  0.4662040000000  0.7140310000000  0.5791290000000 1.0
C      1  0.4669930000000  0.3202850000000  0.5736510000000 1.0
C      1  0.5330070000000  0.4263490000000  0.3202850000000 1.0
C      1  0.4669930000000  0.6797150000000  0.4263490000000 1.0
C      1  0.5330070000000  0.5736510000000  0.6797150000000 1.0
C      1  0.3121780000000  0.6286120000000  0.5242610000000 1.0
C      1  0.6878220000000  0.4757390000000  0.6286120000000 1.0
C      1  0.3121780000000  0.3713880000000  0.4757390000000 1.0
C      1  0.6878220000000  0.5242610000000  0.3713880000000 1.0
C      1  0.3948380000000  0.4743440000000  0.5812530000000 1.0
C      1  0.6051620000000  0.4187470000000  0.4743440000000 1.0
C      1  0.3948380000000  0.5256560000000  0.4187470000000 1.0
C      1  0.6051620000000  0.5812530000000  0.5256560000000 1.0
C      1  0.2451460000000  0.4966050000000  0.5505820000000 1.0
C      1  0.7548540000000  0.4494180000000  0.4966050000000 1.0
C      1  0.2451460000000  0.5033950000000  0.4494180000000 1.0
C      1  0.7548540000000  0.5505820000000  0.5033950000000 1.0
END
