TITL C-2158984-8299-1072 -0.00266385448817455 3375 -431.148165891665 0 0 60 (C1) n - 1
REM
REM in /scratch/bkarasulu/869
REM
REM
REM
REM
REM
REM ./C.cell (a2850807a9bf4ad07a5b6933b78d9264)
REM AIRSS Version 0.9.1 bugfix July 2018 build 013d7b7c2542+ Fri, 06 Jul 2018 19:26:36 +0100
REM compiler GCC version 9.2.1 20190827 (Red Hat 9.2.1-1)
REM options -cpp -mtune=generic -march=x86-64 -g -O0 -fpre-include=/usr/include/finclude/math-vector-fortran.h
REM seed 1948657596 414656063 -2078062633 -1068865157 -1181052863 -1231282342 -408887050 1913136352 779512010 -304365232 -1189874785 974370892 -1179543740 642829309 657816894 -1742088608 170975379 -1128528180 -386812009 -1943136609 1159245179 -99288757 -309081317 1336545901 985901434 1869629548 -367889912 1985606021 1017123698 -1331387690 1901283474 -1950480335 1799098187
REM
CELL 1.54180   15.00000   15.00000   15.00000   90.00000   90.00000   90.00000
LATT -1
SFAC C  
C      1  0.6486700000000  0.5382230000000  0.3193540000000 1.0
C      1  0.5871470000000  0.4725110000000  0.2856820000000 1.0
C      1  0.5963480000000  0.3820540000000  0.3146060000000 1.0
C      1  0.5211480000000  0.3263080000000  0.3166040000000 1.0
C      1  0.4247880000000  0.3417210000000  0.3209980000000 1.0
C      1  0.3710510000000  0.4178220000000  0.3229260000000 1.0
C      1  0.4083260000000  0.4990610000000  0.2869080000000 1.0
C      1  0.3716610000000  0.5826420000000  0.3170460000000 1.0
C      1  0.4405220000000  0.6502710000000  0.3201870000000 1.0
C      1  0.5166310000000  0.6094440000000  0.2834340000000 1.0
C      1  0.6037070000000  0.6232250000000  0.3162820000000 1.0
C      1  0.5650300000000  0.2531020000000  0.4602810000000 1.0
C      1  0.3732190000000  0.2831820000000  0.4683190000000 1.0
C      1  0.3098610000000  0.3541150000000  0.4676220000000 1.0
C      1  0.2405350000000  0.5227820000000  0.5056620000000 1.0
C      1  0.3149440000000  0.6452550000000  0.4542680000000 1.0
C      1  0.3819920000000  0.7097380000000  0.4607990000000 1.0
C      1  0.5571160000000  0.7532810000000  0.5081240000000 1.0
C      1  0.6695540000000  0.6639740000000  0.4567800000000 1.0
C      1  0.7210480000000  0.5865000000000  0.4598240000000 1.0
C      1  0.7401060000000  0.4074630000000  0.5047640000000 1.0
C      1  0.6422200000000  0.3055310000000  0.4548190000000 1.0
C      1  0.7231860000000  0.4289860000000  0.4125340000000 1.0
C      1  0.6630510000000  0.3627840000000  0.3802990000000 1.0
C      1  0.5120270000000  0.2569000000000  0.3838620000000 1.0
C      1  0.4180450000000  0.2714210000000  0.3881550000000 1.0
C      1  0.3043040000000  0.4189850000000  0.3942380000000 1.0
C      1  0.2649630000000  0.5027620000000  0.4149030000000 1.0
C      1  0.3045020000000  0.5836920000000  0.3812800000000 1.0
C      1  0.4492470000000  0.7131580000000  0.3909930000000 1.0
C      1  0.5382260000000  0.7373850000000  0.4153980000000 1.0
C      1  0.6130730000000  0.6867530000000  0.3834190000000 1.0
C      1  0.7119490000000  0.5202740000000  0.3882890000000 1.0
C      1  0.6276600000000  0.6960760000000  0.5357320000000 1.0
C      1  0.7304020000000  0.5593710000000  0.5508500000000 1.0
C      1  0.7476760000000  0.4692810000000  0.5710980000000 1.0
C      1  0.6749550000000  0.3448240000000  0.5332980000000 1.0
C      1  0.5207740000000  0.2628550000000  0.5438800000000 1.0
C      1  0.4259630000000  0.2726920000000  0.5479800000000 1.0
C      1  0.2901170000000  0.3804320000000  0.5558080000000 1.0
C      1  0.2495550000000  0.4626360000000  0.5736710000000 1.0
C      1  0.2869900000000  0.6010650000000  0.5329800000000 1.0
C      1  0.4063400000000  0.7236430000000  0.5521270000000 1.0
C      1  0.4933190000000  0.7525200000000  0.5732890000000 1.0
C      1  0.4119790000000  0.6482180000000  0.6201740000000 1.0
C      1  0.5080800000000  0.6715970000000  0.6336080000000 1.0
C      1  0.5997700000000  0.6400670000000  0.6129090000000 1.0
C      1  0.6552100000000  0.5638050000000  0.6194080000000 1.0
C      1  0.6653280000000  0.4646300000000  0.6318080000000 1.0
C      1  0.6212300000000  0.3773500000000  0.6102530000000 1.0
C      1  0.5368840000000  0.3317230000000  0.6141650000000 1.0
C      1  0.4357360000000  0.3401130000000  0.6222820000000 1.0
C      1  0.3623920000000  0.3967070000000  0.6274720000000 1.0
C      1  0.3256110000000  0.4899830000000  0.6360630000000 1.0
C      1  0.3444600000000  0.5833570000000  0.6129310000000 1.0
C      1  0.4994500000000  0.4992490000000  0.4660720000000 1.0
C      1  0.5022490000000  0.5167810000000  0.2661300000000 1.0
C      1  0.4985840000000  0.4980990000000  0.6370620000000 1.0
C      1  0.4991040000000  0.4992760000000  0.7199220000000 1.0
C      1  0.4970880000000  0.4962560000000  0.5482070000000 1.0
END
