TITL C-2158988-7926-730 -0.00352824667267668 3375 -406.827358419221 0 0 60 (Cs) n - 1
REM
REM in /scratch/bkarasulu/868
REM
REM
REM
REM
REM
REM ./C.cell (a2850807a9bf4ad07a5b6933b78d9264)
REM AIRSS Version 0.9.1 bugfix July 2018 build 013d7b7c2542+ Fri, 06 Jul 2018 19:26:36 +0100
REM compiler GCC version 9.2.1 20190827 (Red Hat 9.2.1-1)
REM options -cpp -mtune=generic -march=x86-64 -g -O0 -fpre-include=/usr/include/finclude/math-vector-fortran.h
REM seed 1740016053 2093437577 -129321211 -1217712658 -2147339508 529091379 283348909 -1262377629 -646566134 -203377579 -1063812136 -601933106 -873825630 676243985 -2116604797 -1445670910 -54511070 -1124325131 -1209779132 -1879533830 -1981057319 683693349 860709043 -1301482590 -1090796638 -763102614 -875428871 -726934644 1257835597 -1777097492 -1490194295 -1642243076 -406459151
REM
CELL 1.54180   15.00000   15.00000   15.00000   90.00000   90.00000   90.00000
LATT -1
SFAC C  
C      1  0.5559860000000  0.6312100000000  0.3346920000000 1.0
C      1  0.6380960000000  0.6301080000000  0.3833040000000 1.0
C      1  0.6710850000000  0.6320260000000  0.4722720000000 1.0
C      1  0.6528970000000  0.6336650000000  0.5708830000000 1.0
C      1  0.5903400000000  0.6336550000000  0.6398340000000 1.0
C      1  0.4939600000000  0.6319980000000  0.6675030000000 1.0
C      1  0.4022110000000  0.6300680000000  0.6433020000000 1.0
C      1  0.3458590000000  0.6311710000000  0.5662990000000 1.0
C      1  0.3345670000000  0.6311060000000  0.4670440000000 1.0
C      1  0.3722080000000  0.6301890000000  0.3790830000000 1.0
C      1  0.4561020000000  0.6311310000000  0.3330860000000 1.0
C      1  0.7086360000000  0.5890890000000  0.3256250000000 1.0
C      1  0.7536540000000  0.5818070000000  0.4889550000000 1.0
C      1  0.7371290000000  0.5821130000000  0.5850760000000 1.0
C      1  0.6126460000000  0.5820940000000  0.7222840000000 1.0
C      1  0.5185820000000  0.5817710000000  0.7480590000000 1.0
C      1  0.3516550000000  0.5890320000000  0.7191010000000 1.0
C      1  0.2616080000000  0.5811010000000  0.5751780000000 1.0
C      1  0.2502560000000  0.5812250000000  0.4776820000000 1.0
C      1  0.3047210000000  0.5894510000000  0.3178550000000 1.0
C      1  0.4585160000000  0.5812620000000  0.2481350000000 1.0
C      1  0.5566530000000  0.5811510000000  0.2499720000000 1.0
C      1  0.5473720000000  0.3749590000000  0.6658010000000 1.0
C      1  0.4487800000000  0.3797190000000  0.6625940000000 1.0
C      1  0.3681150000000  0.3799030000000  0.6081000000000 1.0
C      1  0.3279990000000  0.3749220000000  0.5177950000000 1.0
C      1  0.3454050000000  0.3797010000000  0.4204820000000 1.0
C      1  0.4108440000000  0.3797140000000  0.3483530000000 1.0
C      1  0.5060090000000  0.3749540000000  0.3215840000000 1.0
C      1  0.5997780000000  0.3799430000000  0.3527480000000 1.0
C      1  0.6618420000000  0.3797550000000  0.4277450000000 1.0
C      1  0.6746030000000  0.3749790000000  0.5255600000000 1.0
C      1  0.6303820000000  0.3797400000000  0.6132770000000 1.0
C      1  0.2768120000000  0.4458810000000  0.3878570000000 1.0
C      1  0.3717080000000  0.4459010000000  0.2832630000000 1.0
C      1  0.5078670000000  0.4331090000000  0.2401840000000 1.0
C      1  0.6419110000000  0.4459310000000  0.2895000000000 1.0
C      1  0.7318450000000  0.4460530000000  0.3985980000000 1.0
C      1  0.7547220000000  0.4338730000000  0.5395260000000 1.0
C      1  0.6863790000000  0.4458460000000  0.6640880000000 1.0
C      1  0.5690380000000  0.4338460000000  0.7441940000000 1.0
C      1  0.4265540000000  0.4460040000000  0.7351040000000 1.0
C      1  0.3092450000000  0.4458770000000  0.6561800000000 1.0
C      1  0.2471540000000  0.4330630000000  0.5275520000000 1.0
C      1  0.7740790000000  0.4899330000000  0.4670700000000 1.0
C      1  0.7483110000000  0.4907880000000  0.6135640000000 1.0
C      1  0.6420970000000  0.4907720000000  0.7306360000000 1.0
C      1  0.4987950000000  0.4898910000000  0.7704990000000 1.0
C      1  0.3496370000000  0.4957830000000  0.7227680000000 1.0
C      1  0.2489830000000  0.4894740000000  0.6022970000000 1.0
C      1  0.2313310000000  0.4895640000000  0.4545820000000 1.0
C      1  0.3003500000000  0.4961410000000  0.3138760000000 1.0
C      1  0.4336980000000  0.4896020000000  0.2315270000000 1.0
C      1  0.5824290000000  0.4895300000000  0.2347580000000 1.0
C      1  0.7120970000000  0.4958400000000  0.3232480000000 1.0
C      1  0.5015070000000  0.3650570000000  0.4963550000000 1.0
C      1  0.5013630000000  0.4541660000000  0.4962390000000 1.0
C      1  0.5017340000000  0.2824260000000  0.4965470000000 1.0
C      1  0.5022560000000  0.5386560000000  0.4970510000000 1.0
C      1  0.5063850000000  0.6279780000000  0.5007940000000 1.0
END
