TITL C-2159255-4746-645 -0.00318818037686253 3375 -412.359835074747 0 0 60 (C1) n - 1
REM
REM in /scratch/bkarasulu/871
REM
REM
REM
REM
REM
REM ./C.cell (a2850807a9bf4ad07a5b6933b78d9264)
REM AIRSS Version 0.9.1 bugfix July 2018 build 013d7b7c2542+ Fri, 06 Jul 2018 19:26:36 +0100
REM compiler GCC version 9.2.1 20190827 (Red Hat 9.2.1-1)
REM options -cpp -mtune=generic -march=x86-64 -g -O0 -fpre-include=/usr/include/finclude/math-vector-fortran.h
REM seed 1982856936 -1177899021 -515632164 -2039042836 -1195421639 -1263286585 -1634669120 1128150289 -1620289676 -1629655951 569021085 1505286953 2092054449 -514544044 1835023909 -535365991 -276096746 -467640272 -172567353 -891449942 -464732688 -1853943977 -884360742 989879821 1103944159 -730555696 1198017836 935360104 -693882509 -363025077 -453197343 1937916812 -121272953
REM
CELL 1.54180   15.00000   15.00000   15.00000   90.00000   90.00000   90.00000
LATT -1
SFAC C  
C      1  0.3104840000000  0.6420900000000  0.4679210000000 1.0
C      1  0.4162120000000  0.7398450000000  0.4468700000000 1.0
C      1  0.5579270000000  0.7293370000000  0.4696150000000 1.0
C      1  0.6854080000000  0.6739720000000  0.4402110000000 1.0
C      1  0.7594630000000  0.5529860000000  0.4189810000000 1.0
C      1  0.7391970000000  0.4126070000000  0.4415540000000 1.0
C      1  0.6452400000000  0.3100390000000  0.4719930000000 1.0
C      1  0.5111020000000  0.2615160000000  0.4717500000000 1.0
C      1  0.3730670000000  0.2804250000000  0.4402500000000 1.0
C      1  0.2674890000000  0.3758160000000  0.4180860000000 1.0
C      1  0.2498290000000  0.5163700000000  0.4410910000000 1.0
C      1  0.3574470000000  0.7443510000000  0.5942490000000 1.0
C      1  0.4512340000000  0.7429630000000  0.6016850000000 1.0
C      1  0.6557380000000  0.6601170000000  0.5961770000000 1.0
C      1  0.7283940000000  0.5977500000000  0.5701890000000 1.0
C      1  0.7473990000000  0.5004980000000  0.5704540000000 1.0
C      1  0.7029080000000  0.4156580000000  0.5964000000000 1.0
C      1  0.5916620000000  0.2529940000000  0.6146100000000 1.0
C      1  0.4027340000000  0.3080620000000  0.5933270000000 1.0
C      1  0.3126120000000  0.3441710000000  0.5695610000000 1.0
C      1  0.2649080000000  0.4299430000000  0.5693740000000 1.0
C      1  0.2806550000000  0.5239330000000  0.5966960000000 1.0
C      1  0.6381320000000  0.7103280000000  0.5125750000000 1.0
C      1  0.7522140000000  0.6238760000000  0.4776690000000 1.0
C      1  0.7800630000000  0.4852810000000  0.4786240000000 1.0
C      1  0.7101800000000  0.3605210000000  0.5143280000000 1.0
C      1  0.5893080000000  0.2542490000000  0.5205290000000 1.0
C      1  0.4286190000000  0.2566100000000  0.5124280000000 1.0
C      1  0.2952680000000  0.3107070000000  0.4780660000000 1.0
C      1  0.2287320000000  0.4349100000000  0.4775070000000 1.0
C      1  0.2649380000000  0.5746370000000  0.5138240000000 1.0
C      1  0.3413060000000  0.7221440000000  0.5016070000000 1.0
C      1  0.4828440000000  0.7659480000000  0.5070840000000 1.0
C      1  0.6252550000000  0.6233040000000  0.3778570000000 1.0
C      1  0.6732110000000  0.5349080000000  0.3682160000000 1.0
C      1  0.6636460000000  0.4346680000000  0.3803860000000 1.0
C      1  0.6024550000000  0.3599790000000  0.3967620000000 1.0
C      1  0.5121880000000  0.3273460000000  0.3959880000000 1.0
C      1  0.4174140000000  0.3459760000000  0.3791580000000 1.0
C      1  0.3463100000000  0.4173600000000  0.3675510000000 1.0
C      1  0.3276620000000  0.5159150000000  0.3772670000000 1.0
C      1  0.3647820000000  0.6053400000000  0.3916910000000 1.0
C      1  0.4420100000000  0.6653140000000  0.3855110000000 1.0
C      1  0.5401350000000  0.6675190000000  0.3920580000000 1.0
C      1  0.4339050000000  0.4333720000000  0.6811160000000 1.0
C      1  0.3567220000000  0.4677920000000  0.7192540000000 1.0
C      1  0.3406850000000  0.5493660000000  0.6692220000000 1.0
C      1  0.4321920000000  0.5882710000000  0.6552770000000 1.0
C      1  0.4881850000000  0.6661820000000  0.6481410000000 1.0
C      1  0.5847440000000  0.6436010000000  0.6614250000000 1.0
C      1  0.6073620000000  0.5677540000000  0.7132710000000 1.0
C      1  0.6210230000000  0.4853170000000  0.7139870000000 1.0
C      1  0.6335690000000  0.4059820000000  0.6635720000000 1.0
C      1  0.5634990000000  0.3336740000000  0.6513710000000 1.0
C      1  0.4660370000000  0.3467120000000  0.6532840000000 1.0
C      1  0.4685880000000  0.5053770000000  0.6287360000000 1.0
C      1  0.5175120000000  0.5035770000000  0.5445520000000 1.0
C      1  0.4977290000000  0.5021090000000  0.4624030000000 1.0
C      1  0.5009910000000  0.4993760000000  0.2899340000000 1.0
C      1  0.5013900000000  0.5005420000000  0.3725820000000 1.0
END
