TITL C-2158988-7926-288 -0.00400579851859251 3375 -401.832543554112 0 0 60 (C1) n - 1
REM
REM in /scratch/bkarasulu/868
REM
REM
REM
REM
REM
REM ./C.cell (a2850807a9bf4ad07a5b6933b78d9264)
REM AIRSS Version 0.9.1 bugfix July 2018 build 013d7b7c2542+ Fri, 06 Jul 2018 19:26:36 +0100
REM compiler GCC version 9.2.1 20190827 (Red Hat 9.2.1-1)
REM options -cpp -mtune=generic -march=x86-64 -g -O0 -fpre-include=/usr/include/finclude/math-vector-fortran.h
REM seed -1461208002 -1787221162 -1044011472 1210473338 -62246234 2009159162 -1254132699 696894250 -1056670391 -1508131442 -1014787934 -459666389 1401237086 -820907138 19996520 1218260502 633045706 -1936085798 1917852001 -627624627 904697195 -467116775 1615835903 513364128 -2034582496 -1408753679 -325058206 1775676985 232720508 -1925938704 1153885318 -1200437060 -1213619256
REM
CELL 1.54180   15.00000   15.00000   15.00000   90.00000   90.00000   90.00000
LATT -1
SFAC C  
C      1  0.3300980000000  0.4282560000000  0.3870310000000 1.0
C      1  0.5043420000000  0.2849660000000  0.4737110000000 1.0
C      1  0.7024840000000  0.4221900000000  0.5070060000000 1.0
C      1  0.6359170000000  0.6490640000000  0.4309010000000 1.0
C      1  0.3995090000000  0.6892630000000  0.3898490000000 1.0
C      1  0.5049970000000  0.2533010000000  0.5590880000000 1.0
C      1  0.7582080000000  0.4409520000000  0.5763970000000 1.0
C      1  0.6279360000000  0.7192910000000  0.4880260000000 1.0
C      1  0.3548690000000  0.6756260000000  0.4593310000000 1.0
C      1  0.2935270000000  0.4123550000000  0.4703500000000 1.0
C      1  0.5983720000000  0.3577860000000  0.6186440000000 1.0
C      1  0.6819420000000  0.5807670000000  0.5883700000000 1.0
C      1  0.4857300000000  0.6698660000000  0.5503360000000 1.0
C      1  0.3404160000000  0.5527550000000  0.5457360000000 1.0
C      1  0.3854660000000  0.4021570000000  0.5933800000000 1.0
C      1  0.5222100000000  0.4186640000000  0.7850060000000 1.0
C      1  0.6070820000000  0.5598430000000  0.7676510000000 1.0
C      1  0.4975400000000  0.6778490000000  0.7363340000000 1.0
C      1  0.3418470000000  0.6078840000000  0.7257970000000 1.0
C      1  0.3598740000000  0.4535540000000  0.7671970000000 1.0
C      1  0.4127990000000  0.3785600000000  0.3678920000000 1.0
C      1  0.5842840000000  0.3251370000000  0.4428140000000 1.0
C      1  0.6909490000000  0.4886360000000  0.4398250000000 1.0
C      1  0.5760810000000  0.6235920000000  0.3582490000000 1.0
C      1  0.4364030000000  0.5510070000000  0.3308610000000 1.0
C      1  0.4087090000000  0.5206470000000  0.4849030000000 1.0
C      1  0.4418890000000  0.4259720000000  0.5129800000000 1.0
C      1  0.5395510000000  0.4404430000000  0.5185910000000 1.0
C      1  0.5621250000000  0.5383410000000  0.5013920000000 1.0
C      1  0.4816730000000  0.5918700000000  0.4830470000000 1.0
C      1  0.6323030000000  0.4663330000000  0.3684530000000 1.0
C      1  0.5877700000000  0.5363590000000  0.3209860000000 1.0
C      1  0.5005710000000  0.4955600000000  0.2759630000000 1.0
C      1  0.4933920000000  0.4015430000000  0.3212080000000 1.0
C      1  0.5753570000000  0.3855690000000  0.3692610000000 1.0
C      1  0.6178440000000  0.4472240000000  0.6571760000000 1.0
C      1  0.6261660000000  0.6441880000000  0.6301470000000 1.0
C      1  0.4092420000000  0.6790150000000  0.6028310000000 1.0
C      1  0.3198570000000  0.4879150000000  0.6122230000000 1.0
C      1  0.4362660000000  0.3605880000000  0.6633100000000 1.0
C      1  0.6984760000000  0.4907090000000  0.6212170000000 1.0
C      1  0.5779850000000  0.6949230000000  0.5637860000000 1.0
C      1  0.3386200000000  0.6468040000000  0.5458200000000 1.0
C      1  0.2932630000000  0.4048520000000  0.5573760000000 1.0
C      1  0.5141070000000  0.3161550000000  0.6251850000000 1.0
C      1  0.4328660000000  0.3440610000000  0.4511700000000 1.0
C      1  0.6178090000000  0.3749840000000  0.5206440000000 1.0
C      1  0.6553830000000  0.5680370000000  0.4872620000000 1.0
C      1  0.4781470000000  0.6250340000000  0.3822450000000 1.0
C      1  0.3783070000000  0.5083710000000  0.3905130000000 1.0
C      1  0.5800640000000  0.6354530000000  0.7204820000000 1.0
C      1  0.4106090000000  0.6655110000000  0.7006550000000 1.0
C      1  0.3260700000000  0.5167460000000  0.7083340000000 1.0
C      1  0.4367570000000  0.4030930000000  0.7512920000000 1.0
C      1  0.5905170000000  0.4702560000000  0.7519210000000 1.0
C      1  0.4851850000000  0.4891060000000  0.0959593000000 1.0
C      1  0.5411650000000  0.4758710000000  0.4241990000000 1.0
C      1  0.5491890000000  0.4996260000000  0.5992310000000 1.0
C      1  0.4903020000000  0.4932370000000  0.1808930000000 1.0
C      1  0.4774520000000  0.5295240000000  0.6448250000000 1.0
END
