TITL C-2159255-4746-390 -0.00157938938131295 3375 -355.636316859137 0 0 60 (Th) n - 1
REM
REM in /scratch/bkarasulu/871
REM
REM
REM
REM
REM
REM ./C.cell (a2850807a9bf4ad07a5b6933b78d9264)
REM AIRSS Version 0.9.1 bugfix July 2018 build 013d7b7c2542+ Fri, 06 Jul 2018 19:26:36 +0100
REM compiler GCC version 9.2.1 20190827 (Red Hat 9.2.1-1)
REM options -cpp -mtune=generic -march=x86-64 -g -O0 -fpre-include=/usr/include/finclude/math-vector-fortran.h
REM seed 753029330 -1860605073 1361007565 -527312351 -1906265639 2019523374 -1053063371 -1745020866 1631425507 -1073547808 180344946 321156105 1729037772 -423542630 -1380368595 1328705020 -2099402155 1120336430 465540990 -641063357 397243877 -822851502 -773878531 -342236388 -1513609628 1076293856 1287582935 -2124280761 361588944 -1492773302 -1891291403 -1821656504 -1020631696
REM
CELL 1.54180   15.00000   15.00000   15.00000   90.00000   90.00000   90.00000
LATT -1
SFAC C  
C      1  0.7035570000000  0.5993690000000  0.4481960000000 1.0
C      1  0.5993690000000  0.4481970000000  0.7035570000000 1.0
C      1  0.4481970000000  0.7035570000000  0.5993670000000 1.0
C      1  0.2964430000000  0.5993680000000  0.5518030000000 1.0
C      1  0.2964430000000  0.4006320000000  0.4481970000000 1.0
C      1  0.7035570000000  0.4006310000000  0.5518040000000 1.0
C      1  0.4006320000000  0.4481970000000  0.2964430000000 1.0
C      1  0.4006310000000  0.5518030000000  0.7035570000000 1.0
C      1  0.5993680000000  0.5518030000000  0.2964430000000 1.0
C      1  0.5518030000000  0.7035570000000  0.4006330000000 1.0
C      1  0.5518030000000  0.2964430000000  0.5993680000000 1.0
C      1  0.4481970000000  0.2964430000000  0.4006320000000 1.0
C      1  0.7035570000000  0.4006330000000  0.4481970000000 1.0
C      1  0.5993680000000  0.5518030000000  0.7035570000000 1.0
C      1  0.4481970000000  0.2964430000000  0.5993690000000 1.0
C      1  0.2964430000000  0.4006320000000  0.5518030000000 1.0
C      1  0.2964430000000  0.5993680000000  0.4481970000000 1.0
C      1  0.7035570000000  0.5993670000000  0.5518030000000 1.0
C      1  0.4006320000000  0.5518030000000  0.2964430000000 1.0
C      1  0.4006320000000  0.4481970000000  0.7035570000000 1.0
C      1  0.5993680000000  0.4481970000000  0.2964430000000 1.0
C      1  0.5518030000000  0.2964430000000  0.4006310000000 1.0
C      1  0.5518030000000  0.7035570000000  0.5993690000000 1.0
C      1  0.4481960000000  0.7035570000000  0.4006310000000 1.0
C      1  0.3801080000000  0.4509540000000  0.5517240000000 1.0
C      1  0.4509540000000  0.5517240000000  0.3801080000000 1.0
C      1  0.5517240000000  0.3801080000000  0.4509540000000 1.0
C      1  0.6198920000000  0.4509540000000  0.4482760000000 1.0
C      1  0.6198920000000  0.5490450000000  0.5517240000000 1.0
C      1  0.3801080000000  0.5490460000000  0.4482760000000 1.0
C      1  0.5490460000000  0.5517240000000  0.6198920000000 1.0
C      1  0.5490460000000  0.4482760000000  0.3801090000000 1.0
C      1  0.4509540000000  0.4482760000000  0.6198920000000 1.0
C      1  0.4482760000000  0.3801080000000  0.5490460000000 1.0
C      1  0.4482760000000  0.6198920000000  0.4509540000000 1.0
C      1  0.5517240000000  0.6198910000000  0.5490460000000 1.0
C      1  0.3801080000000  0.5490460000000  0.5517240000000 1.0
C      1  0.4509540000000  0.4482760000000  0.3801080000000 1.0
C      1  0.5517240000000  0.6198920000000  0.4509540000000 1.0
C      1  0.6198910000000  0.5490460000000  0.4482760000000 1.0
C      1  0.6198920000000  0.4509540000000  0.5517240000000 1.0
C      1  0.3801080000000  0.4509540000000  0.4482760000000 1.0
C      1  0.5490460000000  0.4482750000000  0.6198920000000 1.0
C      1  0.5490460000000  0.5517240000000  0.3801080000000 1.0
C      1  0.4509540000000  0.5517240000000  0.6198910000000 1.0
C      1  0.4482760000000  0.6198920000000  0.5490450000000 1.0
C      1  0.4482760000000  0.3801080000000  0.4509540000000 1.0
C      1  0.5517240000000  0.3801080000000  0.5490460000000 1.0
C      1  0.7606890000000  0.3609470000000  0.5000000000000 1.0
C      1  0.3609470000000  0.5000000000000  0.7606890000000 1.0
C      1  0.5000000000000  0.7606890000000  0.3609470000000 1.0
C      1  0.2393110000000  0.3609470000000  0.5000000000000 1.0
C      1  0.2393110000000  0.6390530000000  0.5000000000000 1.0
C      1  0.7606890000000  0.6390530000000  0.5000000000000 1.0
C      1  0.6390530000000  0.5000000000000  0.2393110000000 1.0
C      1  0.6390530000000  0.5000000000000  0.7606890000000 1.0
C      1  0.3609470000000  0.5000000000000  0.2393110000000 1.0
C      1  0.5000000000000  0.2393110000000  0.6390530000000 1.0
C      1  0.5000000000000  0.7606890000000  0.6390530000000 1.0
C      1  0.5000000000000  0.2393110000000  0.3609470000000 1.0
END
