TITL C-2158984-8299-887 -0.00164539085273326 3375 -402.440918215496 0 0 60 (Cs) n - 1
REM
REM in /scratch/bkarasulu/869
REM
REM
REM
REM
REM
REM ./C.cell (a2850807a9bf4ad07a5b6933b78d9264)
REM AIRSS Version 0.9.1 bugfix July 2018 build 013d7b7c2542+ Fri, 06 Jul 2018 19:26:36 +0100
REM compiler GCC version 9.2.1 20190827 (Red Hat 9.2.1-1)
REM options -cpp -mtune=generic -march=x86-64 -g -O0 -fpre-include=/usr/include/finclude/math-vector-fortran.h
REM seed -2045568841 1175314982 1863036055 -1558283358 1917210867 123114972 1325073705 1562733725 -1373730742 1012584411 1133513478 -1360157942 -2025563907 1453525802 -206616738 118175525 567030386 830960849 929245311 -1183627709 1406759106 -845420216 -1284893366 557655156 234929213 1860670728 -1745298112 685717478 -1455077241 1786371317 -1870181252 -454571911 -1537250152
REM
CELL 1.54180   15.00000   15.00000   15.00000   90.00000   90.00000   90.00000
LATT -1
SFAC C  
C      1  0.4183290000000  0.4715330000000  0.4131050000000 1.0
C      1  0.5816710000000  0.4715330000000  0.4131050000000 1.0
C      1  0.6799430000000  0.6350990000000  0.6911840000000 1.0
C      1  0.3200570000000  0.6350980000000  0.6911840000000 1.0
C      1  0.5477200000000  0.4520330000000  0.5058910000000 1.0
C      1  0.4522800000000  0.4520330000000  0.5058910000000 1.0
C      1  0.3937940000000  0.4547700000000  0.6725110000000 1.0
C      1  0.6062060000000  0.4547700000000  0.6725110000000 1.0
C      1  0.6775040000000  0.4681440000000  0.3818590000000 1.0
C      1  0.3224960000000  0.4681440000000  0.3818590000000 1.0
C      1  0.2651100000000  0.4607920000000  0.4551520000000 1.0
C      1  0.7348900000000  0.4607920000000  0.4551520000000 1.0
C      1  0.4516370000000  0.3236640000000  0.6158800000000 1.0
C      1  0.5483630000000  0.3236640000000  0.6158800000000 1.0
C      1  0.3226300000000  0.5535170000000  0.5593600000000 1.0
C      1  0.6773700000000  0.5535170000000  0.5593600000000 1.0
C      1  0.4492270000000  0.3817570000000  0.6932230000000 1.0
C      1  0.5507730000000  0.3817570000000  0.6932230000000 1.0
C      1  0.5454720000000  0.6987340000000  0.6509290000000 1.0
C      1  0.4545280000000  0.6987340000000  0.6509290000000 1.0
C      1  0.6790420000000  0.5411980000000  0.3201590000000 1.0
C      1  0.3209580000000  0.5411980000000  0.3201590000000 1.0
C      1  0.2814070000000  0.5526240000000  0.4734480000000 1.0
C      1  0.7185930000000  0.5526240000000  0.4734480000000 1.0
C      1  0.4195950000000  0.3556880000000  0.5347450000000 1.0
C      1  0.5804050000000  0.3556880000000  0.5347450000000 1.0
C      1  0.3808920000000  0.5176020000000  0.2556900000000 1.0
C      1  0.6191080000000  0.5176020000000  0.2556900000000 1.0
C      1  0.4198960000000  0.5259870000000  0.5637790000000 1.0
C      1  0.5801040000000  0.5259870000000  0.5637790000000 1.0
C      1  0.5498440000000  0.4570870000000  0.2623070000000 1.0
C      1  0.4501560000000  0.4570870000000  0.2623070000000 1.0
C      1  0.4064660000000  0.6372080000000  0.4204860000000 1.0
C      1  0.5935340000000  0.6372080000000  0.4204860000000 1.0
C      1  0.5908410000000  0.6205010000000  0.6958550000000 1.0
C      1  0.4091590000000  0.6205010000000  0.6958550000000 1.0
C      1  0.5443790000000  0.5613120000000  0.3971940000000 1.0
C      1  0.4556210000000  0.5613120000000  0.3971940000000 1.0
C      1  0.3262790000000  0.6408840000000  0.5997350000000 1.0
C      1  0.6737210000000  0.6408840000000  0.5997350000000 1.0
C      1  0.3213710000000  0.4601150000000  0.6018530000000 1.0
C      1  0.6786290000000  0.4601150000000  0.6018530000000 1.0
C      1  0.5955360000000  0.6966810000000  0.5703960000000 1.0
C      1  0.4044640000000  0.6966810000000  0.5703960000000 1.0
C      1  0.5507710000000  0.5351600000000  0.6598890000000 1.0
C      1  0.4492290000000  0.5351600000000  0.6598890000000 1.0
C      1  0.3522120000000  0.3337720000000  0.4758200000000 1.0
C      1  0.6477880000000  0.3337720000000  0.4758200000000 1.0
C      1  0.4489570000000  0.4035300000000  0.3504250000000 1.0
C      1  0.5510430000000  0.4035300000000  0.3504250000000 1.0
C      1  0.6816640000000  0.6043460000000  0.3986680000000 1.0
C      1  0.3183360000000  0.6043460000000  0.3986680000000 1.0
C      1  0.4505970000000  0.6896360000000  0.4861290000000 1.0
C      1  0.5494030000000  0.6896360000000  0.4861290000000 1.0
C      1  0.3004090000000  0.4032080000000  0.5220430000000 1.0
C      1  0.6995910000000  0.4032080000000  0.5220430000000 1.0
C      1  0.4569940000000  0.2453700000000  0.3812650000000 1.0
C      1  0.5430060000000  0.2453700000000  0.3812650000000 1.0
C      1  0.3993590000000  0.3180500000000  0.3910210000000 1.0
C      1  0.6006410000000  0.3180500000000  0.3910210000000 1.0
END
