TITL C-2158988-7926-405 -0.00206797015643284 3375 -410.982650323474 0 0 60 (D6h) n - 1
REM
REM in /scratch/bkarasulu/868
REM
REM
REM
REM
REM
REM ./C.cell (a2850807a9bf4ad07a5b6933b78d9264)
REM AIRSS Version 0.9.1 bugfix July 2018 build 013d7b7c2542+ Fri, 06 Jul 2018 19:26:36 +0100
REM compiler GCC version 9.2.1 20190827 (Red Hat 9.2.1-1)
REM options -cpp -mtune=generic -march=x86-64 -g -O0 -fpre-include=/usr/include/finclude/math-vector-fortran.h
REM seed 511369179 -71433343 933612979 28688938 -1259199491 -564053696 -648952621 730942547 -473691328 -319884442 -1217607560 489060581 204471297 -1179176396 332419948 -746850336 -398806702 2098233263 344650431 -1561986586 -1809106916 1179402183 -225356246 -231663353 665834205 1072609569 -1060098153 -194825483 -1072998724 445580232 182205804 1781669158 -1341677086
REM
CELL 1.54180   15.00000   15.00000   15.00000   90.00000   90.00000   90.00000
LATT -1
SFAC C  
C      1  0.4170360000000  0.4493040000000  0.4521000000000 1.0
C      1  0.4170360000000  0.4493040000000  0.5479000000000 1.0
C      1  0.5000000000000  0.4493040000000  0.5958000000000 1.0
C      1  0.5829640000000  0.4493040000000  0.5479000000000 1.0
C      1  0.5829640000000  0.4493040000000  0.4521000000000 1.0
C      1  0.5000000000000  0.4493040000000  0.4042000000000 1.0
C      1  0.4170360000000  0.5506960000000  0.5479000000000 1.0
C      1  0.4170360000000  0.5506960000000  0.4521000000000 1.0
C      1  0.5000000000000  0.5506960000000  0.4042000000000 1.0
C      1  0.5829640000000  0.5506960000000  0.4521000000000 1.0
C      1  0.5829640000000  0.5506960000000  0.5479000000000 1.0
C      1  0.5000000000000  0.5506960000000  0.5958000000000 1.0
C      1  0.5961100000000  0.2796000000000  0.5000000000000 1.0
C      1  0.5480550000000  0.2796000000000  0.4167660000000 1.0
C      1  0.4519450000000  0.2796000000000  0.4167660000000 1.0
C      1  0.4038900000000  0.2796000000000  0.5000000000000 1.0
C      1  0.4519450000000  0.2796000000000  0.5832340000000 1.0
C      1  0.5480550000000  0.2796000000000  0.5832340000000 1.0
C      1  0.5961100000000  0.7204000000000  0.5000000000000 1.0
C      1  0.5480550000000  0.7204000000000  0.5832340000000 1.0
C      1  0.4519450000000  0.7204000000000  0.5832340000000 1.0
C      1  0.4038900000000  0.7204000000000  0.5000000000000 1.0
C      1  0.4519450000000  0.7204000000000  0.4167660000000 1.0
C      1  0.5480550000000  0.7204000000000  0.4167660000000 1.0
C      1  0.2785380000000  0.4567430000000  0.6278600000000 1.0
C      1  0.5000000000000  0.4567430000000  0.7557240000000 1.0
C      1  0.7214620000000  0.4567430000000  0.6278600000000 1.0
C      1  0.7214620000000  0.4567430000000  0.3721400000000 1.0
C      1  0.5000000000000  0.4567430000000  0.2442760000000 1.0
C      1  0.2785380000000  0.4567430000000  0.3721400000000 1.0
C      1  0.2785380000000  0.5432570000000  0.3721400000000 1.0
C      1  0.5000000000000  0.5432570000000  0.2442760000000 1.0
C      1  0.7214620000000  0.5432570000000  0.3721400000000 1.0
C      1  0.7214620000000  0.5432570000000  0.6278600000000 1.0
C      1  0.5000000000000  0.5432570000000  0.7557240000000 1.0
C      1  0.2785380000000  0.5432570000000  0.6278600000000 1.0
C      1  0.5000000000000  0.6070510000000  0.3196090000000 1.0
C      1  0.3437770000000  0.6070520000000  0.4098050000000 1.0
C      1  0.3437770000000  0.6070520000000  0.5901950000000 1.0
C      1  0.5000000000000  0.6070510000000  0.6803910000000 1.0
C      1  0.6562230000000  0.6070520000000  0.5901950000000 1.0
C      1  0.6562230000000  0.6070520000000  0.4098050000000 1.0
C      1  0.5000000000000  0.3929490000000  0.6803910000000 1.0
C      1  0.3437770000000  0.3929480000000  0.5901950000000 1.0
C      1  0.3437770000000  0.3929480000000  0.4098050000000 1.0
C      1  0.5000000000000  0.3929490000000  0.3196090000000 1.0
C      1  0.6562230000000  0.3929480000000  0.4098050000000 1.0
C      1  0.6562230000000  0.3929480000000  0.5901950000000 1.0
C      1  0.6679840000000  0.3392190000000  0.5000000000000 1.0
C      1  0.5839920000000  0.3392190000000  0.3545220000000 1.0
C      1  0.4160080000000  0.3392190000000  0.3545220000000 1.0
C      1  0.3320160000000  0.3392190000000  0.5000000000000 1.0
C      1  0.4160080000000  0.3392190000000  0.6454780000000 1.0
C      1  0.5839920000000  0.3392190000000  0.6454780000000 1.0
C      1  0.6679840000000  0.6607810000000  0.5000000000000 1.0
C      1  0.5839920000000  0.6607810000000  0.6454780000000 1.0
C      1  0.4160080000000  0.6607810000000  0.6454780000000 1.0
C      1  0.3320160000000  0.6607810000000  0.5000000000000 1.0
C      1  0.4160080000000  0.6607810000000  0.3545220000000 1.0
C      1  0.5839920000000  0.6607810000000  0.3545220000000 1.0
END
