TITL C-2159255-4746-612 -0.00234878738186101 3375 -401.573545760601 0 0 60 (C1) n - 1
REM
REM in /scratch/bkarasulu/871
REM
REM
REM
REM
REM
REM ./C.cell (a2850807a9bf4ad07a5b6933b78d9264)
REM AIRSS Version 0.9.1 bugfix July 2018 build 013d7b7c2542+ Fri, 06 Jul 2018 19:26:36 +0100
REM compiler GCC version 9.2.1 20190827 (Red Hat 9.2.1-1)
REM options -cpp -mtune=generic -march=x86-64 -g -O0 -fpre-include=/usr/include/finclude/math-vector-fortran.h
REM seed 1986893813 -1604760297 -905048180 245273793 1093560996 330658535 899868880 -888648066 902144246 -2130082360 808203175 1915137227 511528314 -1130433421 -1604197492 -2051707884 201146615 -1190478138 -1734254696 -881972684 -696137546 -1531310489 -2135298181 1609033434 -1748269371 -321951430 -1316411361 2081972012 -1847389280 -2087582334 -1681878890 -1098798671 -948518732
REM
CELL 1.54180   15.00000   15.00000   15.00000   90.00000   90.00000   90.00000
LATT -1
SFAC C  
C      1  0.3056630000000  0.2923290000000  0.4628640000000 1.0
C      1  0.3543940000000  0.5802400000000  0.3378030000000 1.0
C      1  0.5096280000000  0.4768420000000  0.5266780000000 1.0
C      1  0.6707070000000  0.3570120000000  0.5191820000000 1.0
C      1  0.4206120000000  0.4750150000000  0.7207640000000 1.0
C      1  0.4289310000000  0.6830860000000  0.6098760000000 1.0
C      1  0.2887200000000  0.5535830000000  0.4018930000000 1.0
C      1  0.4396140000000  0.4688620000000  0.4049940000000 1.0
C      1  0.3605010000000  0.4094220000000  0.3727940000000 1.0
C      1  0.7851800000000  0.5244980000000  0.4773230000000 1.0
C      1  0.5312800000000  0.4802830000000  0.2498320000000 1.0
C      1  0.2991180000000  0.6099600000000  0.5474020000000 1.0
C      1  0.6400520000000  0.6736570000000  0.6235590000000 1.0
C      1  0.5525530000000  0.6380190000000  0.4918440000000 1.0
C      1  0.4626150000000  0.3904370000000  0.7219730000000 1.0
C      1  0.6018480000000  0.2875890000000  0.5405330000000 1.0
C      1  0.5032360000000  0.6194360000000  0.3060280000000 1.0
C      1  0.4598610000000  0.6201690000000  0.4571700000000 1.0
C      1  0.5026600000000  0.5254470000000  0.7575720000000 1.0
C      1  0.6394100000000  0.5253570000000  0.6035760000000 1.0
C      1  0.7070570000000  0.6547960000000  0.4496740000000 1.0
C      1  0.6226470000000  0.6350230000000  0.4214230000000 1.0
C      1  0.5599490000000  0.4120170000000  0.6027920000000 1.0
C      1  0.4152690000000  0.3341280000000  0.5652150000000 1.0
C      1  0.3981730000000  0.5197660000000  0.6419080000000 1.0
C      1  0.3431100000000  0.6823470000000  0.5856160000000 1.0
C      1  0.7451620000000  0.6020880000000  0.5153840000000 1.0
C      1  0.4330230000000  0.6324990000000  0.3660820000000 1.0
C      1  0.6815060000000  0.3988070000000  0.4338450000000 1.0
C      1  0.3887960000000  0.4264680000000  0.2813150000000 1.0
C      1  0.5669930000000  0.6782150000000  0.6866280000000 1.0
C      1  0.5911100000000  0.5932350000000  0.3399490000000 1.0
C      1  0.2988940000000  0.4434310000000  0.5165590000000 1.0
C      1  0.5110740000000  0.6065660000000  0.7136710000000 1.0
C      1  0.5910960000000  0.4704550000000  0.6734610000000 1.0
C      1  0.4724200000000  0.5525600000000  0.2459070000000 1.0
C      1  0.4831030000000  0.4007820000000  0.2686980000000 1.0
C      1  0.3769350000000  0.3230180000000  0.4159400000000 1.0
C      1  0.2538730000000  0.6059300000000  0.4682340000000 1.0
C      1  0.5944630000000  0.4988390000000  0.3176770000000 1.0
C      1  0.5096840000000  0.7305740000000  0.6217870000000 1.0
C      1  0.4671500000000  0.3319600000000  0.6462370000000 1.0
C      1  0.5110840000000  0.4160140000000  0.4434610000000 1.0
C      1  0.5508270000000  0.4432160000000  0.7516440000000 1.0
C      1  0.4278510000000  0.5295560000000  0.4857830000000 1.0
C      1  0.3840080000000  0.5233070000000  0.2679340000000 1.0
C      1  0.3246610000000  0.3526140000000  0.5338980000000 1.0
C      1  0.4655500000000  0.3276490000000  0.4718070000000 1.0
C      1  0.5396580000000  0.3567250000000  0.3230990000000 1.0
C      1  0.6511960000000  0.4317240000000  0.5680110000000 1.0
C      1  0.5394340000000  0.2668230000000  0.4787980000000 1.0
C      1  0.3432160000000  0.5177090000000  0.5618460000000 1.0
C      1  0.5973810000000  0.4157470000000  0.3793490000000 1.0
C      1  0.4664990000000  0.5880680000000  0.6265930000000 1.0
C      1  0.7559090000000  0.4592460000000  0.4342990000000 1.0
C      1  0.5766720000000  0.7114990000000  0.5570370000000 1.0
C      1  0.6981780000000  0.6017030000000  0.6001730000000 1.0
C      1  0.5500470000000  0.5583470000000  0.5610750000000 1.0
C      1  0.5585840000000  0.3139550000000  0.6221460000000 1.0
C      1  0.2911780000000  0.4613540000000  0.4213850000000 1.0
END
