TITL C-2159255-4746-225 -0.00203189007425325 3375 -398.411906623094 0 0 60 (C1) n - 1
REM
REM in /scratch/bkarasulu/871
REM
REM
REM
REM
REM
REM ./C.cell (a2850807a9bf4ad07a5b6933b78d9264)
REM AIRSS Version 0.9.1 bugfix July 2018 build 013d7b7c2542+ Fri, 06 Jul 2018 19:26:36 +0100
REM compiler GCC version 9.2.1 20190827 (Red Hat 9.2.1-1)
REM options -cpp -mtune=generic -march=x86-64 -g -O0 -fpre-include=/usr/include/finclude/math-vector-fortran.h
REM seed 509665984 900013192 -1973590368 -322861545 1503873862 -1949182029 331820481 -1327414960 -621704737 -395638581 -996325699 1270740039 634609870 2096758413 -2005921285 480161266 -957287314 45051531 2065344079 1612176084 284883854 -756027116 1681309447 -1996403829 -2100032938 -1504475234 -738907634 -1241833057 -965995820 1817321700 111916712 -1597914906 1147122070
REM
CELL 1.54180   15.00000   15.00000   15.00000   90.00000   90.00000   90.00000
LATT -1
SFAC C  
C      1  0.6149330000000  0.4030870000000  0.5379250000000 1.0
C      1  0.6114830000000  0.3685810000000  0.4344050000000 1.0
C      1  0.5344070000000  0.4210660000000  0.3822480000000 1.0
C      1  0.4358820000000  0.4226840000000  0.4246260000000 1.0
C      1  0.4335880000000  0.3667310000000  0.5088300000000 1.0
C      1  0.4588130000000  0.4163400000000  0.5992210000000 1.0
C      1  0.5442050000000  0.3569120000000  0.5990440000000 1.0
C      1  0.5588310000000  0.5532970000000  0.5698320000000 1.0
C      1  0.6067510000000  0.4977190000000  0.5065650000000 1.0
C      1  0.5690360000000  0.5096380000000  0.4168740000000 1.0
C      1  0.4998920000000  0.5807810000000  0.4290480000000 1.0
C      1  0.4191450000000  0.5270820000000  0.4518270000000 1.0
C      1  0.4025790000000  0.5410110000000  0.5472870000000 1.0
C      1  0.4737620000000  0.5139010000000  0.6027810000000 1.0
C      1  0.3640350000000  0.3933360000000  0.6300480000000 1.0
C      1  0.5636510000000  0.3505420000000  0.7004720000000 1.0
C      1  0.7006320000000  0.4168770000000  0.5913510000000 1.0
C      1  0.6880570000000  0.3394230000000  0.3800980000000 1.0
C      1  0.5492690000000  0.4149350000000  0.2859830000000 1.0
C      1  0.3382750000000  0.4014310000000  0.3903720000000 1.0
C      1  0.3418670000000  0.3701400000000  0.5383480000000 1.0
C      1  0.3055190000000  0.4205110000000  0.6984910000000 1.0
C      1  0.5730670000000  0.4268360000000  0.7396490000000 1.0
C      1  0.7717110000000  0.4495470000000  0.6341200000000 1.0
C      1  0.6965810000000  0.4218650000000  0.4017150000000 1.0
C      1  0.5099790000000  0.4453790000000  0.2162150000000 1.0
C      1  0.2936660000000  0.4339650000000  0.3193550000000 1.0
C      1  0.2961310000000  0.4213370000000  0.4747940000000 1.0
C      1  0.4827210000000  0.5482830000000  0.6923530000000 1.0
C      1  0.6289790000000  0.5621120000000  0.6476690000000 1.0
C      1  0.7000600000000  0.5440580000000  0.5044000000000 1.0
C      1  0.6449900000000  0.5529200000000  0.3661050000000 1.0
C      1  0.3939050000000  0.5559170000000  0.2655260000000 1.0
C      1  0.3271720000000  0.5604010000000  0.4142390000000 1.0
C      1  0.3081670000000  0.5446800000000  0.5740720000000 1.0
C      1  0.3944070000000  0.6670700000000  0.6533270000000 1.0
C      1  0.5557140000000  0.6890480000000  0.7000410000000 1.0
C      1  0.6541090000000  0.6910920000000  0.5676570000000 1.0
C      1  0.6466650000000  0.6762990000000  0.4251940000000 1.0
C      1  0.5153070000000  0.6296770000000  0.3438380000000 1.0
C      1  0.3696210000000  0.6976100000000  0.3405700000000 1.0
C      1  0.3247750000000  0.6900390000000  0.5021800000000 1.0
C      1  0.3010140000000  0.4953520000000  0.6538980000000 1.0
C      1  0.5700700000000  0.5158740000000  0.7185000000000 1.0
C      1  0.7136640000000  0.5184930000000  0.6049240000000 1.0
C      1  0.7189270000000  0.5095600000000  0.4116090000000 1.0
C      1  0.4433830000000  0.5017640000000  0.2062610000000 1.0
C      1  0.3241790000000  0.5203300000000  0.3222710000000 1.0
C      1  0.2745790000000  0.5122970000000  0.4858440000000 1.0
C      1  0.6996710000000  0.6408530000000  0.5001480000000 1.0
C      1  0.6141940000000  0.6401560000000  0.3462150000000 1.0
C      1  0.4322910000000  0.6423890000000  0.3008040000000 1.0
C      1  0.3311670000000  0.6598890000000  0.4166260000000 1.0
C      1  0.3403140000000  0.6446750000000  0.5811060000000 1.0
C      1  0.4754750000000  0.6447370000000  0.6886600000000 1.0
C      1  0.6319020000000  0.6604310000000  0.6555630000000 1.0
C      1  0.4945000000000  0.2046730000000  0.5160760000000 1.0
C      1  0.4923370000000  0.2877110000000  0.5420650000000 1.0
C      1  0.5874250000000  0.7057620000000  0.4980490000000 1.0
C      1  0.5306130000000  0.6291000000000  0.5084990000000 1.0
END
