TITL C-2158984-8299-73 -0.00159073183211794 3375 -399.1047376928 0 0 60 (C1) n - 1
REM
REM in /scratch/bkarasulu/869
REM
REM
REM
REM
REM
REM ./C.cell (a2850807a9bf4ad07a5b6933b78d9264)
REM AIRSS Version 0.9.1 bugfix July 2018 build 013d7b7c2542+ Fri, 06 Jul 2018 19:26:36 +0100
REM compiler GCC version 9.2.1 20190827 (Red Hat 9.2.1-1)
REM options -cpp -mtune=generic -march=x86-64 -g -O0 -fpre-include=/usr/include/finclude/math-vector-fortran.h
REM seed 950379206 -731219542 -419700381 -88987330 -373687720 -1063332713 -1355449335 -1269367731 655843210 985402262 -1967364535 -808822766 -61941096 1171097758 1175948706 -1504321090 -51837377 1789076030 -693049653 715182708 327367952 -1669179843 -151556404 -1602083083 -1277765408 -1461139792 510662212 -1023704318 814841802 1437995928 79517395 1109320432 -343445153
REM
CELL 1.54180   15.00000   15.00000   15.00000   90.00000   90.00000   90.00000
LATT -1
SFAC C  
C      1  0.5368370000000  0.6353920000000  0.6598260000000 1.0
C      1  0.5371370000000  0.6951390000000  0.4224720000000 1.0
C      1  0.5367100000000  0.4846360000000  0.2909220000000 1.0
C      1  0.5368520000000  0.2971200000000  0.4493350000000 1.0
C      1  0.5368790000000  0.3874250000000  0.6762400000000 1.0
C      1  0.6327250000000  0.3040330000000  0.4274530000000 1.0
C      1  0.6325490000000  0.3701250000000  0.6638270000000 1.0
C      1  0.6327010000000  0.6161030000000  0.6731790000000 1.0
C      1  0.6327280000000  0.7017600000000  0.4433270000000 1.0
C      1  0.6325780000000  0.5080610000000  0.2913080000000 1.0
C      1  0.3521890000000  0.6374490000000  0.5440060000000 1.0
C      1  0.3523570000000  0.5850730000000  0.3832920000000 1.0
C      1  0.3522830000000  0.4148560000000  0.3836040000000 1.0
C      1  0.3523560000000  0.3627040000000  0.5441300000000 1.0
C      1  0.3525120000000  0.4999400000000  0.6440020000000 1.0
C      1  0.6533680000000  0.3871840000000  0.3807660000000 1.0
C      1  0.6534710000000  0.3518410000000  0.5705280000000 1.0
C      1  0.6519820000000  0.5213870000000  0.6634650000000 1.0
C      1  0.6536080000000  0.6614050000000  0.5297500000000 1.0
C      1  0.6520840000000  0.5789440000000  0.3548590000000 1.0
C      1  0.4667100000000  0.5374220000000  0.2619190000000 1.0
C      1  0.4600610000000  0.2806870000000  0.4009440000000 1.0
C      1  0.4611980000000  0.3346210000000  0.6751460000000 1.0
C      1  0.4669840000000  0.6095150000000  0.7143640000000 1.0
C      1  0.4595560000000  0.7363530000000  0.4512150000000 1.0
C      1  0.2787180000000  0.4487260000000  0.4360370000000 1.0
C      1  0.2787940000000  0.4237000000000  0.5291060000000 1.0
C      1  0.2788420000000  0.5043520000000  0.5817490000000 1.0
C      1  0.2787450000000  0.5791670000000  0.5212390000000 1.0
C      1  0.2787400000000  0.5447230000000  0.4310800000000 1.0
C      1  0.5942410000000  0.5485270000000  0.4300110000000 1.0
C      1  0.5943660000000  0.4487160000000  0.4325590000000 1.0
C      1  0.5944660000000  0.4202020000000  0.5279910000000 1.0
C      1  0.5942820000000  0.5020010000000  0.5846650000000 1.0
C      1  0.5942810000000  0.5814210000000  0.5240030000000 1.0
C      1  0.6776260000000  0.6636360000000  0.3685250000000 1.0
C      1  0.6798080000000  0.4269490000000  0.3049740000000 1.0
C      1  0.6790290000000  0.2914530000000  0.5097500000000 1.0
C      1  0.6775740000000  0.4447200000000  0.7020480000000 1.0
C      1  0.6801590000000  0.6735480000000  0.6144380000000 1.0
C      1  0.3892860000000  0.3316710000000  0.3614740000000 1.0
C      1  0.3895310000000  0.3144040000000  0.6155020000000 1.0
C      1  0.3898650000000  0.5518000000000  0.7125300000000 1.0
C      1  0.3892180000000  0.7180110000000  0.5135160000000 1.0
C      1  0.3896670000000  0.5831770000000  0.2972970000000 1.0
C      1  0.4322350000000  0.4614870000000  0.4232210000000 1.0
C      1  0.4322610000000  0.4153710000000  0.5128970000000 1.0
C      1  0.4323130000000  0.4862620000000  0.5845760000000 1.0
C      1  0.4322000000000  0.5763800000000  0.5389900000000 1.0
C      1  0.4323160000000  0.5611680000000  0.4392610000000 1.0
C      1  0.5108840000000  0.4322760000000  0.3682540000000 1.0
C      1  0.5112790000000  0.3543050000000  0.5227270000000 1.0
C      1  0.5110850000000  0.4752910000000  0.6457760000000 1.0
C      1  0.5108100000000  0.6323680000000  0.5665680000000 1.0
C      1  0.5110800000000  0.6059990000000  0.3960920000000 1.0
C      1  0.4759540000000  0.5207980000000  0.7302090000000 1.0
C      1  0.4788720000000  0.7237360000000  0.5396090000000 1.0
C      1  0.4756970000000  0.6186410000000  0.3009010000000 1.0
C      1  0.4787600000000  0.3424950000000  0.3364620000000 1.0
C      1  0.4785990000000  0.2933430000000  0.5960860000000 1.0
END
