TITL C-2159255-4746-2 -0.00410745945601542 3375 -395.32962282684 0 0 60 (C1) n - 1
REM
REM in /scratch/bkarasulu/871
REM
REM
REM
REM
REM
REM ./C.cell (a2850807a9bf4ad07a5b6933b78d9264)
REM AIRSS Version 0.9.1 bugfix July 2018 build 013d7b7c2542+ Fri, 06 Jul 2018 19:26:36 +0100
REM compiler GCC version 9.2.1 20190827 (Red Hat 9.2.1-1)
REM options -cpp -mtune=generic -march=x86-64 -g -O0 -fpre-include=/usr/include/finclude/math-vector-fortran.h
REM seed 576919547 -1440918224 -929181441 -445989410 1417945766 682737943 -118381582 -692416488 960390301 -1725432156 -1209835878 1051590747 1990278935 -664305911 -1055247017 -191444873 -1034187841 -1259563359 1951325265 1758181545 1576850693 1630243986 -2046605624 -63165119 531237814 210567780 -1371196734 1045245465 -775343349 -1526919009 -969227769 1338369222 -1407625859
REM
CELL 1.54180   15.00000   15.00000   15.00000   90.00000   90.00000   90.00000
LATT -1
SFAC C  
C      1  0.4235830000000  0.6693580000000  0.5469250000000 1.0
C      1  0.4235830000000  0.6689710000000  0.4466230000000 1.0
C      1  0.4235840000000  0.6144160000000  0.3624520000000 1.0
C      1  0.4235830000000  0.5230170000000  0.3211360000000 1.0
C      1  0.4235840000000  0.4237900000000  0.3357950000000 1.0
C      1  0.4235840000000  0.3482400000000  0.4017730000000 1.0
C      1  0.4235830000000  0.3203520000000  0.4981220000000 1.0
C      1  0.4235840000000  0.3489840000000  0.5942530000000 1.0
C      1  0.4235840000000  0.4250420000000  0.6596450000000 1.0
C      1  0.4235830000000  0.5243790000000  0.6735360000000 1.0
C      1  0.4235840000000  0.6154560000000  0.6315150000000 1.0
C      1  0.5503230000000  0.4613100000000  0.7624330000000 1.0
C      1  0.5503230000000  0.6104570000000  0.7403970000000 1.0
C      1  0.5503240000000  0.7240190000000  0.6412230000000 1.0
C      1  0.5503240000000  0.7659370000000  0.4964000000000 1.0
C      1  0.5503240000000  0.7229000000000  0.3519050000000 1.0
C      1  0.5503230000000  0.6085750000000  0.2536110000000 1.0
C      1  0.5503230000000  0.4592610000000  0.2327300000000 1.0
C      1  0.5503230000000  0.3223610000000  0.2958950000000 1.0
C      1  0.5503230000000  0.2413370000000  0.4230440000000 1.0
C      1  0.5503230000000  0.2419200000000  0.5738100000000 1.0
C      1  0.5503230000000  0.3239250000000  0.7003290000000 1.0
C      1  0.6148880000000  0.3933810000000  0.2698840000000 1.0
C      1  0.6148880000000  0.2870240000000  0.3627680000000 1.0
C      1  0.6148890000000  0.2477650000000  0.4984040000000 1.0
C      1  0.6148880000000  0.2880720000000  0.6337320000000 1.0
C      1  0.6148880000000  0.3951450000000  0.7257900000000 1.0
C      1  0.6148890000000  0.5349870000000  0.7453450000000 1.0
C      1  0.6148880000000  0.6632020000000  0.6861880000000 1.0
C      1  0.6148890000000  0.7390840000000  0.5671050000000 1.0
C      1  0.6148890000000  0.7385380000000  0.4259030000000 1.0
C      1  0.6148880000000  0.6617360000000  0.3074110000000 1.0
C      1  0.6148890000000  0.5330680000000  0.2492470000000 1.0
C      1  0.6744230000000  0.4270230000000  0.3428050000000 1.0
C      1  0.6744230000000  0.3547490000000  0.4059220000000 1.0
C      1  0.6744230000000  0.3280720000000  0.4980930000000 1.0
C      1  0.6744230000000  0.3554610000000  0.5900550000000 1.0
C      1  0.6744230000000  0.4282220000000  0.6526120000000 1.0
C      1  0.6744240000000  0.5232510000000  0.6659000000000 1.0
C      1  0.6744230000000  0.6103790000000  0.6257010000000 1.0
C      1  0.6744240000000  0.6619430000000  0.5447790000000 1.0
C      1  0.6744240000000  0.6615720000000  0.4488250000000 1.0
C      1  0.6744230000000  0.6093830000000  0.3683050000000 1.0
C      1  0.6744240000000  0.5219460000000  0.3287810000000 1.0
C      1  0.4855840000000  0.6654260000000  0.6887360000000 1.0
C      1  0.4855830000000  0.7423340000000  0.5680460000000 1.0
C      1  0.4855830000000  0.7417810000000  0.4249390000000 1.0
C      1  0.4855840000000  0.6639430000000  0.3048470000000 1.0
C      1  0.4855820000000  0.5335370000000  0.2458970000000 1.0
C      1  0.4855830000000  0.3919650000000  0.2668120000000 1.0
C      1  0.4855830000000  0.2841720000000  0.3609490000000 1.0
C      1  0.4855810000000  0.2443810000000  0.4984160000000 1.0
C      1  0.4855830000000  0.2852330000000  0.6355710000000 1.0
C      1  0.4855830000000  0.3937510000000  0.7288720000000 1.0
C      1  0.4855820000000  0.5354810000000  0.7486920000000 1.0
C      1  0.4675040000000  0.4983640000000  0.4974340000000 1.0
C      1  0.5515740000000  0.4983640000000  0.4974340000000 1.0
C      1  0.2099490000000  0.4983640000000  0.4974340000000 1.0
C      1  0.2932380000000  0.4983640000000  0.4974340000000 1.0
C      1  0.3808530000000  0.4983640000000  0.4974340000000 1.0
END
