TITL C-2159255-4746-852 -0.00288075268230861 3375 -424.588435584377 0 0 60 (Cs) n - 1
REM
REM in /scratch/bkarasulu/871
REM
REM
REM
REM
REM
REM ./C.cell (a2850807a9bf4ad07a5b6933b78d9264)
REM AIRSS Version 0.9.1 bugfix July 2018 build 013d7b7c2542+ Fri, 06 Jul 2018 19:26:36 +0100
REM compiler GCC version 9.2.1 20190827 (Red Hat 9.2.1-1)
REM options -cpp -mtune=generic -march=x86-64 -g -O0 -fpre-include=/usr/include/finclude/math-vector-fortran.h
REM seed 888402322 1436922426 -1055270619 729389825 -788627321 7136499 1239362876 -750307299 -640509628 -1702719998 1557568930 -460017166 -1021806371 -1201807139 -2022927434 -740692461 734863850 -47528094 -1929339491 946149580 -1541997917 2146503145 -2037004345 -745617047 -1600702387 29057005 873909887 -1253664309 -773145984 -1640090915 -450798372 -55189230 1238491760
REM
CELL 1.54180   15.00000   15.00000   15.00000   90.00000   90.00000   90.00000
LATT -1
SFAC C  
C      1  0.7241280000000  0.3721660000000  0.5083570000000 1.0
C      1  0.7591350000000  0.5316660000000  0.5042680000000 1.0
C      1  0.7274190000000  0.6732390000000  0.4757870000000 1.0
C      1  0.5986650000000  0.7401530000000  0.5041620000000 1.0
C      1  0.4355170000000  0.7471420000000  0.5081650000000 1.0
C      1  0.2994030000000  0.6964960000000  0.4817530000000 1.0
C      1  0.2499060000000  0.5592870000000  0.5055800000000 1.0
C      1  0.2495770000000  0.3992910000000  0.4987200000000 1.0
C      1  0.3402780000000  0.2814510000000  0.4987810000000 1.0
C      1  0.4950260000000  0.2408200000000  0.5057430000000 1.0
C      1  0.6403450000000  0.2535300000000  0.4819790000000 1.0
C      1  0.4660670000000  0.6504600000000  0.6460560000000 1.0
C      1  0.4362030000000  0.5625330000000  0.6747310000000 1.0
C      1  0.3513060000000  0.5281720000000  0.6445910000000 1.0
C      1  0.3384110000000  0.4356420000000  0.6412230000000 1.0
C      1  0.3980850000000  0.3581110000000  0.6412620000000 1.0
C      1  0.4908320000000  0.3468940000000  0.6446840000000 1.0
C      1  0.5457640000000  0.4201880000000  0.6748030000000 1.0
C      1  0.6384200000000  0.4265330000000  0.6461700000000 1.0
C      1  0.6650310000000  0.5194080000000  0.6470160000000 1.0
C      1  0.5909350000000  0.5682940000000  0.6807070000000 1.0
C      1  0.5626590000000  0.6524130000000  0.6469480000000 1.0
C      1  0.6864940000000  0.3202400000000  0.4386260000000 1.0
C      1  0.7349080000000  0.4525450000000  0.4657110000000 1.0
C      1  0.7429270000000  0.5929600000000  0.4334790000000 1.0
C      1  0.6538030000000  0.7087490000000  0.4334210000000 1.0
C      1  0.5159980000000  0.7369600000000  0.4655650000000 1.0
C      1  0.3757230000000  0.7240070000000  0.4384190000000 1.0
C      1  0.2742390000000  0.6202830000000  0.4371670000000 1.0
C      1  0.2577880000000  0.4809500000000  0.4586380000000 1.0
C      1  0.2988270000000  0.3433430000000  0.4425950000000 1.0
C      1  0.4213400000000  0.2684610000000  0.4587490000000 1.0
C      1  0.5602520000000  0.2486840000000  0.4373580000000 1.0
C      1  0.6237440000000  0.6996120000000  0.5900050000000 1.0
C      1  0.4084430000000  0.7051360000000  0.5931520000000 1.0
C      1  0.3197970000000  0.6746330000000  0.5758470000000 1.0
C      1  0.2934210000000  0.5847390000000  0.5907130000000 1.0
C      1  0.2726390000000  0.3853800000000  0.5904100000000 1.0
C      1  0.3326870000000  0.3073650000000  0.5904500000000 1.0
C      1  0.5307260000000  0.2764220000000  0.5908720000000 1.0
C      1  0.6243840000000  0.2789010000000  0.5760510000000 1.0
C      1  0.6765510000000  0.3568000000000  0.5933300000000 1.0
C      1  0.7263220000000  0.5663410000000  0.5900730000000 1.0
C      1  0.7080840000000  0.6584070000000  0.5718610000000 1.0
C      1  0.3429520000000  0.5821830000000  0.3765180000000 1.0
C      1  0.3268400000000  0.4849060000000  0.3872110000000 1.0
C      1  0.3610410000000  0.3911980000000  0.3828640000000 1.0
C      1  0.4428740000000  0.3341540000000  0.3872890000000 1.0
C      1  0.5410390000000  0.3248220000000  0.3766510000000 1.0
C      1  0.6313100000000  0.3757900000000  0.3766700000000 1.0
C      1  0.6723060000000  0.4646420000000  0.3875940000000 1.0
C      1  0.6690420000000  0.5621870000000  0.3741860000000 1.0
C      1  0.6051750000000  0.6451650000000  0.3741430000000 1.0
C      1  0.5117070000000  0.6732970000000  0.3874860000000 1.0
C      1  0.4153280000000  0.6564030000000  0.3765260000000 1.0
C      1  0.5011170000000  0.4990660000000  0.4906270000000 1.0
C      1  0.5007480000000  0.4987360000000  0.4003200000000 1.0
C      1  0.5009540000000  0.4988510000000  0.3155840000000 1.0
C      1  0.5159890000000  0.5106170000000  0.6957830000000 1.0
C      1  0.5000520000000  0.4981140000000  0.2287940000000 1.0
END
