TITL C-2158988-7926-546 -0.00207822808132082 3375 -414.664701027219 0 0 60 (Cs) n - 1
REM
REM in /scratch/bkarasulu/868
REM
REM
REM
REM
REM
REM ./C.cell (a2850807a9bf4ad07a5b6933b78d9264)
REM AIRSS Version 0.9.1 bugfix July 2018 build 013d7b7c2542+ Fri, 06 Jul 2018 19:26:36 +0100
REM compiler GCC version 9.2.1 20190827 (Red Hat 9.2.1-1)
REM options -cpp -mtune=generic -march=x86-64 -g -O0 -fpre-include=/usr/include/finclude/math-vector-fortran.h
REM seed 1903955469 -2108548554 -417902188 -2109218302 -102327469 1275588827 370381139 921436605 875100411 -1195466624 -79384664 -718706351 -129237713 1859058205 -570955946 438875679 -490962016 753643961 -171259833 -1752666422 -1467360071 1959902613 929258247 917993311 1337883179 243973646 743096160 -1939529891 1160437370 -1317742891 1575379281 -15353548 -819226876
REM
CELL 1.54180   15.00000   15.00000   15.00000   90.00000   90.00000   90.00000
LATT -1
SFAC C  
C      1  0.3478460000000  0.5934820000000  0.3356450000000 1.0
C      1  0.6589260000000  0.5799260000000  0.3332890000000 1.0
C      1  0.4911570000000  0.3203910000000  0.3318390000000 1.0
C      1  0.3478460000000  0.5934820000000  0.6643540000000 1.0
C      1  0.6589260000000  0.5799260000000  0.6667120000000 1.0
C      1  0.4911560000000  0.3203910000000  0.6681610000000 1.0
C      1  0.3338050000000  0.4386750000000  0.3535890000000 1.0
C      1  0.5294840000000  0.6688100000000  0.3565280000000 1.0
C      1  0.6337430000000  0.3857810000000  0.3465970000000 1.0
C      1  0.3338050000000  0.4386750000000  0.6464100000000 1.0
C      1  0.5294830000000  0.6688100000000  0.6434720000000 1.0
C      1  0.6337420000000  0.3857810000000  0.6534040000000 1.0
C      1  0.5088510000000  0.5922740000000  0.7025680000000 1.0
C      1  0.5743390000000  0.4423330000000  0.7090640000000 1.0
C      1  0.4108810000000  0.4605850000000  0.7051220000000 1.0
C      1  0.5088520000000  0.5922740000000  0.2974320000000 1.0
C      1  0.5743400000000  0.4423330000000  0.2909360000000 1.0
C      1  0.4108810000000  0.4605850000000  0.2948770000000 1.0
C      1  0.7249580000000  0.5693350000000  0.5930480000000 1.0
C      1  0.4496380000000  0.2735960000000  0.5936810000000 1.0
C      1  0.3304650000000  0.6528210000000  0.5906470000000 1.0
C      1  0.7249580000000  0.5693360000000  0.4069530000000 1.0
C      1  0.4496380000000  0.2735960000000  0.4063190000000 1.0
C      1  0.3304650000000  0.6528210000000  0.4093520000000 1.0
C      1  0.5021830000000  0.4805020000000  0.4515810000000 1.0
C      1  0.4376350000000  0.5507560000000  0.4539530000000 1.0
C      1  0.5990180000000  0.4934830000000  0.4530080000000 1.0
C      1  0.5021830000000  0.4805020000000  0.5484190000000 1.0
C      1  0.4376350000000  0.5507560000000  0.5460470000000 1.0
C      1  0.5990170000000  0.4934830000000  0.5469920000000 1.0
C      1  0.3927780000000  0.7103250000000  0.4513520000000 1.0
C      1  0.7444480000000  0.4867340000000  0.4514200000000 1.0
C      1  0.3690650000000  0.2999380000000  0.4506540000000 1.0
C      1  0.3927780000000  0.7103250000000  0.5486470000000 1.0
C      1  0.7444480000000  0.4867340000000  0.5485810000000 1.0
C      1  0.3690650000000  0.2999380000000  0.5493450000000 1.0
C      1  0.4868760000000  0.4050780000000  0.2870640000000 1.0
C      1  0.4222460000000  0.5549890000000  0.2919590000000 1.0
C      1  0.5856780000000  0.5359470000000  0.2903230000000 1.0
C      1  0.4868750000000  0.4050780000000  0.7129360000000 1.0
C      1  0.4222450000000  0.5549890000000  0.7080410000000 1.0
C      1  0.5856770000000  0.5359470000000  0.7096770000000 1.0
C      1  0.4687640000000  0.7155350000000  0.4027320000000 1.0
C      1  0.6762820000000  0.4333400000000  0.4131070000000 1.0
C      1  0.3269820000000  0.3637350000000  0.4020960000000 1.0
C      1  0.4687640000000  0.7155350000000  0.5972680000000 1.0
C      1  0.6762810000000  0.4333400000000  0.5868940000000 1.0
C      1  0.3269820000000  0.3637350000000  0.5979030000000 1.0
C      1  0.2943370000000  0.5228320000000  0.3780680000000 1.0
C      1  0.6221730000000  0.6578450000000  0.3797680000000 1.0
C      1  0.5786550000000  0.3127360000000  0.3749890000000 1.0
C      1  0.2943370000000  0.5228320000000  0.6219310000000 1.0
C      1  0.6221720000000  0.6578450000000  0.6202330000000 1.0
C      1  0.5786540000000  0.3127360000000  0.6250110000000 1.0
C      1  0.5374540000000  0.2678270000000  0.5475630000000 1.0
C      1  0.2750330000000  0.5821260000000  0.5463660000000 1.0
C      1  0.6863040000000  0.6482620000000  0.5467990000000 1.0
C      1  0.5374540000000  0.2678270000000  0.4524370000000 1.0
C      1  0.2750330000000  0.5821260000000  0.4536330000000 1.0
C      1  0.6863040000000  0.6482620000000  0.4532020000000 1.0
END
