TITL C-2159252-5904-304 -0.00145819023352903 3375 -389.035423231124 0 0 60 (D2h) n - 1
REM
REM in /scratch/bkarasulu/870
REM
REM
REM
REM
REM
REM ./C.cell (a2850807a9bf4ad07a5b6933b78d9264)
REM AIRSS Version 0.9.1 bugfix July 2018 build 013d7b7c2542+ Fri, 06 Jul 2018 19:26:36 +0100
REM compiler GCC version 9.2.1 20190827 (Red Hat 9.2.1-1)
REM options -cpp -mtune=generic -march=x86-64 -g -O0 -fpre-include=/usr/include/finclude/math-vector-fortran.h
REM seed -952044372 740700429 1557903944 -1413015348 -1050015189 222448172 -1932119806 -2085091672 978714705 -835965173 -1450635000 -1863189802 -1945553474 -820938840 -2119730329 -1979171382 -969836197 -484258069 -768166123 -1423410581 997385711 -1845094603 -348773213 225950631 -673640602 833619327 -587919163 -1680976124 -53427384 2030948887 216005871 1231884144 -816355884
REM
CELL 1.54180   15.00000   15.00000   15.00000   90.00000   90.00000   90.00000
LATT -1
SFAC C  
C      1  0.3008950000000  0.3703260000000  0.4181610000000 1.0
C      1  0.6991050000000  0.6296740000000  0.4181610000000 1.0
C      1  0.3008950000000  0.3703260000000  0.5818390000000 1.0
C      1  0.6991050000000  0.6296740000000  0.5818390000000 1.0
C      1  0.3008950000000  0.6296740000000  0.4181610000000 1.0
C      1  0.6991050000000  0.3703260000000  0.4181610000000 1.0
C      1  0.3008950000000  0.6296740000000  0.5818390000000 1.0
C      1  0.6991050000000  0.3703260000000  0.5818390000000 1.0
C      1  0.2591420000000  0.4517200000000  0.5502530000000 1.0
C      1  0.7408580000000  0.5482800000000  0.5502530000000 1.0
C      1  0.2591420000000  0.4517200000000  0.4497470000000 1.0
C      1  0.7408580000000  0.5482800000000  0.4497470000000 1.0
C      1  0.2591420000000  0.5482800000000  0.5502530000000 1.0
C      1  0.7408580000000  0.4517200000000  0.5502530000000 1.0
C      1  0.2591420000000  0.5482800000000  0.4497470000000 1.0
C      1  0.7408580000000  0.4517200000000  0.4497470000000 1.0
C      1  0.5479780000000  0.5501130000000  0.5826090000000 1.0
C      1  0.4520220000000  0.4498870000000  0.5826090000000 1.0
C      1  0.5479780000000  0.5501130000000  0.4173910000000 1.0
C      1  0.4520220000000  0.4498870000000  0.4173910000000 1.0
C      1  0.5479780000000  0.4498870000000  0.5826090000000 1.0
C      1  0.4520220000000  0.5501130000000  0.5826090000000 1.0
C      1  0.5479780000000  0.4498870000000  0.4173910000000 1.0
C      1  0.4520220000000  0.5501130000000  0.4173910000000 1.0
C      1  0.4529660000000  0.3034260000000  0.5938990000000 1.0
C      1  0.5470340000000  0.6965740000000  0.5938990000000 1.0
C      1  0.4529660000000  0.3034260000000  0.4061010000000 1.0
C      1  0.5470340000000  0.6965740000000  0.4061010000000 1.0
C      1  0.4529660000000  0.6965740000000  0.5938990000000 1.0
C      1  0.5470340000000  0.3034260000000  0.5938990000000 1.0
C      1  0.4529660000000  0.6965740000000  0.4061010000000 1.0
C      1  0.5470340000000  0.3034260000000  0.4061010000000 1.0
C      1  0.6009970000000  0.4529700000000  0.3280440000000 1.0
C      1  0.3990030000000  0.5470300000000  0.3280440000000 1.0
C      1  0.6009970000000  0.4529700000000  0.6719560000000 1.0
C      1  0.3990030000000  0.5470300000000  0.6719560000000 1.0
C      1  0.6009970000000  0.5470300000000  0.3280440000000 1.0
C      1  0.3990030000000  0.4529700000000  0.3280440000000 1.0
C      1  0.6009970000000  0.5470300000000  0.6719560000000 1.0
C      1  0.3990030000000  0.4529700000000  0.6719560000000 1.0
C      1  0.3785840000000  0.6329960000000  0.6406610000000 1.0
C      1  0.6214160000000  0.3670040000000  0.6406610000000 1.0
C      1  0.3785840000000  0.6329960000000  0.3593390000000 1.0
C      1  0.6214160000000  0.3670040000000  0.3593390000000 1.0
C      1  0.3785840000000  0.3670040000000  0.6406610000000 1.0
C      1  0.6214160000000  0.6329960000000  0.6406610000000 1.0
C      1  0.3785840000000  0.3670040000000  0.3593390000000 1.0
C      1  0.6214160000000  0.6329960000000  0.3593390000000 1.0
C      1  0.5841350000000  0.6902770000000  0.5000000000000 1.0
C      1  0.5841350000000  0.3097230000000  0.5000000000000 1.0
C      1  0.4158650000000  0.6902770000000  0.5000000000000 1.0
C      1  0.4158650000000  0.3097230000000  0.5000000000000 1.0
C      1  0.6797970000000  0.3232020000000  0.5000000000000 1.0
C      1  0.3202030000000  0.6767980000000  0.5000000000000 1.0
C      1  0.6797970000000  0.6767980000000  0.5000000000000 1.0
C      1  0.3202030000000  0.3232020000000  0.5000000000000 1.0
C      1  0.5825780000000  0.4158330000000  0.5000000000000 1.0
C      1  0.4174220000000  0.5841670000000  0.5000000000000 1.0
C      1  0.5825780000000  0.5841670000000  0.5000000000000 1.0
C      1  0.4174220000000  0.4158330000000  0.5000000000000 1.0
END
