TITL C-2158984-8299-1079 -0.00160477033097692 3375 -400.410019009764 0 0 60 (Ci) n - 1
REM
REM in /scratch/bkarasulu/869
REM
REM
REM
REM
REM
REM ./C.cell (a2850807a9bf4ad07a5b6933b78d9264)
REM AIRSS Version 0.9.1 bugfix July 2018 build 013d7b7c2542+ Fri, 06 Jul 2018 19:26:36 +0100
REM compiler GCC version 9.2.1 20190827 (Red Hat 9.2.1-1)
REM options -cpp -mtune=generic -march=x86-64 -g -O0 -fpre-include=/usr/include/finclude/math-vector-fortran.h
REM seed 203906208 75159698 -817652775 1920359521 1722939274 1985772702 1913456251 105313905 680194886 -327949059 -119275048 1446180833 -1522978228 1818211802 1187694423 -1718322712 375368188 912501750 -369858371 823556236 115044347 1044288187 -371459518 1234137934 -507606891 1357267026 629603592 -1565191401 2133582019 -1476914397 -2040772459 -1308594473 -951660078
REM
CELL 1.54180   15.00000   15.00000   15.00000   90.00000   90.00000   90.00000
LATT -1
SFAC C  
C      1  0.4867860000000  0.2990400000000  0.5427710000000 1.0
C      1  0.5132140000000  0.7009600000000  0.4572290000000 1.0
C      1  0.3808360000000  0.4244720000000  0.3868100000000 1.0
C      1  0.6191640000000  0.5755280000000  0.6131900000000 1.0
C      1  0.6808770000000  0.3829680000000  0.4031710000000 1.0
C      1  0.3191230000000  0.6170320000000  0.5968290000000 1.0
C      1  0.4365610000000  0.6218770000000  0.3488670000000 1.0
C      1  0.5634390000000  0.3781230000000  0.6511330000000 1.0
C      1  0.6375030000000  0.7226790000000  0.6229210000000 1.0
C      1  0.3624970000000  0.2773210000000  0.3770790000000 1.0
C      1  0.4910670000000  0.5419070000000  0.3740590000000 1.0
C      1  0.5089330000000  0.4580930000000  0.6259410000000 1.0
C      1  0.3577280000000  0.6780040000000  0.5309920000000 1.0
C      1  0.6422720000000  0.3219960000000  0.4690080000000 1.0
C      1  0.6641570000000  0.5641700000000  0.3563460000000 1.0
C      1  0.3358430000000  0.4358300000000  0.6436540000000 1.0
C      1  0.5040350000000  0.5260720000000  0.7032770000000 1.0
C      1  0.4959650000000  0.4739280000000  0.2967230000000 1.0
C      1  0.4705290000000  0.5768600000000  0.5526900000000 1.0
C      1  0.5294710000000  0.4231400000000  0.4473100000000 1.0
C      1  0.5077140000000  0.3022640000000  0.6352940000000 1.0
C      1  0.4922860000000  0.6977360000000  0.3647060000000 1.0
C      1  0.5820850000000  0.5559270000000  0.4175980000000 1.0
C      1  0.4179150000000  0.4440730000000  0.5824020000000 1.0
C      1  0.6845180000000  0.4398720000000  0.4779710000000 1.0
C      1  0.3154820000000  0.5601280000000  0.5220290000000 1.0
C      1  0.4004880000000  0.3432590000000  0.5351540000000 1.0
C      1  0.5995120000000  0.6567410000000  0.4648460000000 1.0
C      1  0.4834800000000  0.6922160000000  0.6320320000000 1.0
C      1  0.5165200000000  0.3077840000000  0.3679680000000 1.0
C      1  0.4417570000000  0.2654990000000  0.3375550000000 1.0
C      1  0.5582430000000  0.7345010000000  0.6624450000000 1.0
C      1  0.4287020000000  0.3231540000000  0.6848280000000 1.0
C      1  0.5712980000000  0.6768460000000  0.3151720000000 1.0
C      1  0.3627850000000  0.3469780000000  0.4419500000000 1.0
C      1  0.6372150000000  0.6530220000000  0.5580500000000 1.0
C      1  0.5552450000000  0.5205380000000  0.5634300000000 1.0
C      1  0.4447550000000  0.4794620000000  0.4365700000000 1.0
C      1  0.4449460000000  0.3799010000000  0.7552640000000 1.0
C      1  0.5550540000000  0.6200990000000  0.2447360000000 1.0
C      1  0.5616120000000  0.5303080000000  0.2475180000000 1.0
C      1  0.4383880000000  0.4696920000000  0.7524820000000 1.0
C      1  0.4539710000000  0.6813750000000  0.5337400000000 1.0
C      1  0.5460290000000  0.3186250000000  0.4662600000000 1.0
C      1  0.6401330000000  0.4142450000000  0.3266910000000 1.0
C      1  0.3598670000000  0.5857550000000  0.6733090000000 1.0
C      1  0.5925000000000  0.5590070000000  0.6997540000000 1.0
C      1  0.4075000000000  0.4409930000000  0.3002460000000 1.0
C      1  0.5951560000000  0.4864200000000  0.4820500000000 1.0
C      1  0.4048440000000  0.5135800000000  0.5179500000000 1.0
C      1  0.6750750000000  0.3698540000000  0.5447440000000 1.0
C      1  0.3249250000000  0.6301460000000  0.4552560000000 1.0
C      1  0.6427860000000  0.6549560000000  0.3730690000000 1.0
C      1  0.3572140000000  0.3450440000000  0.6269310000000 1.0
C      1  0.5469810000000  0.3998180000000  0.3432650000000 1.0
C      1  0.4530190000000  0.6001820000000  0.6567350000000 1.0
C      1  0.3514640000000  0.4974160000000  0.7116780000000 1.0
C      1  0.6485360000000  0.5025840000000  0.2883220000000 1.0
C      1  0.6495400000000  0.3849790000000  0.6261900000000 1.0
C      1  0.3504600000000  0.6150210000000  0.3738100000000 1.0
END
