TITL C-2158988-7926-325 -0.00409302828428422 3375 -434.300980723213 0 0 60 (D10) n - 1
REM
REM in /scratch/bkarasulu/868
REM
REM
REM
REM
REM
REM ./C.cell (a2850807a9bf4ad07a5b6933b78d9264)
REM AIRSS Version 0.9.1 bugfix July 2018 build 013d7b7c2542+ Fri, 06 Jul 2018 19:26:36 +0100
REM compiler GCC version 9.2.1 20190827 (Red Hat 9.2.1-1)
REM options -cpp -mtune=generic -march=x86-64 -g -O0 -fpre-include=/usr/include/finclude/math-vector-fortran.h
REM seed -1133097833 -1433497291 616068154 -587858527 2103723552 1225530952 -642600970 -587417456 862364446 -425145456 726500798 -1512612731 -437866443 1504481148 -1816843570 701360346 -1624154167 -789412906 -1987452681 -485502445 1916084454 -1388696324 1133501902 -1974354657 1167415177 1578826059 -1371566156 -1093463802 -999557439 -2043748017 -161650600 1642048640 -1857996089
REM
CELL 1.54180   15.00000   15.00000   15.00000   90.00000   90.00000   90.00000
LATT -1
SFAC C  
C      1  0.3523900000000  0.4483240000000  0.6429470000000 1.0
C      1  0.3502070000000  0.5449560000000  0.6429470000000 1.0
C      1  0.4052400000000  0.6244170000000  0.6429470000000 1.0
C      1  0.4964670000000  0.6563550000000  0.6429470000000 1.0
C      1  0.5890440000000  0.6285700000000  0.6429470000000 1.0
C      1  0.6476100000000  0.5516760000000  0.6429470000000 1.0
C      1  0.6497930000000  0.4550440000000  0.6429470000000 1.0
C      1  0.5947600000000  0.3755830000000  0.6429470000000 1.0
C      1  0.5035330000000  0.3436450000000  0.6429470000000 1.0
C      1  0.4109560000000  0.3714300000000  0.6429470000000 1.0
C      1  0.2878370000000  0.3384080000000  0.5480250000000 1.0
C      1  0.2333710000000  0.4939750000000  0.5480260000000 1.0
C      1  0.2807540000000  0.6518440000000  0.5480250000000 1.0
C      1  0.4118790000000  0.7517160000000  0.5480250000000 1.0
C      1  0.5766620000000  0.7554410000000  0.5480250000000 1.0
C      1  0.7121630000000  0.6615920000000  0.5480250000000 1.0
C      1  0.7666290000000  0.5060250000000  0.5480260000000 1.0
C      1  0.7192460000000  0.3481560000000  0.5480250000000 1.0
C      1  0.5881210000000  0.2482840000000  0.5480250000000 1.0
C      1  0.4233380000000  0.2445590000000  0.5480250000000 1.0
C      1  0.3625970000000  0.3016060000000  0.5916780000000 1.0
C      1  0.2722240000000  0.4202600000000  0.5916790000000 1.0
C      1  0.2688550000000  0.5693710000000  0.5916790000000 1.0
C      1  0.3537770000000  0.6919850000000  0.5916770000000 1.0
C      1  0.4945490000000  0.7412720000000  0.5916800000000 1.0
C      1  0.6374030000000  0.6983940000000  0.5916780000000 1.0
C      1  0.7277760000000  0.5797400000000  0.5916790000000 1.0
C      1  0.7311450000000  0.4306290000000  0.5916790000000 1.0
C      1  0.6462230000000  0.3080150000000  0.5916770000000 1.0
C      1  0.5054510000000  0.2587280000000  0.5916800000000 1.0
C      1  0.5890440000000  0.6285710000000  0.3570530000000 1.0
C      1  0.6476100000000  0.5516760000000  0.3570530000000 1.0
C      1  0.6497930000000  0.4550440000000  0.3570530000000 1.0
C      1  0.5947600000000  0.3755830000000  0.3570530000000 1.0
C      1  0.5035330000000  0.3436440000000  0.3570520000000 1.0
C      1  0.4109560000000  0.3714290000000  0.3570530000000 1.0
C      1  0.3523900000000  0.4483240000000  0.3570530000000 1.0
C      1  0.3502070000000  0.5449560000000  0.3570530000000 1.0
C      1  0.4052400000000  0.6244170000000  0.3570530000000 1.0
C      1  0.4964670000000  0.6563560000000  0.3570520000000 1.0
C      1  0.5881210000000  0.2482840000000  0.4519750000000 1.0
C      1  0.4233380000000  0.2445590000000  0.4519750000000 1.0
C      1  0.2878370000000  0.3384080000000  0.4519750000000 1.0
C      1  0.2333710000000  0.4939750000000  0.4519740000000 1.0
C      1  0.2807550000000  0.6518440000000  0.4519750000000 1.0
C      1  0.4118790000000  0.7517160000000  0.4519750000000 1.0
C      1  0.5766620000000  0.7554410000000  0.4519750000000 1.0
C      1  0.7121630000000  0.6615920000000  0.4519750000000 1.0
C      1  0.7666290000000  0.5060250000000  0.4519740000000 1.0
C      1  0.7192450000000  0.3481560000000  0.4519750000000 1.0
C      1  0.7277760000000  0.5797400000000  0.4083210000000 1.0
C      1  0.7311450000000  0.4306290000000  0.4083210000000 1.0
C      1  0.6462230000000  0.3080150000000  0.4083230000000 1.0
C      1  0.5054520000000  0.2587280000000  0.4083200000000 1.0
C      1  0.3625970000000  0.3016060000000  0.4083220000000 1.0
C      1  0.2722240000000  0.4202600000000  0.4083210000000 1.0
C      1  0.2688550000000  0.5693710000000  0.4083210000000 1.0
C      1  0.3537770000000  0.6919850000000  0.4083230000000 1.0
C      1  0.4945480000000  0.7412720000000  0.4083200000000 1.0
C      1  0.6374030000000  0.6983940000000  0.4083220000000 1.0
END
