TITL C-2158984-8299-685 -0.00191838046158984 3375 -404.790581199683 0 0 60 (C5) n - 1
REM
REM in /scratch/bkarasulu/869
REM
REM
REM
REM
REM
REM ./C.cell (a2850807a9bf4ad07a5b6933b78d9264)
REM AIRSS Version 0.9.1 bugfix July 2018 build 013d7b7c2542+ Fri, 06 Jul 2018 19:26:36 +0100
REM compiler GCC version 9.2.1 20190827 (Red Hat 9.2.1-1)
REM options -cpp -mtune=generic -march=x86-64 -g -O0 -fpre-include=/usr/include/finclude/math-vector-fortran.h
REM seed -1538375797 -1961337009 -1202424105 -1167201498 -1688122319 -806248449 15809866 886067266 -703184311 1205840115 -949357167 -1587308114 1344319523 410787347 -470252867 -1103957475 2091046066 1512749218 830982940 1678952868 -1869044413 637054002 -2070831979 -1372175851 -902175698 817116669 1749434943 -1515419202 -1437026599 -1736637880 -690228486 -1457436754 725409554
REM
CELL 1.54180   15.00000   15.00000   15.00000   90.00000   90.00000   90.00000
LATT -1
SFAC C  
C      1  0.2785260000000  0.5667330000000  0.5933730000000 1.0
C      1  0.3427560000000  0.5667320000000  0.3182220000000 1.0
C      1  0.6242880000000  0.5667340000000  0.2942750000000 1.0
C      1  0.7340690000000  0.5667380000000  0.5546310000000 1.0
C      1  0.5203680000000  0.5667380000000  0.7394890000000 1.0
C      1  0.4629350000000  0.6372260000000  0.7365000000000 1.0
C      1  0.2636180000000  0.6372210000000  0.5378290000000 1.0
C      1  0.3909730000000  0.6372190000000  0.2868760000000 1.0
C      1  0.6689970000000  0.6372230000000  0.3304480000000 1.0
C      1  0.7134770000000  0.6372260000000  0.6083280000000 1.0
C      1  0.4748470000000  0.4002220000000  0.2835130000000 1.0
C      1  0.6981200000000  0.4002250000000  0.4091810000000 1.0
C      1  0.6475990000000  0.4002260000000  0.6603590000000 1.0
C      1  0.3931010000000  0.4002240000000  0.6899310000000 1.0
C      1  0.2863330000000  0.4002210000000  0.4570260000000 1.0
C      1  0.5901650000000  0.3234540000000  0.3735550000000 1.0
C      1  0.6481230000000  0.3234550000000  0.5466790000000 1.0
C      1  0.5013810000000  0.3234540000000  0.6552980000000 1.0
C      1  0.3527320000000  0.3234520000000  0.5493050000000 1.0
C      1  0.4076040000000  0.3234520000000  0.3751780000000 1.0
C      1  0.5957920000000  0.5791560000000  0.6795370000000 1.0
C      1  0.3588490000000  0.5791550000000  0.6465810000000 1.0
C      1  0.3169710000000  0.5791530000000  0.4110560000000 1.0
C      1  0.5280300000000  0.5791540000000  0.2984420000000 1.0
C      1  0.7003540000000  0.5791560000000  0.4643730000000 1.0
C      1  0.3558800000000  0.3274220000000  0.4513920000000 1.0
C      1  0.5016970000000  0.3274230000000  0.3479150000000 1.0
C      1  0.6451700000000  0.3274250000000  0.4546180000000 1.0
C      1  0.5880240000000  0.3274250000000  0.6240420000000 1.0
C      1  0.4092330000000  0.3274240000000  0.6220480000000 1.0
C      1  0.5090420000000  0.4869000000000  0.4216700000000 1.0
C      1  0.5772910000000  0.4869000000000  0.4843980000000 1.0
C      1  0.5387230000000  0.4868980000000  0.5686910000000 1.0
C      1  0.4466380000000  0.4868960000000  0.5580580000000 1.0
C      1  0.4282940000000  0.4868970000000  0.4671940000000 1.0
C      1  0.4741330000000  0.6505710000000  0.3292690000000 1.0
C      1  0.6543790000000  0.6505720000000  0.4226380000000 1.0
C      1  0.6212800000000  0.6505700000000  0.6229140000000 1.0
C      1  0.4205750000000  0.6505700000000  0.6533220000000 1.0
C      1  0.3296360000000  0.6505700000000  0.4718410000000 1.0
C      1  0.5169560000000  0.4830150000000  0.3188680000000 1.0
C      1  0.6775070000000  0.4830170000000  0.4601560000000 1.0
C      1  0.5927480000000  0.4830170000000  0.6565090000000 1.0
C      1  0.3798110000000  0.4830140000000  0.6365740000000 1.0
C      1  0.3329690000000  0.4830130000000  0.4279000000000 1.0
C      1  0.3815930000000  0.3920580000000  0.3038610000000 1.0
C      1  0.6499520000000  0.3920620000000  0.3267790000000 1.0
C      1  0.7110840000000  0.3920640000000  0.5890850000000 1.0
C      1  0.4805050000000  0.3920620000000  0.7282830000000 1.0
C      1  0.2768660000000  0.3920580000000  0.5520030000000 1.0
C      1  0.6131950000000  0.4694120000000  0.2936570000000 1.0
C      1  0.7312270000000  0.4694150000000  0.5438920000000 1.0
C      1  0.5297070000000  0.4694150000000  0.7334730000000 1.0
C      1  0.2871340000000  0.4694110000000  0.6004000000000 1.0
C      1  0.3387350000000  0.4694100000000  0.3285820000000 1.0
C      1  0.5727670000000  0.6838300000000  0.4627400000000 1.0
C      1  0.5579210000000  0.6838280000000  0.5576880000000 1.0
C      1  0.4630310000000  0.6838280000000  0.5729090000000 1.0
C      1  0.4192330000000  0.6838290000000  0.4873680000000 1.0
C      1  0.4870530000000  0.6838300000000  0.4192790000000 1.0
END
