TITL C-2159255-4746-37 -0.00220136906640143 3375 -409.063830907868 0 0 60 (Cs) n - 1
REM
REM in /scratch/bkarasulu/871
REM
REM
REM
REM
REM
REM ./C.cell (a2850807a9bf4ad07a5b6933b78d9264)
REM AIRSS Version 0.9.1 bugfix July 2018 build 013d7b7c2542+ Fri, 06 Jul 2018 19:26:36 +0100
REM compiler GCC version 9.2.1 20190827 (Red Hat 9.2.1-1)
REM options -cpp -mtune=generic -march=x86-64 -g -O0 -fpre-include=/usr/include/finclude/math-vector-fortran.h
REM seed 1500371320 -1427479608 1789306975 902061602 -1010529815 -481167180 -896994763 1842861782 815811417 -293048119 1936718220 -1950785974 -1778862338 1761451934 1344336519 -638417690 1177192570 -1749184916 -1013194746 -1672678012 1328617313 1224410620 -1182478050 -360194540 -1141950353 -1635564334 -2141431409 982255995 120435478 2146449044 -1387252774 -1788695643 -1051884765
REM
CELL 1.54180   15.00000   15.00000   15.00000   90.00000   90.00000   90.00000
LATT -1
SFAC C  
C      1  0.5915050000000  0.7610080000000  0.5523260000000 1.0
C      1  0.5915050000000  0.7610080000000  0.4476740000000 1.0
C      1  0.3621340000000  0.5702310000000  0.5891640000000 1.0
C      1  0.3621340000000  0.5702310000000  0.4108360000000 1.0
C      1  0.5532240000000  0.4761330000000  0.2983430000000 1.0
C      1  0.5532240000000  0.4761330000000  0.7016570000000 1.0
C      1  0.3181180000000  0.3548260000000  0.5483250000000 1.0
C      1  0.3181180000000  0.3548260000000  0.4516750000000 1.0
C      1  0.4545640000000  0.4120630000000  0.4501520000000 1.0
C      1  0.4545640000000  0.4120630000000  0.5498480000000 1.0
C      1  0.4449590000000  0.3664250000000  0.6741850000000 1.0
C      1  0.4449590000000  0.3664250000000  0.3258150000000 1.0
C      1  0.4935370000000  0.7792410000000  0.4526990000000 1.0
C      1  0.4935370000000  0.7792410000000  0.5473010000000 1.0
C      1  0.5316560000000  0.3273020000000  0.3276150000000 1.0
C      1  0.5316560000000  0.3273020000000  0.6723850000000 1.0
C      1  0.5453390000000  0.2737470000000  0.5934560000000 1.0
C      1  0.5453390000000  0.2737470000000  0.4065440000000 1.0
C      1  0.5976640000000  0.3943560000000  0.6777610000000 1.0
C      1  0.5976640000000  0.3943560000000  0.3222390000000 1.0
C      1  0.4322800000000  0.7251340000000  0.4047230000000 1.0
C      1  0.4322800000000  0.7251340000000  0.5952770000000 1.0
C      1  0.7044560000000  0.4544740000000  0.5493750000000 1.0
C      1  0.7044560000000  0.4544740000000  0.4506250000000 1.0
C      1  0.6341540000000  0.7000630000000  0.4005900000000 1.0
C      1  0.6341540000000  0.7000630000000  0.5994100000000 1.0
C      1  0.4133930000000  0.5428640000000  0.6748190000000 1.0
C      1  0.4133930000000  0.5428640000000  0.3251810000000 1.0
C      1  0.5671810000000  0.5629940000000  0.6568160000000 1.0
C      1  0.5671810000000  0.5629940000000  0.3431840000000 1.0
C      1  0.2869430000000  0.5196180000000  0.4514030000000 1.0
C      1  0.2869430000000  0.5196180000000  0.5485970000000 1.0
C      1  0.6240090000000  0.3021480000000  0.4528090000000 1.0
C      1  0.6240090000000  0.3021480000000  0.5471910000000 1.0
C      1  0.3781220000000  0.6591250000000  0.5474120000000 1.0
C      1  0.3781220000000  0.6591250000000  0.4525880000000 1.0
C      1  0.6445970000000  0.3907230000000  0.5905930000000 1.0
C      1  0.6445970000000  0.3907230000000  0.4094070000000 1.0
C      1  0.4339390000000  0.5104970000000  0.5496710000000 1.0
C      1  0.4339390000000  0.5104970000000  0.4503290000000 1.0
C      1  0.4657760000000  0.6943470000000  0.6767530000000 1.0
C      1  0.4657760000000  0.6943470000000  0.3232470000000 1.0
C      1  0.6446880000000  0.6095230000000  0.3873430000000 1.0
C      1  0.6446880000000  0.6095230000000  0.6126570000000 1.0
C      1  0.5320710000000  0.5297450000000  0.5535980000000 1.0
C      1  0.5320710000000  0.5297450000000  0.4464020000000 1.0
C      1  0.4585580000000  0.4609010000000  0.7016930000000 1.0
C      1  0.4585580000000  0.4609010000000  0.2983070000000 1.0
C      1  0.4837720000000  0.6089170000000  0.6868230000000 1.0
C      1  0.4837720000000  0.6089170000000  0.3131770000000 1.0
C      1  0.4033120000000  0.3314230000000  0.5904190000000 1.0
C      1  0.4033120000000  0.3314230000000  0.4095810000000 1.0
C      1  0.2885420000000  0.4345670000000  0.4218060000000 1.0
C      1  0.2885420000000  0.4345670000000  0.5781940000000 1.0
C      1  0.4629690000000  0.2639140000000  0.5475740000000 1.0
C      1  0.4629690000000  0.2639140000000  0.4524260000000 1.0
C      1  0.5532120000000  0.4321020000000  0.4515100000000 1.0
C      1  0.5532120000000  0.4321020000000  0.5484900000000 1.0
C      1  0.6953270000000  0.5515890000000  0.5494810000000 1.0
C      1  0.6953270000000  0.5515890000000  0.4505190000000 1.0
END
