TITL C-2158988-7926-990 -0.00219520718612073 3375 -421.304666162789 0 0 60 (C7) n - 1
REM
REM in /scratch/bkarasulu/868
REM
REM
REM
REM
REM
REM ./C.cell (a2850807a9bf4ad07a5b6933b78d9264)
REM AIRSS Version 0.9.1 bugfix July 2018 build 013d7b7c2542+ Fri, 06 Jul 2018 19:26:36 +0100
REM compiler GCC version 9.2.1 20190827 (Red Hat 9.2.1-1)
REM options -cpp -mtune=generic -march=x86-64 -g -O0 -fpre-include=/usr/include/finclude/math-vector-fortran.h
REM seed 1431270635 113754437 -885803954 794262780 -1529882676 51431582 1411721861 86471395 372502887 1489770268 397671528 161778254 -2139334636 806817557 -1173098144 -732008084 915404510 624236128 -553504444 300377674 -1127397359 -580180940 -382710971 -753556275 1462573215 -736039684 421300017 -667318731 -906376723 32686661 -1175299481 -716506756 -2005840851
REM
CELL 1.54180   15.00000   15.00000   15.00000   90.00000   90.00000   90.00000
LATT -1
SFAC C  
C      1  0.4066980000000  0.5515040000000  0.2589890000000 1.0
C      1  0.4021440000000  0.4578320000000  0.2589890000000 1.0
C      1  0.4725410000000  0.3958690000000  0.2589900000000 1.0
C      1  0.5648780000000  0.4122730000000  0.2589900000000 1.0
C      1  0.6096230000000  0.4946930000000  0.2589900000000 1.0
C      1  0.5730830000000  0.5810640000000  0.2589900000000 1.0
C      1  0.4827730000000  0.6063470000000  0.2589890000000 1.0
C      1  0.3497440000000  0.5824210000000  0.6928200000000 1.0
C      1  0.3424620000000  0.4325800000000  0.6928200000000 1.0
C      1  0.4550720000000  0.3334620000000  0.6928200000000 1.0
C      1  0.6027760000000  0.3597060000000  0.6928200000000 1.0
C      1  0.6743510000000  0.4915480000000  0.6928210000000 1.0
C      1  0.6158990000000  0.6297100000000  0.6928210000000 1.0
C      1  0.4714350000000  0.6701520000000  0.6928200000000 1.0
C      1  0.5352560000000  0.3109330000000  0.3754820000000 1.0
C      1  0.6703850000000  0.4083490000000  0.3754820000000 1.0
C      1  0.6784730000000  0.5747350000000  0.3754820000000 1.0
C      1  0.5534310000000  0.6847990000000  0.3754820000000 1.0
C      1  0.3894170000000  0.6556590000000  0.3754820000000 1.0
C      1  0.3099360000000  0.5092610000000  0.3754820000000 1.0
C      1  0.3748420000000  0.3558440000000  0.3754820000000 1.0
C      1  0.3882970000000  0.4519730000000  0.5997020000000 1.0
C      1  0.4684880000000  0.3813890000000  0.5997020000000 1.0
C      1  0.5736710000000  0.4000760000000  0.5997020000000 1.0
C      1  0.6246410000000  0.4939630000000  0.5997020000000 1.0
C      1  0.5830170000000  0.5923510000000  0.5997020000000 1.0
C      1  0.4801420000000  0.6211510000000  0.5997020000000 1.0
C      1  0.3934830000000  0.5586770000000  0.5997020000000 1.0
C      1  0.3742100000000  0.3551220000000  0.7307500000000 1.0
C      1  0.5354260000000  0.3099900000000  0.7307490000000 1.0
C      1  0.6712280000000  0.4078940000000  0.7307500000000 1.0
C      1  0.6793540000000  0.5751110000000  0.7307500000000 1.0
C      1  0.5536860000000  0.6857220000000  0.7307500000000 1.0
C      1  0.3888540000000  0.6564350000000  0.7307500000000 1.0
C      1  0.3089790000000  0.5093050000000  0.7307490000000 1.0
C      1  0.5536390000000  0.6855440000000  0.4700220000000 1.0
C      1  0.3889640000000  0.6562870000000  0.4700220000000 1.0
C      1  0.3091630000000  0.5092980000000  0.4700220000000 1.0
C      1  0.3743310000000  0.3552620000000  0.4700210000000 1.0
C      1  0.5353920000000  0.3101710000000  0.4700220000000 1.0
C      1  0.6710660000000  0.4079800000000  0.4700220000000 1.0
C      1  0.6791860000000  0.5750370000000  0.4700220000000 1.0
C      1  0.6050770000000  0.3565120000000  0.5151120000000 1.0
C      1  0.6782830000000  0.4913550000000  0.5151120000000 1.0
C      1  0.6185000000000  0.6326630000000  0.5151120000000 1.0
C      1  0.4707480000000  0.6740280000000  0.5151120000000 1.0
C      1  0.3462860000000  0.5843000000000  0.5151120000000 1.0
C      1  0.3388360000000  0.4310480000000  0.5151120000000 1.0
C      1  0.4540090000000  0.3296730000000  0.5151120000000 1.0
C      1  0.6168730000000  0.6308130000000  0.3299570000000 1.0
C      1  0.4711800000000  0.6716020000000  0.3299570000000 1.0
C      1  0.3484510000000  0.5831260000000  0.3299570000000 1.0
C      1  0.3411050000000  0.4320090000000  0.3299560000000 1.0
C      1  0.4546730000000  0.3320460000000  0.3299570000000 1.0
C      1  0.6036360000000  0.3585110000000  0.3299570000000 1.0
C      1  0.6758220000000  0.4914750000000  0.3299570000000 1.0
C      1  0.5016800000000  0.4999370000000  0.4074500000000 1.0
C      1  0.5016770000000  0.4999400000000  0.6716030000000 1.0
C      1  0.5016770000000  0.4999400000000  0.4881800000000 1.0
C      1  0.5016770000000  0.4999400000000  0.7501070000000 1.0
END
