TITL C-2158988-7926-345 -0.00145741257310312 3375 -400.293082368142 0 0 60 (C2v) n - 1
REM
REM in /scratch/bkarasulu/868
REM
REM
REM
REM
REM
REM ./C.cell (a2850807a9bf4ad07a5b6933b78d9264)
REM AIRSS Version 0.9.1 bugfix July 2018 build 013d7b7c2542+ Fri, 06 Jul 2018 19:26:36 +0100
REM compiler GCC version 9.2.1 20190827 (Red Hat 9.2.1-1)
REM options -cpp -mtune=generic -march=x86-64 -g -O0 -fpre-include=/usr/include/finclude/math-vector-fortran.h
REM seed -28630009 -2052852602 1883015969 -607037630 -233042020 1257557654 -1711196849 -17406009 -1309071568 1935088873 -1801164076 126561121 1933495516 -1153457642 1884574087 1735912574 -564630974 241673611 370915762 -82156018 176973817 1822787161 -418881482 -294801909 -322683712 1281155101 394532646 -1272122406 935953268 832078537 -791914330 1739933067 643129658
REM
CELL 1.54180   15.00000   15.00000   15.00000   90.00000   90.00000   90.00000
LATT -1
SFAC C  
C      1  0.7008250000000  0.4369040000000  0.5514750000000 1.0
C      1  0.5492730000000  0.4337600000000  0.2972500000000 1.0
C      1  0.2991760000000  0.4369010000000  0.4485260000000 1.0
C      1  0.4507280000000  0.4337610000000  0.7027510000000 1.0
C      1  0.2972500000000  0.4337590000000  0.5492720000000 1.0
C      1  0.4485260000000  0.4369010000000  0.2991750000000 1.0
C      1  0.7027510000000  0.4337610000000  0.4507280000000 1.0
C      1  0.5514750000000  0.4369030000000  0.7008250000000 1.0
C      1  0.3340940000000  0.3619340000000  0.5944110000000 1.0
C      1  0.5958180000000  0.3636140000000  0.6665220000000 1.0
C      1  0.6659070000000  0.3619350000000  0.4055900000000 1.0
C      1  0.4041840000000  0.3636110000000  0.3334800000000 1.0
C      1  0.6665220000000  0.3636140000000  0.5958180000000 1.0
C      1  0.4055900000000  0.3619350000000  0.6659070000000 1.0
C      1  0.3334800000000  0.3636110000000  0.4041830000000 1.0
C      1  0.5944110000000  0.3619340000000  0.3340940000000 1.0
C      1  0.4007980000000  0.6193460000000  0.3078280000000 1.0
C      1  0.3087950000000  0.6139540000000  0.6009930000000 1.0
C      1  0.5992010000000  0.6193490000000  0.6921710000000 1.0
C      1  0.6912040000000  0.6139560000000  0.3990050000000 1.0
C      1  0.6009930000000  0.6139550000000  0.3087950000000 1.0
C      1  0.6921710000000  0.6193490000000  0.5992010000000 1.0
C      1  0.3990050000000  0.6139550000000  0.6912040000000 1.0
C      1  0.3078280000000  0.6193460000000  0.4007980000000 1.0
C      1  0.3819720000000  0.2936830000000  0.4523840000000 1.0
C      1  0.4536170000000  0.2929620000000  0.6172030000000 1.0
C      1  0.6180300000000  0.2936850000000  0.5476180000000 1.0
C      1  0.5463850000000  0.2929610000000  0.3827990000000 1.0
C      1  0.6172030000000  0.2929620000000  0.4536170000000 1.0
C      1  0.5476180000000  0.2936850000000  0.6180300000000 1.0
C      1  0.3827990000000  0.2929610000000  0.5463850000000 1.0
C      1  0.4523840000000  0.2936830000000  0.3819720000000 1.0
C      1  0.5380690000000  0.6374190000000  0.3901200000000 1.0
C      1  0.3816080000000  0.6740380000000  0.4500020000000 1.0
C      1  0.4619290000000  0.6374200000000  0.6098780000000 1.0
C      1  0.6183890000000  0.6740400000000  0.5499970000000 1.0
C      1  0.4500010000000  0.6740380000000  0.3816090000000 1.0
C      1  0.6098780000000  0.6374200000000  0.4619300000000 1.0
C      1  0.5499960000000  0.6740400000000  0.6183900000000 1.0
C      1  0.3901200000000  0.6374190000000  0.5380690000000 1.0
C      1  0.4118040000000  0.5159400000000  0.6649610000000 1.0
C      1  0.6611070000000  0.5239620000000  0.5823980000000 1.0
C      1  0.5881950000000  0.5159400000000  0.3350390000000 1.0
C      1  0.3388930000000  0.5239590000000  0.4176020000000 1.0
C      1  0.5823980000000  0.5239620000000  0.6611070000000 1.0
C      1  0.3350390000000  0.5159390000000  0.5881950000000 1.0
C      1  0.4176020000000  0.5239590000000  0.3388930000000 1.0
C      1  0.6649610000000  0.5159400000000  0.4118040000000 1.0
C      1  0.3134480000000  0.6423900000000  0.3134480000000 1.0
C      1  0.6849460000000  0.6491720000000  0.3150530000000 1.0
C      1  0.3150530000000  0.6491720000000  0.6849460000000 1.0
C      1  0.6865500000000  0.6423940000000  0.6865510000000 1.0
C      1  0.3848140000000  0.5407090000000  0.5033250000000 1.0
C      1  0.4966750000000  0.5407110000000  0.6151860000000 1.0
C      1  0.5033250000000  0.5407090000000  0.3848140000000 1.0
C      1  0.6151860000000  0.5407110000000  0.4966750000000 1.0
C      1  0.4998940000000  0.4557940000000  0.5649570000000 1.0
C      1  0.5649570000000  0.4557940000000  0.4998940000000 1.0
C      1  0.5001060000000  0.4557940000000  0.4350430000000 1.0
C      1  0.4350430000000  0.4557940000000  0.5001060000000 1.0
END
