TITL C-2159255-4746-299 -0.00167307688417294 3375 -404.705455035733 0 0 60 (D4) n - 1
REM
REM in /scratch/bkarasulu/871
REM
REM
REM
REM
REM
REM ./C.cell (a2850807a9bf4ad07a5b6933b78d9264)
REM AIRSS Version 0.9.1 bugfix July 2018 build 013d7b7c2542+ Fri, 06 Jul 2018 19:26:36 +0100
REM compiler GCC version 9.2.1 20190827 (Red Hat 9.2.1-1)
REM options -cpp -mtune=generic -march=x86-64 -g -O0 -fpre-include=/usr/include/finclude/math-vector-fortran.h
REM seed 1498853435 58874987 81953647 -1291085827 1496870498 -1427964721 -1095279587 -2117599504 510171562 -245241473 1055452696 -1551873446 731838207 544759214 844962757 -60073470 -1798412162 252747044 -1148643512 451550397 -1964602357 41909299 158459657 -49889916 1967431293 389366227 1255581108 1540704496 415718533 -1381346392 454918941 1941268492 -1530398393
REM
CELL 1.54180   15.00000   15.00000   15.00000   90.00000   90.00000   90.00000
LATT -1
SFAC C  
C      1  0.3873350000000  0.6602070000000  0.6492250000000 1.0
C      1  0.3507750000000  0.6602070000000  0.3873350000000 1.0
C      1  0.6126650000000  0.6602070000000  0.3507750000000 1.0
C      1  0.6492250000000  0.6602070000000  0.6126650000000 1.0
C      1  0.6126170000000  0.3370310000000  0.6492400000000 1.0
C      1  0.6492400000000  0.3370310000000  0.3873830000000 1.0
C      1  0.3873830000000  0.3370310000000  0.3507600000000 1.0
C      1  0.3507600000000  0.3370310000000  0.6126170000000 1.0
C      1  0.4011570000000  0.4128780000000  0.6323920000000 1.0
C      1  0.3676080000000  0.4128780000000  0.4011570000000 1.0
C      1  0.5988430000000  0.4128780000000  0.3676080000000 1.0
C      1  0.6323920000000  0.4128780000000  0.5988430000000 1.0
C      1  0.5988250000000  0.5843640000000  0.6324260000000 1.0
C      1  0.6324260000000  0.5843640000000  0.4011750000000 1.0
C      1  0.4011750000000  0.5843640000000  0.3675740000000 1.0
C      1  0.3675740000000  0.5843640000000  0.5988250000000 1.0
C      1  0.5229860000000  0.6614560000000  0.3104240000000 1.0
C      1  0.6895760000000  0.6614560000000  0.5229860000000 1.0
C      1  0.4770140000000  0.6614560000000  0.6895760000000 1.0
C      1  0.3104240000000  0.6614560000000  0.4770140000000 1.0
C      1  0.4770600000000  0.3357630000000  0.3104110000000 1.0
C      1  0.3104110000000  0.3357630000000  0.5229400000000 1.0
C      1  0.5229400000000  0.3357630000000  0.6895890000000 1.0
C      1  0.6895890000000  0.3357630000000  0.4770600000000 1.0
C      1  0.4987060000000  0.7328690000000  0.3722440000000 1.0
C      1  0.6277560000000  0.7328690000000  0.4987060000000 1.0
C      1  0.5012940000000  0.7328690000000  0.6277560000000 1.0
C      1  0.3722440000000  0.7328690000000  0.5012940000000 1.0
C      1  0.5013230000000  0.2643460000000  0.3722410000000 1.0
C      1  0.3722410000000  0.2643460000000  0.4986770000000 1.0
C      1  0.4986770000000  0.2643460000000  0.6277590000000 1.0
C      1  0.6277590000000  0.2643460000000  0.5013230000000 1.0
C      1  0.4690220000000  0.4151430000000  0.7018120000000 1.0
C      1  0.2981880000000  0.4151430000000  0.4690220000000 1.0
C      1  0.5309780000000  0.4151430000000  0.2981880000000 1.0
C      1  0.7018120000000  0.4151430000000  0.5309780000000 1.0
C      1  0.5309310000000  0.5820800000000  0.7018190000000 1.0
C      1  0.7018190000000  0.5820800000000  0.4690690000000 1.0
C      1  0.4690690000000  0.5820800000000  0.2981810000000 1.0
C      1  0.2981810000000  0.5820800000000  0.5309310000000 1.0
C      1  0.4090200000000  0.2628650000000  0.4113870000000 1.0
C      1  0.5886130000000  0.2628650000000  0.4090200000000 1.0
C      1  0.5909800000000  0.2628650000000  0.5886130000000 1.0
C      1  0.4113870000000  0.2628650000000  0.5909800000000 1.0
C      1  0.5910000000000  0.7343620000000  0.4114090000000 1.0
C      1  0.4114090000000  0.7343620000000  0.4090000000000 1.0
C      1  0.4090000000000  0.7343620000000  0.5885910000000 1.0
C      1  0.5885910000000  0.7343620000000  0.5910000000000 1.0
C      1  0.5532050000000  0.4497360000000  0.5487520000000 1.0
C      1  0.4512480000000  0.4497360000000  0.5532050000000 1.0
C      1  0.4467950000000  0.4497360000000  0.4512480000000 1.0
C      1  0.5487520000000  0.4497360000000  0.4467950000000 1.0
C      1  0.4467900000000  0.5475480000000  0.5487450000000 1.0
C      1  0.5487450000000  0.5475480000000  0.5532100000000 1.0
C      1  0.5532100000000  0.5475480000000  0.4512550000000 1.0
C      1  0.4512550000000  0.5475480000000  0.4467900000000 1.0
C      1  0.4999760000000  0.4986120000000  0.7149270000000 1.0
C      1  0.2850730000000  0.4986120000000  0.4999760000000 1.0
C      1  0.5000240000000  0.4986120000000  0.2850730000000 1.0
C      1  0.7149270000000  0.4986120000000  0.5000240000000 1.0
END
