TITL C-2158988-7926-383 -0.00339434294473723 3375 -425.20463195982 0 0 60 (D2) n - 1
REM
REM in /scratch/bkarasulu/868
REM
REM
REM
REM
REM
REM ./C.cell (a2850807a9bf4ad07a5b6933b78d9264)
REM AIRSS Version 0.9.1 bugfix July 2018 build 013d7b7c2542+ Fri, 06 Jul 2018 19:26:36 +0100
REM compiler GCC version 9.2.1 20190827 (Red Hat 9.2.1-1)
REM options -cpp -mtune=generic -march=x86-64 -g -O0 -fpre-include=/usr/include/finclude/math-vector-fortran.h
REM seed -2091486465 -464535630 1520217351 1714633978 -2125436342 -150470572 1587661209 1215371247 547060217 -1987777547 -278065679 988405649 525933745 261933718 -1822550984 -859589398 -392840472 -1341299208 -863158417 -1333964981 -813714563 1472080794 1026910161 -1511204625 -549749416 -722316456 -346903215 -1007457815 -1974955219 -1534463083 -289122422 1192387117 1275055927
REM
CELL 1.54180   15.00000   15.00000   15.00000   90.00000   90.00000   90.00000
LATT -1
SFAC C  
C      1  0.2957280000000  0.5947050000000  0.4379530000000 1.0
C      1  0.2731210000000  0.6462990000000  0.6064110000000 1.0
C      1  0.4072630000000  0.6255950000000  0.7081180000000 1.0
C      1  0.5011680000000  0.6192190000000  0.7239760000000 1.0
C      1  0.6613840000000  0.6058020000000  0.6477900000000 1.0
C      1  0.7042720000000  0.5947050000000  0.5620470000000 1.0
C      1  0.7268790000000  0.6463000000000  0.3935890000000 1.0
C      1  0.5927370000000  0.6255950000000  0.2918820000000 1.0
C      1  0.4988320000000  0.6192190000000  0.2760240000000 1.0
C      1  0.3386160000000  0.6058020000000  0.3522100000000 1.0
C      1  0.6929490000000  0.4052960000000  0.4086370000000 1.0
C      1  0.6379390000000  0.3941980000000  0.3301190000000 1.0
C      1  0.4682730000000  0.3807810000000  0.2782810000000 1.0
C      1  0.3777150000000  0.3744060000000  0.3077540000000 1.0
C      1  0.2599560000000  0.3537000000000  0.4280490000000 1.0
C      1  0.3070510000000  0.4052960000000  0.5913630000000 1.0
C      1  0.3620620000000  0.3941980000000  0.6698810000000 1.0
C      1  0.5317270000000  0.3807810000000  0.7217190000000 1.0
C      1  0.6222850000000  0.3744050000000  0.6922460000000 1.0
C      1  0.7400440000000  0.3537000000000  0.5719510000000 1.0
C      1  0.7330540000000  0.5117920000000  0.5301430000000 1.0
C      1  0.7125240000000  0.5581400000000  0.3708360000000 1.0
C      1  0.6458800000000  0.5495290000000  0.3013770000000 1.0
C      1  0.4543810000000  0.5391950000000  0.2627460000000 1.0
C      1  0.3649730000000  0.5340690000000  0.2998610000000 1.0
C      1  0.2669460000000  0.5117920000000  0.4698570000000 1.0
C      1  0.2874760000000  0.5581400000000  0.6291640000000 1.0
C      1  0.3541200000000  0.5495280000000  0.6986230000000 1.0
C      1  0.5456190000000  0.5391950000000  0.7372540000000 1.0
C      1  0.6350270000000  0.5340690000000  0.7001390000000 1.0
C      1  0.6734600000000  0.4504710000000  0.6750530000000 1.0
C      1  0.7291860000000  0.4418600000000  0.5965640000000 1.0
C      1  0.7261020000000  0.4882090000000  0.4359700000000 1.0
C      1  0.6041820000000  0.4659310000000  0.2822060000000 1.0
C      1  0.5102930000000  0.4608050000000  0.2586190000000 1.0
C      1  0.3265400000000  0.4504710000000  0.3249460000000 1.0
C      1  0.2708140000000  0.4418600000000  0.4034360000000 1.0
C      1  0.2738980000000  0.4882090000000  0.5640300000000 1.0
C      1  0.3958180000000  0.4659310000000  0.7177940000000 1.0
C      1  0.4897070000000  0.4608040000000  0.7413810000000 1.0
C      1  0.3566280000000  0.3332870000000  0.5468620000000 1.0
C      1  0.4161230000000  0.3250370000000  0.6250160000000 1.0
C      1  0.5032930000000  0.3167800000000  0.6522930000000 1.0
C      1  0.5981130000000  0.3108300000000  0.6227400000000 1.0
C      1  0.6518900000000  0.3147350000000  0.5447900000000 1.0
C      1  0.6433720000000  0.3332880000000  0.4531380000000 1.0
C      1  0.5838770000000  0.3250370000000  0.3749840000000 1.0
C      1  0.4967080000000  0.3167800000000  0.3477070000000 1.0
C      1  0.4018870000000  0.3108300000000  0.3772590000000 1.0
C      1  0.3481100000000  0.3147350000000  0.4552100000000 1.0
C      1  0.4209700000000  0.6891700000000  0.6358160000000 1.0
C      1  0.5191010000000  0.6832190000000  0.6511280000000 1.0
C      1  0.6013220000000  0.6749620000000  0.6113480000000 1.0
C      1  0.6486980000000  0.6667120000000  0.5253060000000 1.0
C      1  0.6436670000000  0.6852650000000  0.4333960000000 1.0
C      1  0.5790300000000  0.6891700000000  0.3641840000000 1.0
C      1  0.4808990000000  0.6832200000000  0.3488730000000 1.0
C      1  0.3986780000000  0.6749630000000  0.3886530000000 1.0
C      1  0.3513020000000  0.6667120000000  0.4746940000000 1.0
C      1  0.3563330000000  0.6852650000000  0.5666040000000 1.0
END
