TITL C-2159255-4746-287 -0.00212817111483162 3375 -408.323555375241 0 0 60 (C2v) n - 1
REM
REM in /scratch/bkarasulu/871
REM
REM
REM
REM
REM
REM ./C.cell (a2850807a9bf4ad07a5b6933b78d9264)
REM AIRSS Version 0.9.1 bugfix July 2018 build 013d7b7c2542+ Fri, 06 Jul 2018 19:26:36 +0100
REM compiler GCC version 9.2.1 20190827 (Red Hat 9.2.1-1)
REM options -cpp -mtune=generic -march=x86-64 -g -O0 -fpre-include=/usr/include/finclude/math-vector-fortran.h
REM seed 1913939969 -4293144 -1042131196 1170503656 -297385847 374570425 -859203847 -582287118 1115672245 307827761 -1804096398 -1986920461 398729432 -1786912864 1459692937 856915940 1638456392 1542247518 1986283723 -1419640591 537310264 -2031696755 -1057158905 1105368116 -7997330 1521230844 379712535 488526774 571605572 -397472874 -2096339871 -303704692 -1944279423
REM
CELL 1.54180   15.00000   15.00000   15.00000   90.00000   90.00000   90.00000
LATT -1
SFAC C  
C      1  0.6920340000000  0.3851010000000  0.5425140000000 1.0
C      1  0.6920340000000  0.6148990000000  0.4574860000000 1.0
C      1  0.6920340000000  0.3851010000000  0.4574860000000 1.0
C      1  0.6920340000000  0.6148990000000  0.5425140000000 1.0
C      1  0.4527810000000  0.2954250000000  0.5473470000000 1.0
C      1  0.4527810000000  0.7045750000000  0.4526530000000 1.0
C      1  0.4527810000000  0.2954250000000  0.4526530000000 1.0
C      1  0.4527810000000  0.7045750000000  0.5473470000000 1.0
C      1  0.6498350000000  0.5865810000000  0.6159130000000 1.0
C      1  0.6498350000000  0.4134190000000  0.3840870000000 1.0
C      1  0.6498350000000  0.5865810000000  0.3840870000000 1.0
C      1  0.6498350000000  0.4134190000000  0.6159130000000 1.0
C      1  0.3768460000000  0.4104490000000  0.6702620000000 1.0
C      1  0.3768460000000  0.5895510000000  0.3297380000000 1.0
C      1  0.3768460000000  0.4104490000000  0.3297380000000 1.0
C      1  0.3768460000000  0.5895510000000  0.6702620000000 1.0
C      1  0.5244370000000  0.6864580000000  0.6937270000000 1.0
C      1  0.5244370000000  0.3135420000000  0.3062730000000 1.0
C      1  0.5244370000000  0.6864580000000  0.3062730000000 1.0
C      1  0.5244370000000  0.3135420000000  0.6937270000000 1.0
C      1  0.4365380000000  0.4535840000000  0.2737190000000 1.0
C      1  0.4365380000000  0.5464160000000  0.7262810000000 1.0
C      1  0.4365380000000  0.4535840000000  0.7262810000000 1.0
C      1  0.4365380000000  0.5464160000000  0.2737190000000 1.0
C      1  0.6021540000000  0.5468590000000  0.2422680000000 1.0
C      1  0.6021540000000  0.4531410000000  0.7577320000000 1.0
C      1  0.6021540000000  0.5468590000000  0.7577320000000 1.0
C      1  0.6021540000000  0.4531410000000  0.2422680000000 1.0
C      1  0.5250650000000  0.4102220000000  0.7129050000000 1.0
C      1  0.5250650000000  0.5897780000000  0.2870950000000 1.0
C      1  0.5250650000000  0.4102220000000  0.2870950000000 1.0
C      1  0.5250650000000  0.5897780000000  0.7129050000000 1.0
C      1  0.3145570000000  0.4019120000000  0.5449490000000 1.0
C      1  0.3145570000000  0.5980880000000  0.4550510000000 1.0
C      1  0.3145570000000  0.4019120000000  0.4550510000000 1.0
C      1  0.3145570000000  0.5980880000000  0.5449490000000 1.0
C      1  0.3017010000000  0.5463700000000  0.6262500000000 1.0
C      1  0.3017010000000  0.4536300000000  0.3737500000000 1.0
C      1  0.3017010000000  0.5463700000000  0.3737500000000 1.0
C      1  0.3017010000000  0.4536300000000  0.6262500000000 1.0
C      1  0.4791480000000  0.4471600000000  0.5496270000000 1.0
C      1  0.4791480000000  0.5528400000000  0.4503730000000 1.0
C      1  0.4791480000000  0.4471600000000  0.4503730000000 1.0
C      1  0.4791480000000  0.5528400000000  0.5496270000000 1.0
C      1  0.5038190000000  0.7293470000000  0.3771290000000 1.0
C      1  0.5038190000000  0.2706530000000  0.6228710000000 1.0
C      1  0.5038190000000  0.7293470000000  0.6228710000000 1.0
C      1  0.5038190000000  0.2706530000000  0.3771290000000 1.0
C      1  0.5554580000000  0.5507970000000  0.6146870000000 1.0
C      1  0.5554580000000  0.4492030000000  0.3853130000000 1.0
C      1  0.5554580000000  0.5507970000000  0.3853130000000 1.0
C      1  0.5554580000000  0.4492030000000  0.6146870000000 1.0
C      1  0.4060670000000  0.3769320000000  0.4197400000000 1.0
C      1  0.4060670000000  0.6230680000000  0.5802600000000 1.0
C      1  0.4060670000000  0.3769320000000  0.5802600000000 1.0
C      1  0.4060670000000  0.6230680000000  0.4197400000000 1.0
C      1  0.6795610000000  0.5488070000000  0.6987760000000 1.0
C      1  0.6795610000000  0.4511930000000  0.3012240000000 1.0
C      1  0.6795610000000  0.5488070000000  0.3012240000000 1.0
C      1  0.6795610000000  0.4511930000000  0.6987760000000 1.0
END
