TITL C-2158984-8299-1060 -0.00166200062808579 3375 -402.756870923995 0 0 60 (C1) n - 1
REM
REM in /scratch/bkarasulu/869
REM
REM
REM
REM
REM
REM ./C.cell (a2850807a9bf4ad07a5b6933b78d9264)
REM AIRSS Version 0.9.1 bugfix July 2018 build 013d7b7c2542+ Fri, 06 Jul 2018 19:26:36 +0100
REM compiler GCC version 9.2.1 20190827 (Red Hat 9.2.1-1)
REM options -cpp -mtune=generic -march=x86-64 -g -O0 -fpre-include=/usr/include/finclude/math-vector-fortran.h
REM seed -1115831301 1287419147 1812082346 -1533939883 -1977731769 -143062955 -2129060089 -910177338 1167230558 -913187251 930455047 -1564114709 1716833654 772249573 -1115067627 -1993085273 -301180782 613403737 -1365929400 1492244424 92133317 623307381 -1340272370 1988726099 -1584672717 -1302576467 -1076789974 786630777 234155519 -919793722 -442426903 2073119843 1518724930
REM
CELL 1.54180   15.00000   15.00000   15.00000   90.00000   90.00000   90.00000
LATT -1
SFAC C  
C      1  0.7145520000000  0.6158630000000  0.4354050000000 1.0
C      1  0.5612790000000  0.4467190000000  0.2882750000000 1.0
C      1  0.2573210000000  0.4936050000000  0.6287900000000 1.0
C      1  0.5655340000000  0.4904170000000  0.4403230000000 1.0
C      1  0.4032560000000  0.3694180000000  0.3089330000000 1.0
C      1  0.6182200000000  0.5889790000000  0.3313310000000 1.0
C      1  0.6069900000000  0.6625950000000  0.5653050000000 1.0
C      1  0.6377840000000  0.6501160000000  0.4040080000000 1.0
C      1  0.3245500000000  0.6384240000000  0.4307740000000 1.0
C      1  0.4834670000000  0.7539620000000  0.6176320000000 1.0
C      1  0.5631970000000  0.3117430000000  0.3706550000000 1.0
C      1  0.3428890000000  0.3528120000000  0.6693750000000 1.0
C      1  0.3834610000000  0.3326320000000  0.4727670000000 1.0
C      1  0.6089590000000  0.3246920000000  0.4464080000000 1.0
C      1  0.4678090000000  0.5468930000000  0.5310750000000 1.0
C      1  0.2833540000000  0.5830350000000  0.3705720000000 1.0
C      1  0.4864910000000  0.4485590000000  0.6701690000000 1.0
C      1  0.5238230000000  0.5778100000000  0.4573080000000 1.0
C      1  0.6462850000000  0.5842110000000  0.5977540000000 1.0
C      1  0.6268920000000  0.4913250000000  0.3554830000000 1.0
C      1  0.5820210000000  0.3295830000000  0.6269460000000 1.0
C      1  0.6858340000000  0.3825410000000  0.4605570000000 1.0
C      1  0.4739120000000  0.7139660000000  0.4670010000000 1.0
C      1  0.4028170000000  0.6174980000000  0.5777320000000 1.0
C      1  0.4373440000000  0.7100830000000  0.5554260000000 1.0
C      1  0.7692120000000  0.4821960000000  0.6419480000000 1.0
C      1  0.5756320000000  0.4397570000000  0.5277050000000 1.0
C      1  0.5283390000000  0.5923150000000  0.2977290000000 1.0
C      1  0.4222800000000  0.5889230000000  0.6704620000000 1.0
C      1  0.5143980000000  0.5142780000000  0.2506500000000 1.0
C      1  0.7364070000000  0.4094560000000  0.6796080000000 1.0
C      1  0.4149530000000  0.6713420000000  0.4074470000000 1.0
C      1  0.4649380000000  0.5940540000000  0.3723840000000 1.0
C      1  0.4498400000000  0.3168680000000  0.5381260000000 1.0
C      1  0.5060250000000  0.3749270000000  0.3255240000000 1.0
C      1  0.4248050000000  0.3296690000000  0.6313730000000 1.0
C      1  0.3252800000000  0.4473310000000  0.6769740000000 1.0
C      1  0.6707600000000  0.4225860000000  0.5481670000000 1.0
C      1  0.3318900000000  0.5833860000000  0.5151100000000 1.0
C      1  0.2582400000000  0.4576750000000  0.4591570000000 1.0
C      1  0.3945550000000  0.5010320000000  0.4780820000000 1.0
C      1  0.7319820000000  0.5335570000000  0.4655950000000 1.0
C      1  0.4919200000000  0.4449350000000  0.3981630000000 1.0
C      1  0.7038230000000  0.4601260000000  0.4074310000000 1.0
C      1  0.4081840000000  0.4978660000000  0.6919080000000 1.0
C      1  0.5485460000000  0.3387880000000  0.5308870000000 1.0
C      1  0.2795230000000  0.4922260000000  0.3718910000000 1.0
C      1  0.2587010000000  0.5205410000000  0.5430060000000 1.0
C      1  0.5763160000000  0.5489820000000  0.6546310000000 1.0
C      1  0.6671600000000  0.3679340000000  0.6304040000000 1.0
C      1  0.5676530000000  0.6674410000000  0.4719180000000 1.0
C      1  0.4201900000000  0.5037840000000  0.3820960000000 1.0
C      1  0.5433080000000  0.6892510000000  0.6324660000000 1.0
C      1  0.5058960000000  0.3568820000000  0.6767870000000 1.0
C      1  0.7132460000000  0.5179990000000  0.5652440000000 1.0
C      1  0.3585830000000  0.4524290000000  0.3277710000000 1.0
C      1  0.5265080000000  0.4916700000000  0.5934570000000 1.0
C      1  0.3393150000000  0.4158560000000  0.4865120000000 1.0
C      1  0.3683120000000  0.3406820000000  0.3854630000000 1.0
C      1  0.5152400000000  0.6157710000000  0.6839210000000 1.0
END
