TITL C-2158988-7926-433 -0.00705799542879403 3375 -416.654928890131 0 0 60 (C1) n - 1
REM
REM in /scratch/bkarasulu/868
REM
REM
REM
REM
REM
REM ./C.cell (a2850807a9bf4ad07a5b6933b78d9264)
REM AIRSS Version 0.9.1 bugfix July 2018 build 013d7b7c2542+ Fri, 06 Jul 2018 19:26:36 +0100
REM compiler GCC version 9.2.1 20190827 (Red Hat 9.2.1-1)
REM options -cpp -mtune=generic -march=x86-64 -g -O0 -fpre-include=/usr/include/finclude/math-vector-fortran.h
REM seed 225532064 -109154432 -1466210674 1598189964 -1951053774 674103616 -1226108813 -1286138725 917876628 -839704468 322936451 -1047217826 379725852 -562330587 155498758 1308374117 -658644590 97817630 -1207613943 -926503849 5734317 98408477 457966341 -810439145 -1005287701 -1536377538 861922444 -1130220788 -881979977 256200589 1499712905 -2076213899 1431493125
REM
CELL 1.54180   15.00000   15.00000   15.00000   90.00000   90.00000   90.00000
LATT -1
SFAC C  
C      1  0.7292570000000  0.6396470000000  0.5530180000000 1.0
C      1  0.7796570000000  0.4883970000000  0.5641080000000 1.0
C      1  0.7387070000000  0.3331850000000  0.5768630000000 1.0
C      1  0.6120480000000  0.2328940000000  0.5748030000000 1.0
C      1  0.4519490000000  0.2270540000000  0.5607980000000 1.0
C      1  0.3138920000000  0.3070230000000  0.5521820000000 1.0
C      1  0.2274080000000  0.4409860000000  0.5622580000000 1.0
C      1  0.2211910000000  0.6002330000000  0.5812650000000 1.0
C      1  0.3097550000000  0.7355570000000  0.5897420000000 1.0
C      1  0.4611350000000  0.7918670000000  0.5787720000000 1.0
C      1  0.6150450000000  0.7515680000000  0.5598890000000 1.0
C      1  0.2850280000000  0.3804200000000  0.5999390000000 1.0
C      1  0.2409980000000  0.5163270000000  0.6143520000000 1.0
C      1  0.2813890000000  0.6549620000000  0.6262270000000 1.0
C      1  0.3949820000000  0.7458490000000  0.6251400000000 1.0
C      1  0.5388020000000  0.7550620000000  0.6121760000000 1.0
C      1  0.6623840000000  0.6834040000000  0.5992010000000 1.0
C      1  0.7359110000000  0.5612890000000  0.5992090000000 1.0
C      1  0.7410920000000  0.4191800000000  0.6107790000000 1.0
C      1  0.6625380000000  0.2983780000000  0.6163360000000 1.0
C      1  0.5274710000000  0.2493000000000  0.6079110000000 1.0
C      1  0.3893850000000  0.2835040000000  0.5978260000000 1.0
C      1  0.6596270000000  0.4463140000000  0.6625950000000 1.0
C      1  0.6071330000000  0.3670160000000  0.6649290000000 1.0
C      1  0.5182160000000  0.3331240000000  0.6615670000000 1.0
C      1  0.4246550000000  0.3543060000000  0.6578530000000 1.0
C      1  0.3524070000000  0.4191990000000  0.6614430000000 1.0
C      1  0.3243670000000  0.5121170000000  0.6697860000000 1.0
C      1  0.3535000000000  0.6043910000000  0.6742120000000 1.0
C      1  0.4288900000000  0.6649940000000  0.6737910000000 1.0
C      1  0.5251660000000  0.6733630000000  0.6688810000000 1.0
C      1  0.6096330000000  0.6257720000000  0.6602350000000 1.0
C      1  0.6582460000000  0.5419300000000  0.6581540000000 1.0
C      1  0.7906790000000  0.3942690000000  0.4369370000000 1.0
C      1  0.6996540000000  0.2539670000000  0.4430750000000 1.0
C      1  0.5421700000000  0.1975890000000  0.4336590000000 1.0
C      1  0.3813600000000  0.2490100000000  0.4182310000000 1.0
C      1  0.2684440000000  0.3771200000000  0.4171520000000 1.0
C      1  0.2070190000000  0.5316220000000  0.4334420000000 1.0
C      1  0.2411580000000  0.6902750000000  0.4502650000000 1.0
C      1  0.3678770000000  0.7907160000000  0.4489130000000 1.0
C      1  0.5303950000000  0.7892270000000  0.4305370000000 1.0
C      1  0.6625980000000  0.6873250000000  0.4177760000000 1.0
C      1  0.7782360000000  0.5619460000000  0.4211760000000 1.0
C      1  0.4562180000000  0.2168440000000  0.4636110000000 1.0
C      1  0.3172000000000  0.3070150000000  0.4542620000000 1.0
C      1  0.2284920000000  0.4470830000000  0.4634350000000 1.0
C      1  0.2134230000000  0.6091210000000  0.4830210000000 1.0
C      1  0.2991880000000  0.7477400000000  0.4922670000000 1.0
C      1  0.4535290000000  0.8000430000000  0.4806050000000 1.0
C      1  0.6071040000000  0.7479650000000  0.4610820000000 1.0
C      1  0.7286180000000  0.6337630000000  0.4550390000000 1.0
C      1  0.7914410000000  0.4819420000000  0.4672560000000 1.0
C      1  0.7508970000000  0.3220020000000  0.4793570000000 1.0
C      1  0.6211190000000  0.2191950000000  0.4775750000000 1.0
C      1  0.5543910000000  0.4415700000000  0.4077060000000 1.0
C      1  0.4676390000000  0.5367330000000  0.5063680000000 1.0
C      1  0.5215230000000  0.4732510000000  0.2401900000000 1.0
C      1  0.5216850000000  0.4750630000000  0.4851690000000 1.0
C      1  0.5406050000000  0.4557430000000  0.3211480000000 1.0
END
