TITL C-2159255-4746-1255 -0.00280764195971692 3375 -425.159729839255 0 0 60 (C1) n - 1
REM
REM in /scratch/bkarasulu/871
REM
REM
REM
REM
REM
REM ./C.cell (a2850807a9bf4ad07a5b6933b78d9264)
REM AIRSS Version 0.9.1 bugfix July 2018 build 013d7b7c2542+ Fri, 06 Jul 2018 19:26:36 +0100
REM compiler GCC version 9.2.1 20190827 (Red Hat 9.2.1-1)
REM options -cpp -mtune=generic -march=x86-64 -g -O0 -fpre-include=/usr/include/finclude/math-vector-fortran.h
REM seed 438923053 76066404 1473750801 1366421784 -854812215 -2098054519 358355510 976187909 -850932320 -1081235054 -411982937 1140183627 -27279257 -1205688136 -365060119 2142392200 -183527137 -512934297 844907086 -14210107 -1080630241 1643301312 708179694 583092104 271250090 -121627244 1573927593 1712280812 1362585658 -1479301366 1475441768 -1207686223 -609032074
REM
CELL 1.54180   15.00000   15.00000   15.00000   90.00000   90.00000   90.00000
LATT -1
SFAC C  
C      1  0.6306490000000  0.3006430000000  0.5701200000000 1.0
C      1  0.5025400000000  0.2467520000000  0.6159020000000 1.0
C      1  0.4143440000000  0.2712450000000  0.6018340000000 1.0
C      1  0.2840140000000  0.3845220000000  0.5951230000000 1.0
C      1  0.2582910000000  0.4763420000000  0.5887880000000 1.0
C      1  0.3197300000000  0.6390960000000  0.5736140000000 1.0
C      1  0.3924090000000  0.6982550000000  0.5735870000000 1.0
C      1  0.5633470000000  0.7244830000000  0.5894540000000 1.0
C      1  0.6491930000000  0.6836630000000  0.5933770000000 1.0
C      1  0.7398880000000  0.5329970000000  0.5890570000000 1.0
C      1  0.7344190000000  0.4382090000000  0.5835990000000 1.0
C      1  0.4325580000000  0.7284310000000  0.4955360000000 1.0
C      1  0.5243690000000  0.7518260000000  0.5074550000000 1.0
C      1  0.7015690000000  0.6694250000000  0.5165800000000 1.0
C      1  0.7482710000000  0.5864110000000  0.5125910000000 1.0
C      1  0.7352240000000  0.3944650000000  0.4990490000000 1.0
C      1  0.6702170000000  0.3290130000000  0.4911900000000 1.0
C      1  0.5591470000000  0.2449810000000  0.5447590000000 1.0
C      1  0.3839470000000  0.2866460000000  0.5142540000000 1.0
C      1  0.3029060000000  0.3341660000000  0.5162840000000 1.0
C      1  0.2431500000000  0.5185470000000  0.5057880000000 1.0
C      1  0.2823820000000  0.6053390000000  0.4953990000000 1.0
C      1  0.2786510000000  0.3727490000000  0.4364220000000 1.0
C      1  0.2460480000000  0.4625450000000  0.4314630000000 1.0
C      1  0.3296690000000  0.6269930000000  0.4153510000000 1.0
C      1  0.4022850000000  0.6869030000000  0.4149680000000 1.0
C      1  0.5777920000000  0.7394250000000  0.4325120000000 1.0
C      1  0.6625800000000  0.6966840000000  0.4362100000000 1.0
C      1  0.7456340000000  0.5415470000000  0.4291890000000 1.0
C      1  0.7356270000000  0.4479230000000  0.4231840000000 1.0
C      1  0.6069510000000  0.3202140000000  0.4194670000000 1.0
C      1  0.5347600000000  0.2689340000000  0.4551070000000 1.0
C      1  0.4454500000000  0.2935090000000  0.4380800000000 1.0
C      1  0.3541380000000  0.4075410000000  0.6633640000000 1.0
C      1  0.3269130000000  0.5026710000000  0.6570660000000 1.0
C      1  0.3566880000000  0.5890320000000  0.6521060000000 1.0
C      1  0.4349580000000  0.6523700000000  0.6517670000000 1.0
C      1  0.5263130000000  0.6614270000000  0.6562720000000 1.0
C      1  0.6179550000000  0.6151020000000  0.6582690000000 1.0
C      1  0.6653810000000  0.5357540000000  0.6561610000000 1.0
C      1  0.6607720000000  0.4357300000000  0.6492000000000 1.0
C      1  0.6071140000000  0.3593130000000  0.6460440000000 1.0
C      1  0.5193330000000  0.3290250000000  0.6734400000000 1.0
C      1  0.4232470000000  0.3485890000000  0.6691550000000 1.0
C      1  0.6635550000000  0.4539830000000  0.3582300000000 1.0
C      1  0.5944900000000  0.3898160000000  0.3557180000000 1.0
C      1  0.5035890000000  0.4118800000000  0.3282270000000 1.0
C      1  0.4308290000000  0.3580180000000  0.3674100000000 1.0
C      1  0.3424980000000  0.3889940000000  0.3642960000000 1.0
C      1  0.3051520000000  0.4790460000000  0.3560950000000 1.0
C      1  0.3469490000000  0.5600960000000  0.3486730000000 1.0
C      1  0.4642410000000  0.6573840000000  0.3471680000000 1.0
C      1  0.5511080000000  0.6835680000000  0.3570100000000 1.0
C      1  0.6374590000000  0.6365380000000  0.3602940000000 1.0
C      1  0.6756730000000  0.5525270000000  0.3585190000000 1.0
C      1  0.4996360000000  0.4998600000000  0.5734770000000 1.0
C      1  0.5057710000000  0.5093800000000  0.6611140000000 1.0
C      1  0.5040160000000  0.5013840000000  0.4906640000000 1.0
C      1  0.4375050000000  0.5688020000000  0.3150400000000 1.0
C      1  0.4890890000000  0.4968510000000  0.2954530000000 1.0
END
