TITL C-2158984-8299-1080 -0.00778082670707074 3375 -417.258841616048 0 0 60 (Cs) n - 1
REM
REM in /scratch/bkarasulu/869
REM
REM
REM
REM
REM
REM ./C.cell (a2850807a9bf4ad07a5b6933b78d9264)
REM AIRSS Version 0.9.1 bugfix July 2018 build 013d7b7c2542+ Fri, 06 Jul 2018 19:26:36 +0100
REM compiler GCC version 9.2.1 20190827 (Red Hat 9.2.1-1)
REM options -cpp -mtune=generic -march=x86-64 -g -O0 -fpre-include=/usr/include/finclude/math-vector-fortran.h
REM seed -808637096 -1126578682 -992230771 -1461660214 -2084430581 -872713057 1220974435 -1617797490 -336098464 155567175 -1858716145 -1048194824 -1360641758 -1137300058 -1481435984 1034144437 786739071 -262359282 -843232628 -164848698 -1782429566 2051858405 2139327936 -1635775303 -1913823294 989279002 52061112 -1169204618 -1214552639 -1876740824 -422865053 -1887907643 1125374909
REM
CELL 1.54180   15.00000   15.00000   15.00000   90.00000   90.00000   90.00000
LATT -1
SFAC C  
C      1  0.5536720000000  0.5145620000000  0.2546290000000 1.0
C      1  0.6828120000000  0.5192600000000  0.3208470000000 1.0
C      1  0.7644750000000  0.5451360000000  0.4388800000000 1.0
C      1  0.7573570000000  0.5447710000000  0.5824190000000 1.0
C      1  0.6644220000000  0.5183210000000  0.6916640000000 1.0
C      1  0.5293690000000  0.5133270000000  0.7447620000000 1.0
C      1  0.3873030000000  0.5235860000000  0.7203440000000 1.0
C      1  0.2793690000000  0.5425500000000  0.6256760000000 1.0
C      1  0.2425370000000  0.5523930000000  0.4849700000000 1.0
C      1  0.2931110000000  0.5432440000000  0.3485480000000 1.0
C      1  0.4098860000000  0.5247300000000  0.2649270000000 1.0
C      1  0.3243410000000  0.4933160000000  0.2770570000000 1.0
C      1  0.4761540000000  0.4726730000000  0.2271550000000 1.0
C      1  0.6329100000000  0.4672150000000  0.2634130000000 1.0
C      1  0.7538600000000  0.4849750000000  0.3685020000000 1.0
C      1  0.8121380000000  0.5185300000000  0.5131230000000 1.0
C      1  0.7398430000000  0.4842580000000  0.6510960000000 1.0
C      1  0.6090970000000  0.4660020000000  0.7436190000000 1.0
C      1  0.4495220000000  0.4713220000000  0.7642230000000 1.0
C      1  0.3033840000000  0.4922570000000  0.6996560000000 1.0
C      1  0.2174470000000  0.5116940000000  0.5645530000000 1.0
C      1  0.2254570000000  0.5120950000000  0.4030940000000 1.0
C      1  0.2891170000000  0.3944610000000  0.6996290000000 1.0
C      1  0.1991680000000  0.4142330000000  0.5644270000000 1.0
C      1  0.2072880000000  0.4146370000000  0.4009300000000 1.0
C      1  0.3101720000000  0.3955220000000  0.2751860000000 1.0
C      1  0.4683900000000  0.3734300000000  0.2371200000000 1.0
C      1  0.6294940000000  0.3695510000000  0.2780180000000 1.0
C      1  0.7575090000000  0.3872000000000  0.3816630000000 1.0
C      1  0.8411340000000  0.4262970000000  0.5143270000000 1.0
C      1  0.7447950000000  0.3865500000000  0.6378640000000 1.0
C      1  0.6071630000000  0.3684140000000  0.7282550000000 1.0
C      1  0.4428030000000  0.3721320000000  0.7530410000000 1.0
C      1  0.3553140000000  0.5940190000000  0.5847850000000 1.0
C      1  0.3317170000000  0.5989450000000  0.4895080000000 1.0
C      1  0.3646240000000  0.5944910000000  0.3970080000000 1.0
C      1  0.4423070000000  0.5846630000000  0.3383620000000 1.0
C      1  0.5399080000000  0.5801380000000  0.3293350000000 1.0
C      1  0.6274810000000  0.5838820000000  0.3735900000000 1.0
C      1  0.6773170000000  0.5946510000000  0.4573260000000 1.0
C      1  0.6724400000000  0.5944020000000  0.5556940000000 1.0
C      1  0.6145670000000  0.5832230000000  0.6340340000000 1.0
C      1  0.5230460000000  0.5792810000000  0.6693900000000 1.0
C      1  0.4268160000000  0.5838770000000  0.6507770000000 1.0
C      1  0.7028670000000  0.3387190000000  0.3268080000000 1.0
C      1  0.7986290000000  0.3611330000000  0.4636810000000 1.0
C      1  0.7938400000000  0.3608880000000  0.5601870000000 1.0
C      1  0.6850050000000  0.3378070000000  0.6867980000000 1.0
C      1  0.5234110000000  0.3286100000000  0.7364070000000 1.0
C      1  0.3562590000000  0.3431690000000  0.7378350000000 1.0
C      1  0.2248680000000  0.3681020000000  0.6397410000000 1.0
C      1  0.1833940000000  0.3792670000000  0.4816070000000 1.0
C      1  0.2403300000000  0.3688770000000  0.3283010000000 1.0
C      1  0.3807750000000  0.3444080000000  0.2435450000000 1.0
C      1  0.5469700000000  0.3298080000000  0.2614300000000 1.0
C      1  0.5027350000000  0.4998380000000  0.4977360000000 1.0
C      1  0.5067780000000  0.5893490000000  0.4981620000000 1.0
C      1  0.4201720000000  0.3452480000000  0.4932560000000 1.0
C      1  0.4647110000000  0.4215780000000  0.4956570000000 1.0
C      1  0.5092550000000  0.6738840000000  0.4984980000000 1.0
END
