TITL C-2158984-8299-720 -0.00147495906941508 3375 -396.804545054621 0 0 60 (C5) n - 1
REM
REM in /scratch/bkarasulu/869
REM
REM
REM
REM
REM
REM ./C.cell (a2850807a9bf4ad07a5b6933b78d9264)
REM AIRSS Version 0.9.1 bugfix July 2018 build 013d7b7c2542+ Fri, 06 Jul 2018 19:26:36 +0100
REM compiler GCC version 9.2.1 20190827 (Red Hat 9.2.1-1)
REM options -cpp -mtune=generic -march=x86-64 -g -O0 -fpre-include=/usr/include/finclude/math-vector-fortran.h
REM seed 83980791 534109237 740271864 -1614726719 16119881 1041189939 741283597 -649122317 -737513536 2020392876 -312612321 1067374354 912371867 -328009529 1824375305 909773566 -1920494085 -1482286071 -1227231304 1561102984 251791242 -1115842287 236750073 332474904 518188409 337017675 1004868891 1694948531 -796584425 1725426966 1416128207 -1522933171 -976562204
REM
CELL 1.54180   15.00000   15.00000   15.00000   90.00000   90.00000   90.00000
LATT -1
SFAC C  
C      1  0.6048010000000  0.2946610000000  0.4317900000000 1.0
C      1  0.6048010000000  0.3716760000000  0.6742110000000 1.0
C      1  0.6048010000000  0.6260290000000  0.6758780000000 1.0
C      1  0.6048010000000  0.7062160000000  0.4344890000000 1.0
C      1  0.6048000000000  0.5014190000000  0.2836330000000 1.0
C      1  0.3951990000000  0.2946610000000  0.4317900000000 1.0
C      1  0.3951990000000  0.3716760000000  0.6742110000000 1.0
C      1  0.3951990000000  0.6260290000000  0.6758780000000 1.0
C      1  0.3951990000000  0.7062160000000  0.4344890000000 1.0
C      1  0.3952000000000  0.5014190000000  0.2836330000000 1.0
C      1  0.5474540000000  0.2807190000000  0.5090510000000 1.0
C      1  0.5474540000000  0.4408470000000  0.7113450000000 1.0
C      1  0.5474540000000  0.6827210000000  0.6215670000000 1.0
C      1  0.5474530000000  0.6720820000000  0.3637890000000 1.0
C      1  0.5474530000000  0.4236320000000  0.2942480000000 1.0
C      1  0.4525460000000  0.2807190000000  0.5090510000000 1.0
C      1  0.4525460000000  0.4408470000000  0.7113450000000 1.0
C      1  0.4525460000000  0.6827210000000  0.6215670000000 1.0
C      1  0.4525470000000  0.6720820000000  0.3637890000000 1.0
C      1  0.4525470000000  0.4236320000000  0.2942480000000 1.0
C      1  0.5865710000000  0.5806620000000  0.3447660000000 1.0
C      1  0.5865710000000  0.3772890000000  0.3753160000000 1.0
C      1  0.5865710000000  0.3434990000000  0.5781750000000 1.0
C      1  0.5865710000000  0.5259880000000  0.6729990000000 1.0
C      1  0.5865710000000  0.6725630000000  0.5287440000000 1.0
C      1  0.4134290000000  0.5806620000000  0.3447660000000 1.0
C      1  0.4134290000000  0.3772890000000  0.3753160000000 1.0
C      1  0.4134290000000  0.3434990000000  0.5781750000000 1.0
C      1  0.4134290000000  0.5259880000000  0.6729990000000 1.0
C      1  0.4134290000000  0.6725630000000  0.5287440000000 1.0
C      1  0.5507250000000  0.5116920000000  0.5816250000000 1.0
C      1  0.5507250000000  0.5812430000000  0.5141030000000 1.0
C      1  0.5507250000000  0.5385180000000  0.4270920000000 1.0
C      1  0.5507250000000  0.4425630000000  0.4408370000000 1.0
C      1  0.5507250000000  0.4259830000000  0.5363440000000 1.0
C      1  0.4492750000000  0.5116920000000  0.5816250000000 1.0
C      1  0.4492750000000  0.5812430000000  0.5141030000000 1.0
C      1  0.4492750000000  0.5385180000000  0.4270920000000 1.0
C      1  0.4492750000000  0.4425630000000  0.4408370000000 1.0
C      1  0.4492750000000  0.4259830000000  0.5363440000000 1.0
C      1  0.6721540000000  0.3745400000000  0.6128060000000 1.0
C      1  0.6721550000000  0.5685150000000  0.6541790000000 1.0
C      1  0.6721550000000  0.6678060000000  0.4824820000000 1.0
C      1  0.6721540000000  0.5351940000000  0.3349940000000 1.0
C      1  0.6721540000000  0.3539450000000  0.4155390000000 1.0
C      1  0.3278460000000  0.3745400000000  0.6128060000000 1.0
C      1  0.3278450000000  0.5685150000000  0.6541790000000 1.0
C      1  0.3278450000000  0.6678060000000  0.4824820000000 1.0
C      1  0.3278460000000  0.5351940000000  0.3349940000000 1.0
C      1  0.3278460000000  0.3539450000000  0.4155390000000 1.0
C      1  0.7131390000000  0.4411230000000  0.5564490000000 1.0
C      1  0.7131390000000  0.5354920000000  0.5734390000000 1.0
C      1  0.7131390000000  0.5808130000000  0.4889380000000 1.0
C      1  0.7131390000000  0.5144520000000  0.4197240000000 1.0
C      1  0.7131390000000  0.4281190000000  0.4614480000000 1.0
C      1  0.2868610000000  0.4411230000000  0.5564490000000 1.0
C      1  0.2868610000000  0.5354920000000  0.5734390000000 1.0
C      1  0.2868610000000  0.5808130000000  0.4889380000000 1.0
C      1  0.2868610000000  0.5144520000000  0.4197240000000 1.0
C      1  0.2868610000000  0.4281190000000  0.4614480000000 1.0
END
