TITL C-2159255-4746-808 -0.00187266088359875 3375 -391.481145176405 0 0 60 (C2v) n - 1
REM
REM in /scratch/bkarasulu/871
REM
REM
REM
REM
REM
REM ./C.cell (a2850807a9bf4ad07a5b6933b78d9264)
REM AIRSS Version 0.9.1 bugfix July 2018 build 013d7b7c2542+ Fri, 06 Jul 2018 19:26:36 +0100
REM compiler GCC version 9.2.1 20190827 (Red Hat 9.2.1-1)
REM options -cpp -mtune=generic -march=x86-64 -g -O0 -fpre-include=/usr/include/finclude/math-vector-fortran.h
REM seed 1581422920 -1560074909 737552413 -1400201547 -449355169 1729198659 -2076890801 260147330 909932474 57295170 280843679 -500500429 1855188210 -918149204 1513574625 325521114 1204150401 -19239432 -799880853 385353024 1602047704 -1202898383 -675573317 -210601964 421961055 348783358 -1458890763 450109870 -141086718 -642978940 1504886843 2100540638 -558956740
REM
CELL 1.54180   15.00000   15.00000   15.00000   90.00000   90.00000   90.00000
LATT -1
SFAC C  
C      1  0.6087550000000  0.6735860000000  0.4456980000000 1.0
C      1  0.3912450000000  0.3264140000000  0.4456980000000 1.0
C      1  0.3912450000000  0.6735860000000  0.4456980000000 1.0
C      1  0.6087550000000  0.3264140000000  0.4456980000000 1.0
C      1  0.5899340000000  0.6898700000000  0.6100740000000 1.0
C      1  0.4100660000000  0.3101300000000  0.6100740000000 1.0
C      1  0.4100660000000  0.6898700000000  0.6100740000000 1.0
C      1  0.5899340000000  0.3101300000000  0.6100740000000 1.0
C      1  0.6759100000000  0.5522190000000  0.3645170000000 1.0
C      1  0.3240900000000  0.4477810000000  0.3645170000000 1.0
C      1  0.3240900000000  0.5522190000000  0.3645170000000 1.0
C      1  0.6759100000000  0.4477810000000  0.3645170000000 1.0
C      1  0.3814390000000  0.4524010000000  0.6809180000000 1.0
C      1  0.6185610000000  0.5475990000000  0.6809180000000 1.0
C      1  0.6185610000000  0.4524010000000  0.6809180000000 1.0
C      1  0.3814390000000  0.5475990000000  0.6809180000000 1.0
C      1  0.5483200000000  0.5955580000000  0.4664900000000 1.0
C      1  0.4516800000000  0.4044420000000  0.4664900000000 1.0
C      1  0.4516800000000  0.5955580000000  0.4664900000000 1.0
C      1  0.5483200000000  0.4044420000000  0.4664900000000 1.0
C      1  0.5515400000000  0.3995770000000  0.6288450000000 1.0
C      1  0.4484600000000  0.6004230000000  0.6288450000000 1.0
C      1  0.4484600000000  0.3995770000000  0.6288450000000 1.0
C      1  0.5515400000000  0.6004230000000  0.6288450000000 1.0
C      1  0.6809850000000  0.4470120000000  0.5295360000000 1.0
C      1  0.3190150000000  0.5529880000000  0.5295360000000 1.0
C      1  0.3190150000000  0.4470120000000  0.5295360000000 1.0
C      1  0.6809850000000  0.5529880000000  0.5295360000000 1.0
C      1  0.4203300000000  0.4490450000000  0.5450620000000 1.0
C      1  0.5796700000000  0.5509550000000  0.5450620000000 1.0
C      1  0.5796700000000  0.4490450000000  0.5450620000000 1.0
C      1  0.4203300000000  0.5509550000000  0.5450620000000 1.0
C      1  0.7020870000000  0.5478220000000  0.6258430000000 1.0
C      1  0.2979130000000  0.4521780000000  0.6258430000000 1.0
C      1  0.2979130000000  0.5478220000000  0.6258430000000 1.0
C      1  0.7020870000000  0.4521780000000  0.6258430000000 1.0
C      1  0.6868570000000  0.3954950000000  0.4444980000000 1.0
C      1  0.3131430000000  0.6045050000000  0.4444980000000 1.0
C      1  0.3131430000000  0.3954950000000  0.4444980000000 1.0
C      1  0.6868570000000  0.6045050000000  0.4444980000000 1.0
C      1  0.5554440000000  0.3170640000000  0.3555150000000 1.0
C      1  0.4445560000000  0.6829360000000  0.3555150000000 1.0
C      1  0.4445560000000  0.3170640000000  0.3555150000000 1.0
C      1  0.5554440000000  0.6829360000000  0.3555150000000 1.0
C      1  0.5509270000000  0.5477600000000  0.3755310000000 1.0
C      1  0.4490730000000  0.4522400000000  0.3755310000000 1.0
C      1  0.4490730000000  0.5477600000000  0.3755310000000 1.0
C      1  0.5509270000000  0.4522400000000  0.3755310000000 1.0
C      1  0.5481590000000  0.2311430000000  0.5854220000000 1.0
C      1  0.4518410000000  0.7688570000000  0.5854220000000 1.0
C      1  0.4518410000000  0.2311430000000  0.5854220000000 1.0
C      1  0.5481590000000  0.7688570000000  0.5854220000000 1.0
C      1  0.4015510000000  0.6061660000000  0.3157320000000 1.0
C      1  0.5984490000000  0.3938340000000  0.3157320000000 1.0
C      1  0.5984490000000  0.6061660000000  0.3157320000000 1.0
C      1  0.4015510000000  0.3938340000000  0.3157320000000 1.0
C      1  0.3920310000000  0.7277300000000  0.5263210000000 1.0
C      1  0.6079690000000  0.2722700000000  0.5263210000000 1.0
C      1  0.6079690000000  0.7277300000000  0.5263210000000 1.0
C      1  0.3920310000000  0.2722700000000  0.5263210000000 1.0
END
