TITL C-2159255-4746-89 -0.00157211183548992 3375 -402.847332273079 0 0 60 (C1) n - 1
REM
REM in /scratch/bkarasulu/871
REM
REM
REM
REM
REM
REM ./C.cell (a2850807a9bf4ad07a5b6933b78d9264)
REM AIRSS Version 0.9.1 bugfix July 2018 build 013d7b7c2542+ Fri, 06 Jul 2018 19:26:36 +0100
REM compiler GCC version 9.2.1 20190827 (Red Hat 9.2.1-1)
REM options -cpp -mtune=generic -march=x86-64 -g -O0 -fpre-include=/usr/include/finclude/math-vector-fortran.h
REM seed -1518969811 -1584178550 -688077939 -1476535917 882442877 1899414961 607012484 1654839315 -899493001 1208091749 1476328758 -521466827 1413287616 -2112118699 -832313074 2006286780 -518718898 1666813762 -1616372795 -57333017 -1322321884 1818430737 -890013032 -1190460021 650279710 1616712207 -1528923579 -1308613305 -1854242714 1573271392 -292947970 218194551 -813010870
REM
CELL 1.54180   15.00000   15.00000   15.00000   90.00000   90.00000   90.00000
LATT -1
SFAC C  
C      1  0.7085930000000  0.3669130000000  0.5137450000000 1.0
C      1  0.3925570000000  0.4070610000000  0.3120860000000 1.0
C      1  0.6102800000000  0.4048880000000  0.4873030000000 1.0
C      1  0.5530850000000  0.3828360000000  0.3358480000000 1.0
C      1  0.5147260000000  0.3040130000000  0.3712710000000 1.0
C      1  0.5458000000000  0.4422400000000  0.7480420000000 1.0
C      1  0.3033890000000  0.5634520000000  0.5792830000000 1.0
C      1  0.3445540000000  0.6571840000000  0.4517410000000 1.0
C      1  0.3014690000000  0.4232100000000  0.4514840000000 1.0
C      1  0.6337000000000  0.5556910000000  0.5812010000000 1.0
C      1  0.4029510000000  0.7091820000000  0.5083950000000 1.0
C      1  0.5026580000000  0.3747390000000  0.6080560000000 1.0
C      1  0.7047730000000  0.6846650000000  0.5345060000000 1.0
C      1  0.4132760000000  0.5538180000000  0.6959460000000 1.0
C      1  0.5725230000000  0.5317320000000  0.3702560000000 1.0
C      1  0.6049670000000  0.6865120000000  0.3878170000000 1.0
C      1  0.3010530000000  0.4749520000000  0.6068420000000 1.0
C      1  0.5700960000000  0.6067170000000  0.5185070000000 1.0
C      1  0.4370150000000  0.4984030000000  0.5359220000000 1.0
C      1  0.3802330000000  0.3813500000000  0.4040300000000 1.0
C      1  0.3697910000000  0.4944470000000  0.2819000000000 1.0
C      1  0.5041690000000  0.2823780000000  0.4589200000000 1.0
C      1  0.3731890000000  0.6312440000000  0.3660580000000 1.0
C      1  0.6562740000000  0.3758040000000  0.6881430000000 1.0
C      1  0.4585080000000  0.4301040000000  0.4649480000000 1.0
C      1  0.5071690000000  0.5178620000000  0.6924970000000 1.0
C      1  0.6217780000000  0.5992250000000  0.4209100000000 1.0
C      1  0.4025100000000  0.2951440000000  0.6273290000000 1.0
C      1  0.4619020000000  0.5054810000000  0.2524580000000 1.0
C      1  0.3308220000000  0.5479620000000  0.3455440000000 1.0
C      1  0.6358520000000  0.4671620000000  0.7301120000000 1.0
C      1  0.3709770000000  0.6105280000000  0.6329270000000 1.0
C      1  0.6045190000000  0.5413730000000  0.6760030000000 1.0
C      1  0.5241820000000  0.3644610000000  0.5110440000000 1.0
C      1  0.5121100000000  0.7028170000000  0.3865930000000 1.0
C      1  0.3962470000000  0.6887040000000  0.5978400000000 1.0
C      1  0.4608650000000  0.6473890000000  0.3336190000000 1.0
C      1  0.2937050000000  0.5851050000000  0.4885160000000 1.0
C      1  0.4280930000000  0.2957960000000  0.4061590000000 1.0
C      1  0.3417170000000  0.3253710000000  0.5725760000000 1.0
C      1  0.6275060000000  0.4596440000000  0.5691900000000 1.0
C      1  0.7604400000000  0.4039670000000  0.4504370000000 1.0
C      1  0.5548520000000  0.3561570000000  0.6977540000000 1.0
C      1  0.5102840000000  0.5708220000000  0.2970450000000 1.0
C      1  0.4807860000000  0.5717020000000  0.4908060000000 1.0
C      1  0.4856340000000  0.4162100000000  0.2817320000000 1.0
C      1  0.6465670000000  0.7472010000000  0.5491180000000 1.0
C      1  0.4594730000000  0.4591280000000  0.6200940000000 1.0
C      1  0.2969790000000  0.4021890000000  0.5452480000000 1.0
C      1  0.7197420000000  0.5947930000000  0.5341680000000 1.0
C      1  0.2888520000000  0.5131330000000  0.4254520000000 1.0
C      1  0.4883040000000  0.7310880000000  0.4733830000000 1.0
C      1  0.4843810000000  0.5131090000000  0.4143720000000 1.0
C      1  0.6143330000000  0.4425310000000  0.3878320000000 1.0
C      1  0.7159410000000  0.4707740000000  0.4050940000000 1.0
C      1  0.5637630000000  0.7064700000000  0.5309000000000 1.0
C      1  0.7075550000000  0.5581680000000  0.4433420000000 1.0
C      1  0.6912460000000  0.3947590000000  0.6051340000000 1.0
C      1  0.4785800000000  0.2995160000000  0.6735490000000 1.0
C      1  0.3727060000000  0.4707250000000  0.6689760000000 1.0
END
