TITL C-2159255-4746-662 -0.0016228718082191 3375 -421.144839946767 0 0 60 (D2) n - 1
REM
REM in /scratch/bkarasulu/871
REM
REM
REM
REM
REM
REM ./C.cell (a2850807a9bf4ad07a5b6933b78d9264)
REM AIRSS Version 0.9.1 bugfix July 2018 build 013d7b7c2542+ Fri, 06 Jul 2018 19:26:36 +0100
REM compiler GCC version 9.2.1 20190827 (Red Hat 9.2.1-1)
REM options -cpp -mtune=generic -march=x86-64 -g -O0 -fpre-include=/usr/include/finclude/math-vector-fortran.h
REM seed 918598909 -1230566962 1433647535 729310491 1569750071 736307822 -647554967 -1431674411 -29406548 -493132402 -542033795 -1190361304 -1764336005 1200996531 483778264 1207513526 353344632 343100090 470565028 -515778229 -1252855109 -1357218528 -825775087 -537482727 -141357128 -960664008 1612800901 -2049623556 -1349956929 -369720225 -1894441503 -1946260702 -57494804
REM
CELL 1.54180   15.00000   15.00000   15.00000   90.00000   90.00000   90.00000
LATT -1
SFAC C  
C      1  0.5359530000000  0.3790480000000  0.3311780000000 1.0
C      1  0.4640470000000  0.3790480000000  0.6688220000000 1.0
C      1  0.4640470000000  0.6209520000000  0.3311780000000 1.0
C      1  0.5359530000000  0.6209520000000  0.6688220000000 1.0
C      1  0.4820260000000  0.5458220000000  0.7027960000000 1.0
C      1  0.5179750000000  0.5458220000000  0.2972040000000 1.0
C      1  0.5179750000000  0.4541780000000  0.7027960000000 1.0
C      1  0.4820250000000  0.4541780000000  0.2972040000000 1.0
C      1  0.4885200000000  0.3112440000000  0.5971310000000 1.0
C      1  0.5114800000000  0.3112430000000  0.4028690000000 1.0
C      1  0.5114800000000  0.6887560000000  0.5971310000000 1.0
C      1  0.4885200000000  0.6887570000000  0.4028690000000 1.0
C      1  0.4467830000000  0.4501460000000  0.4527180000000 1.0
C      1  0.5532170000000  0.4501460000000  0.5472820000000 1.0
C      1  0.5532170000000  0.5498540000000  0.4527180000000 1.0
C      1  0.4467830000000  0.5498540000000  0.5472820000000 1.0
C      1  0.4504400000000  0.5486260000000  0.4485630000000 1.0
C      1  0.5495600000000  0.5486260000000  0.5514370000000 1.0
C      1  0.5495600000000  0.4513740000000  0.4485630000000 1.0
C      1  0.4504400000000  0.4513740000000  0.5514370000000 1.0
C      1  0.4243460000000  0.3123130000000  0.4396220000000 1.0
C      1  0.5756540000000  0.3123130000000  0.5603780000000 1.0
C      1  0.5756540000000  0.6876870000000  0.4396220000000 1.0
C      1  0.4243460000000  0.6876870000000  0.5603780000000 1.0
C      1  0.7140650000000  0.5887640000000  0.5367900000000 1.0
C      1  0.2859350000000  0.5887640000000  0.4632100000000 1.0
C      1  0.2859350000000  0.4112360000000  0.5367900000000 1.0
C      1  0.7140650000000  0.4112360000000  0.4632100000000 1.0
C      1  0.6626150000000  0.5218520000000  0.6680710000000 1.0
C      1  0.3373850000000  0.5218520000000  0.3319290000000 1.0
C      1  0.3373850000000  0.4781480000000  0.6680710000000 1.0
C      1  0.6626150000000  0.4781480000000  0.3319290000000 1.0
C      1  0.6583570000000  0.6508690000000  0.5811170000000 1.0
C      1  0.3416430000000  0.6508690000000  0.4188830000000 1.0
C      1  0.3416430000000  0.3491310000000  0.5811170000000 1.0
C      1  0.6583570000000  0.3491310000000  0.4188830000000 1.0
C      1  0.6270880000000  0.6133210000000  0.4002640000000 1.0
C      1  0.3729120000000  0.6133210000000  0.5997360000000 1.0
C      1  0.3729120000000  0.3866790000000  0.4002640000000 1.0
C      1  0.6270880000000  0.3866790000000  0.5997360000000 1.0
C      1  0.6294000000000  0.6096740000000  0.6642310000000 1.0
C      1  0.3706000000000  0.6096740000000  0.3357690000000 1.0
C      1  0.3706000000000  0.3903260000000  0.6642310000000 1.0
C      1  0.6294000000000  0.3903260000000  0.3357690000000 1.0
C      1  0.3912120000000  0.4446570000000  0.3204740000000 1.0
C      1  0.6087880000000  0.4446570000000  0.6795260000000 1.0
C      1  0.6087880000000  0.5553430000000  0.3204740000000 1.0
C      1  0.3912120000000  0.5553430000000  0.6795260000000 1.0
C      1  0.4127430000000  0.6965680000000  0.4627200000000 1.0
C      1  0.5872570000000  0.6965680000000  0.5372800000000 1.0
C      1  0.5872570000000  0.3034320000000  0.4627200000000 1.0
C      1  0.4127430000000  0.3034320000000  0.5372800000000 1.0
C      1  0.7070630000000  0.5771200000000  0.4436110000000 1.0
C      1  0.2929370000000  0.5771200000000  0.5563890000000 1.0
C      1  0.2929370000000  0.4228800000000  0.4436110000000 1.0
C      1  0.7070630000000  0.4228800000000  0.5563890000000 1.0
C      1  0.2828130000000  0.5102100000000  0.4090260000000 1.0
C      1  0.7171870000000  0.5102100000000  0.5909740000000 1.0
C      1  0.7171870000000  0.4897900000000  0.4090260000000 1.0
C      1  0.2828130000000  0.4897900000000  0.5909740000000 1.0
END
