TITL C-2158984-8299-80 -0.00202480024110169 3375 -406.185395036761 0 0 60 (C1) n - 1
REM
REM in /scratch/bkarasulu/869
REM
REM
REM
REM
REM
REM ./C.cell (a2850807a9bf4ad07a5b6933b78d9264)
REM AIRSS Version 0.9.1 bugfix July 2018 build 013d7b7c2542+ Fri, 06 Jul 2018 19:26:36 +0100
REM compiler GCC version 9.2.1 20190827 (Red Hat 9.2.1-1)
REM options -cpp -mtune=generic -march=x86-64 -g -O0 -fpre-include=/usr/include/finclude/math-vector-fortran.h
REM seed -2036328098 1763694473 -2032550761 -1018077145 -1303151474 1096008438 -158977571 1767993346 1467831549 610301792 416446552 1558262798 -566044172 -144159054 1540205493 -32961742 495973226 691706544 1250038825 -1568133440 878241270 -744380657 -22728936 -1321990638 1252043891 -1788626972 -1731941588 614548947 -565644746 -1787649426 1974636019 494818668 -723151316
REM
CELL 1.54180   15.00000   15.00000   15.00000   90.00000   90.00000   90.00000
LATT -1
SFAC C  
C      1  0.5768370000000  0.6763570000000  0.6338450000000 1.0
C      1  0.6873380000000  0.5515310000000  0.6350510000000 1.0
C      1  0.6578080000000  0.3926620000000  0.6407920000000 1.0
C      1  0.5160200000000  0.3144020000000  0.6379260000000 1.0
C      1  0.3697300000000  0.3763750000000  0.6265020000000 1.0
C      1  0.3256960000000  0.5332390000000  0.6253450000000 1.0
C      1  0.4158320000000  0.6664430000000  0.6368980000000 1.0
C      1  0.3530830000000  0.5296110000000  0.3110140000000 1.0
C      1  0.4233630000000  0.6503930000000  0.3196570000000 1.0
C      1  0.5734260000000  0.6443600000000  0.3176290000000 1.0
C      1  0.6882660000000  0.5516380000000  0.3239080000000 1.0
C      1  0.6420910000000  0.3949400000000  0.3142050000000 1.0
C      1  0.4989820000000  0.3185720000000  0.3260780000000 1.0
C      1  0.3564640000000  0.3700920000000  0.3166610000000 1.0
C      1  0.5167570000000  0.3917510000000  0.4704110000000 1.0
C      1  0.4267400000000  0.3806690000000  0.4613680000000 1.0
C      1  0.3632500000000  0.4506690000000  0.4791910000000 1.0
C      1  0.3944050000000  0.5391460000000  0.4672200000000 1.0
C      1  0.5289060000000  0.6298870000000  0.4781580000000 1.0
C      1  0.6223640000000  0.6073190000000  0.4900010000000 1.0
C      1  0.6284420000000  0.5112810000000  0.4771710000000 1.0
C      1  0.3971560000000  0.5191890000000  0.6829110000000 1.0
C      1  0.4538030000000  0.5971000000000  0.6864090000000 1.0
C      1  0.5494820000000  0.6046490000000  0.6867560000000 1.0
C      1  0.6130760000000  0.5337840000000  0.6891010000000 1.0
C      1  0.5945150000000  0.4393080000000  0.6925170000000 1.0
C      1  0.5103840000000  0.3924220000000  0.6900550000000 1.0
C      1  0.4222070000000  0.4277370000000  0.6839950000000 1.0
C      1  0.6953480000000  0.4636220000000  0.3459810000000 1.0
C      1  0.5850540000000  0.3311410000000  0.3491300000000 1.0
C      1  0.4124040000000  0.3053650000000  0.3488650000000 1.0
C      1  0.3110020000000  0.4455990000000  0.3315110000000 1.0
C      1  0.3392340000000  0.6189370000000  0.3538490000000 1.0
C      1  0.4975910000000  0.6984240000000  0.3508340000000 1.0
C      1  0.6672530000000  0.6373690000000  0.3431480000000 1.0
C      1  0.7088110000000  0.4711130000000  0.4447100000000 1.0
C      1  0.5807690000000  0.3210770000000  0.4485350000000 1.0
C      1  0.3973440000000  0.2909390000000  0.4459760000000 1.0
C      1  0.2795400000000  0.4395570000000  0.4243760000000 1.0
C      1  0.3301260000000  0.6123880000000  0.4472650000000 1.0
C      1  0.5027910000000  0.7161510000000  0.4440850000000 1.0
C      1  0.6856190000000  0.6627670000000  0.4351780000000 1.0
C      1  0.6618350000000  0.6409940000000  0.5805660000000 1.0
C      1  0.7198020000000  0.4647060000000  0.6000910000000 1.0
C      1  0.6096230000000  0.3114330000000  0.6021270000000 1.0
C      1  0.4225930000000  0.2981910000000  0.5989160000000 1.0
C      1  0.3104330000000  0.4426110000000  0.5712430000000 1.0
C      1  0.3291020000000  0.6283520000000  0.5986830000000 1.0
C      1  0.4957140000000  0.7211330000000  0.5993570000000 1.0
C      1  0.4969860000000  0.7681770000000  0.5182530000000 1.0
C      1  0.7184910000000  0.6911920000000  0.5150690000000 1.0
C      1  0.7618280000000  0.4559340000000  0.5170390000000 1.0
C      1  0.6230660000000  0.2764630000000  0.5169580000000 1.0
C      1  0.3973270000000  0.2453470000000  0.5239840000000 1.0
C      1  0.2373600000000  0.4258700000000  0.5034610000000 1.0
C      1  0.2882550000000  0.6514380000000  0.5178810000000 1.0
C      1  0.5336070000000  0.5667180000000  0.2845070000000 1.0
C      1  0.4818460000000  0.5492960000000  0.4859590000000 1.0
C      1  0.5405470000000  0.4780710000000  0.4889620000000 1.0
C      1  0.4425680000000  0.5591070000000  0.2813470000000 1.0
END
