TITL C-2158984-8299-285 -0.00647865631876638 3375 -384.899728968318 0 0 60 (C1) n - 1
REM
REM in /scratch/bkarasulu/869
REM
REM
REM
REM
REM
REM ./C.cell (a2850807a9bf4ad07a5b6933b78d9264)
REM AIRSS Version 0.9.1 bugfix July 2018 build 013d7b7c2542+ Fri, 06 Jul 2018 19:26:36 +0100
REM compiler GCC version 9.2.1 20190827 (Red Hat 9.2.1-1)
REM options -cpp -mtune=generic -march=x86-64 -g -O0 -fpre-include=/usr/include/finclude/math-vector-fortran.h
REM seed 1350394509 -918762293 1432641267 -1371641303 -242071812 -327966405 -638591104 -209222811 -2041069444 1483648267 -2007357803 -788234498 997479943 -1749924347 -804683928 523172388 -1779824273 1643670633 115315715 969562852 -1450762738 1398983594 -1850291113 46815771 -1580257453 -29144806 -518063442 -1851075502 23730264 11923723 -41017077 890393211 1997773882
REM
CELL 1.54180   15.00000   15.00000   15.00000   90.00000   90.00000   90.00000
LATT -1
SFAC C  
C      1  0.5811400000000  0.3059560000000  0.6517450000000 1.0
C      1  0.4965910000000  0.2795240000000  0.6623370000000 1.0
C      1  0.4122290000000  0.2607010000000  0.6518400000000 1.0
C      1  0.3628950000000  0.2641050000000  0.5789990000000 1.0
C      1  0.3409920000000  0.2764410000000  0.4961030000000 1.0
C      1  0.3586450000000  0.2910220000000  0.4092330000000 1.0
C      1  0.4352160000000  0.3014230000000  0.3668750000000 1.0
C      1  0.5209010000000  0.3132080000000  0.3442480000000 1.0
C      1  0.5747910000000  0.3011220000000  0.4194400000000 1.0
C      1  0.6498790000000  0.3127980000000  0.4789910000000 1.0
C      1  0.6036600000000  0.2990900000000  0.5609420000000 1.0
C      1  0.6437220000000  0.5308130000000  0.7293650000000 1.0
C      1  0.4969710000000  0.5078640000000  0.7660820000000 1.0
C      1  0.3595630000000  0.4727940000000  0.7135450000000 1.0
C      1  0.2604740000000  0.4862480000000  0.6044840000000 1.0
C      1  0.2384400000000  0.5010060000000  0.4532070000000 1.0
C      1  0.3035920000000  0.5130580000000  0.3189030000000 1.0
C      1  0.4359780000000  0.5181010000000  0.2393610000000 1.0
C      1  0.5857500000000  0.5270940000000  0.2433970000000 1.0
C      1  0.7025530000000  0.4875160000000  0.3318460000000 1.0
C      1  0.7697140000000  0.5209820000000  0.4632320000000 1.0
C      1  0.7423580000000  0.4931330000000  0.6135710000000 1.0
C      1  0.5560490000000  0.5344390000000  0.3324370000000 1.0
C      1  0.6373490000000  0.5235760000000  0.3876830000000 1.0
C      1  0.6780660000000  0.5304030000000  0.4778540000000 1.0
C      1  0.6627010000000  0.5227560000000  0.5761670000000 1.0
C      1  0.5958750000000  0.5305390000000  0.6493150000000 1.0
C      1  0.5001460000000  0.5229940000000  0.6735650000000 1.0
C      1  0.4072360000000  0.5077160000000  0.6412550000000 1.0
C      1  0.3424210000000  0.5103440000000  0.5667810000000 1.0
C      1  0.3287400000000  0.5192000000000  0.4693560000000 1.0
C      1  0.3715950000000  0.5268380000000  0.3813570000000 1.0
C      1  0.4573020000000  0.5325610000000  0.3295580000000 1.0
C      1  0.6491390000000  0.7330370000000  0.3922540000000 1.0
C      1  0.6649540000000  0.7419410000000  0.4787740000000 1.0
C      1  0.6499680000000  0.7333940000000  0.5641820000000 1.0
C      1  0.5734890000000  0.7370260000000  0.6085240000000 1.0
C      1  0.4949530000000  0.7218670000000  0.6413690000000 1.0
C      1  0.4115320000000  0.7006440000000  0.6202340000000 1.0
C      1  0.3611530000000  0.7024680000000  0.5485390000000 1.0
C      1  0.3624780000000  0.7167320000000  0.4620030000000 1.0
C      1  0.4138480000000  0.7304450000000  0.3932050000000 1.0
C      1  0.4852700000000  0.7413420000000  0.3440580000000 1.0
C      1  0.5712510000000  0.7462330000000  0.3527300000000 1.0
C      1  0.1631100000000  0.4615920000000  0.4496380000000 1.0
C      1  0.2564190000000  0.4759080000000  0.2584180000000 1.0
C      1  0.4180180000000  0.4761640000000  0.1669800000000 1.0
C      1  0.6085060000000  0.4884860000000  0.1708320000000 1.0
C      1  0.7532140000000  0.4415210000000  0.2813480000000 1.0
C      1  0.8439250000000  0.4826590000000  0.4480120000000 1.0
C      1  0.8195980000000  0.4567480000000  0.6232640000000 1.0
C      1  0.6634150000000  0.5114720000000  0.8107920000000 1.0
C      1  0.4907010000000  0.4661170000000  0.8407320000000 1.0
C      1  0.3167730000000  0.4338810000000  0.7759830000000 1.0
C      1  0.1932470000000  0.4427300000000  0.6337650000000 1.0
C      1  0.4829870000000  0.3909750000000  0.5110390000000 1.0
C      1  0.5144230000000  0.6347050000000  0.4913580000000 1.0
C      1  0.4991740000000  0.5565260000000  0.5007770000000 1.0
C      1  0.5188530000000  0.2966380000000  0.5001580000000 1.0
C      1  0.5048560000000  0.4686810000000  0.4965320000000 1.0
END
