TITL C-2158988-7926-470 -0.00204554717038557 3375 -392.244095990074 0 0 60 (S4) n - 1
REM
REM in /scratch/bkarasulu/868
REM
REM
REM
REM
REM
REM ./C.cell (a2850807a9bf4ad07a5b6933b78d9264)
REM AIRSS Version 0.9.1 bugfix July 2018 build 013d7b7c2542+ Fri, 06 Jul 2018 19:26:36 +0100
REM compiler GCC version 9.2.1 20190827 (Red Hat 9.2.1-1)
REM options -cpp -mtune=generic -march=x86-64 -g -O0 -fpre-include=/usr/include/finclude/math-vector-fortran.h
REM seed 742432001 -467192224 -245366736 659234142 -826043657 -1220859044 -1030967136 -799896242 -556949163 149712181 1802680754 -522796918 -683032173 1797503403 936658585 -503619594 780854231 -513682438 343097193 -1030306138 -818167814 1804001390 558004817 1929984106 1285251004 -728096009 -606148793 1762676093 1732055941 1720684681 -877858903 13119542 1205685615
REM
CELL 1.54180   15.00000   15.00000   15.00000   90.00000   90.00000   90.00000
LATT -1
SFAC C  
C      1  0.5109560000000  0.3953860000000  0.5750660000000 1.0
C      1  0.4890430000000  0.4249340000000  0.3953850000000 1.0
C      1  0.5109560000000  0.6046130000000  0.4249340000000 1.0
C      1  0.4890430000000  0.5750660000000  0.6046150000000 1.0
C      1  0.6295230000000  0.4054400000000  0.4371660000000 1.0
C      1  0.3704760000000  0.5628340000000  0.4054400000000 1.0
C      1  0.6295230000000  0.5945600000000  0.5628340000000 1.0
C      1  0.3704760000000  0.4371660000000  0.5945600000000 1.0
C      1  0.4365110000000  0.2673130000000  0.6158850000000 1.0
C      1  0.5634890000000  0.3841140000000  0.2673130000000 1.0
C      1  0.4365110000000  0.7326870000000  0.3841150000000 1.0
C      1  0.5634890000000  0.6158860000000  0.7326870000000 1.0
C      1  0.4178700000000  0.3523140000000  0.5614680000000 1.0
C      1  0.5821300000000  0.4385330000000  0.3523150000000 1.0
C      1  0.4178700000000  0.6476860000000  0.4385320000000 1.0
C      1  0.5821300000000  0.5614670000000  0.6476850000000 1.0
C      1  0.4154000000000  0.3143640000000  0.4692580000000 1.0
C      1  0.5846000000000  0.5307420000000  0.3143640000000 1.0
C      1  0.4154000000000  0.6856360000000  0.5307420000000 1.0
C      1  0.5846000000000  0.4692580000000  0.6856360000000 1.0
C      1  0.5842160000000  0.6772820000000  0.5347960000000 1.0
C      1  0.4157840000000  0.4652040000000  0.6772820000000 1.0
C      1  0.5842160000000  0.3227180000000  0.4652040000000 1.0
C      1  0.4157840000000  0.5347960000000  0.3227180000000 1.0
C      1  0.6532590000000  0.3348040000000  0.6188190000000 1.0
C      1  0.3467410000000  0.3811810000000  0.3348040000000 1.0
C      1  0.6532590000000  0.6651960000000  0.3811810000000 1.0
C      1  0.3467410000000  0.6188190000000  0.6651960000000 1.0
C      1  0.5173520000000  0.7546290000000  0.3983730000000 1.0
C      1  0.4826480000000  0.6016270000000  0.7546290000000 1.0
C      1  0.5173520000000  0.2453710000000  0.6016270000000 1.0
C      1  0.4826480000000  0.3983730000000  0.2453710000000 1.0
C      1  0.7278550000000  0.6068810000000  0.3789400000000 1.0
C      1  0.2721450000000  0.6210600000000  0.6068810000000 1.0
C      1  0.7278550000000  0.3931190000000  0.6210600000000 1.0
C      1  0.2721450000000  0.3789400000000  0.3931190000000 1.0
C      1  0.5798780000000  0.6897160000000  0.4364030000000 1.0
C      1  0.4201220000000  0.5635970000000  0.6897150000000 1.0
C      1  0.5798780000000  0.3102840000000  0.5635970000000 1.0
C      1  0.4201220000000  0.4364030000000  0.3102850000000 1.0
C      1  0.3479140000000  0.6787590000000  0.5939860000000 1.0
C      1  0.6520850000000  0.4060140000000  0.6787590000000 1.0
C      1  0.3479140000000  0.3212410000000  0.4060140000000 1.0
C      1  0.6520850000000  0.5939860000000  0.3212410000000 1.0
C      1  0.4361070000000  0.4961990000000  0.4524360000000 1.0
C      1  0.5638960000000  0.5475630000000  0.4961980000000 1.0
C      1  0.4361070000000  0.5038010000000  0.5475640000000 1.0
C      1  0.5638960000000  0.4524370000000  0.5038020000000 1.0
C      1  0.7195750000000  0.4463620000000  0.4574810000000 1.0
C      1  0.2804250000000  0.5425180000000  0.4463620000000 1.0
C      1  0.7195750000000  0.5536380000000  0.5425190000000 1.0
C      1  0.2804250000000  0.4574820000000  0.5536380000000 1.0
C      1  0.2637550000000  0.5543870000000  0.5419800000000 1.0
C      1  0.7362450000000  0.4580200000000  0.5543870000000 1.0
C      1  0.2637550000000  0.4456130000000  0.4580200000000 1.0
C      1  0.7362450000000  0.5419800000000  0.4456130000000 1.0
C      1  0.5020270000000  0.5710280000000  0.3304920000000 1.0
C      1  0.4979720000000  0.6695070000000  0.5710280000000 1.0
C      1  0.5020270000000  0.4289720000000  0.6695080000000 1.0
C      1  0.4979720000000  0.3304930000000  0.4289720000000 1.0
END
