TITL C-2158984-8299-346 -0.00149346117824694 3375 -389.498689850679 0 0 60 (Td) n - 1
REM
REM in /scratch/bkarasulu/869
REM
REM
REM
REM
REM
REM ./C.cell (a2850807a9bf4ad07a5b6933b78d9264)
REM AIRSS Version 0.9.1 bugfix July 2018 build 013d7b7c2542+ Fri, 06 Jul 2018 19:26:36 +0100
REM compiler GCC version 9.2.1 20190827 (Red Hat 9.2.1-1)
REM options -cpp -mtune=generic -march=x86-64 -g -O0 -fpre-include=/usr/include/finclude/math-vector-fortran.h
REM seed -640527059 971389041 1758086118 -822204947 148603684 -228704874 -1995248637 1339606370 1443008402 1095091840 2145597328 -164223887 58452360 905571026 -745335502 131084743 105702603 -977498384 408600213 -1041789174 1309089188 -1947758988 1044565125 1350232172 67168422 -1751002778 396307692 -1202950269 529757464 -1804787189 -1805297926 -1446464657 -350205516
REM
CELL 1.54180   15.00000   15.00000   15.00000   90.00000   90.00000   90.00000
LATT -1
SFAC C  
C      1  0.6095790000000  0.5417810000000  0.3177360000000 1.0
C      1  0.3177370000000  0.6095790000000  0.5417810000000 1.0
C      1  0.5417810000000  0.3177370000000  0.6095790000000 1.0
C      1  0.3904220000000  0.5417810000000  0.6822630000000 1.0
C      1  0.6095790000000  0.4582190000000  0.6822630000000 1.0
C      1  0.3904210000000  0.4582190000000  0.3177360000000 1.0
C      1  0.6822630000000  0.6095780000000  0.4582190000000 1.0
C      1  0.3177370000000  0.3904210000000  0.4582190000000 1.0
C      1  0.6822630000000  0.3904210000000  0.5417810000000 1.0
C      1  0.4582190000000  0.3177370000000  0.3904220000000 1.0
C      1  0.5417810000000  0.6822630000000  0.3904210000000 1.0
C      1  0.4582190000000  0.6822640000000  0.6095790000000 1.0
C      1  0.3177370000000  0.5417810000000  0.6095780000000 1.0
C      1  0.5417810000000  0.6095790000000  0.3177370000000 1.0
C      1  0.6095790000000  0.3177370000000  0.5417810000000 1.0
C      1  0.6822640000000  0.5417810000000  0.3904210000000 1.0
C      1  0.6822630000000  0.4582190000000  0.6095790000000 1.0
C      1  0.3177370000000  0.4582190000000  0.3904210000000 1.0
C      1  0.4582190000000  0.6095790000000  0.6822640000000 1.0
C      1  0.4582190000000  0.3904220000000  0.3177370000000 1.0
C      1  0.5417810000000  0.3904210000000  0.6822640000000 1.0
C      1  0.3904210000000  0.3177360000000  0.4582190000000 1.0
C      1  0.3904210000000  0.6822630000000  0.5417810000000 1.0
C      1  0.6095790000000  0.6822630000000  0.4582190000000 1.0
C      1  0.4423960000000  0.3078960000000  0.6235190000000 1.0
C      1  0.6235190000000  0.4423960000000  0.3078960000000 1.0
C      1  0.3078960000000  0.6235190000000  0.4423960000000 1.0
C      1  0.5576040000000  0.3078960000000  0.3764810000000 1.0
C      1  0.4423960000000  0.6921040000000  0.3764810000000 1.0
C      1  0.5576040000000  0.6921040000000  0.6235190000000 1.0
C      1  0.3764810000000  0.4423960000000  0.6921040000000 1.0
C      1  0.6235190000000  0.5576040000000  0.6921040000000 1.0
C      1  0.3764810000000  0.5576040000000  0.3078960000000 1.0
C      1  0.6921040000000  0.6235190000000  0.5576040000000 1.0
C      1  0.3078960000000  0.3764810000000  0.5576040000000 1.0
C      1  0.6921040000000  0.3764810000000  0.4423960000000 1.0
C      1  0.6235190000000  0.3078960000000  0.4423960000000 1.0
C      1  0.3078960000000  0.4423960000000  0.6235190000000 1.0
C      1  0.4423960000000  0.6235190000000  0.3078960000000 1.0
C      1  0.3764810000000  0.3078960000000  0.5576040000000 1.0
C      1  0.3764810000000  0.6921040000000  0.4423960000000 1.0
C      1  0.6235190000000  0.6921040000000  0.5576040000000 1.0
C      1  0.6921040000000  0.4423960000000  0.3764810000000 1.0
C      1  0.6921040000000  0.5576040000000  0.6235190000000 1.0
C      1  0.3078960000000  0.5576040000000  0.3764810000000 1.0
C      1  0.5576040000000  0.6235190000000  0.6921040000000 1.0
C      1  0.5576040000000  0.3764810000000  0.3078960000000 1.0
C      1  0.4423960000000  0.3764810000000  0.6921040000000 1.0
C      1  0.3937500000000  0.5343240000000  0.5343240000000 1.0
C      1  0.5343240000000  0.3937500000000  0.5343240000000 1.0
C      1  0.5343240000000  0.5343240000000  0.3937500000000 1.0
C      1  0.6062500000000  0.5343240000000  0.4656760000000 1.0
C      1  0.3937500000000  0.4656760000000  0.4656760000000 1.0
C      1  0.6062500000000  0.4656760000000  0.5343240000000 1.0
C      1  0.5343240000000  0.6062500000000  0.4656760000000 1.0
C      1  0.4656760000000  0.6062500000000  0.5343240000000 1.0
C      1  0.5343240000000  0.4656760000000  0.6062500000000 1.0
C      1  0.4656760000000  0.5343240000000  0.6062500000000 1.0
C      1  0.4656760000000  0.3937500000000  0.4656760000000 1.0
C      1  0.4656760000000  0.4656760000000  0.3937500000000 1.0
END
