TITL C-2159255-4746-1345 -0.00320899088016798 3375 -414.908160367298 0 0 60 (C1) n - 1
REM
REM in /scratch/bkarasulu/871
REM
REM
REM
REM
REM
REM ./C.cell (a2850807a9bf4ad07a5b6933b78d9264)
REM AIRSS Version 0.9.1 bugfix July 2018 build 013d7b7c2542+ Fri, 06 Jul 2018 19:26:36 +0100
REM compiler GCC version 9.2.1 20190827 (Red Hat 9.2.1-1)
REM options -cpp -mtune=generic -march=x86-64 -g -O0 -fpre-include=/usr/include/finclude/math-vector-fortran.h
REM seed -1827439553 486767483 -466042716 -1201518441 -1036174218 -1082869849 1214446664 -691281761 -2099067831 -1100118209 -1350852258 -1870701096 776623034 -685080221 1860014787 546402945 661421490 -607806267 -226755150 -2041383657 1186220423 1124330189 -490555964 1791752199 1075056822 2037267959 -22861509 1436794866 1004532597 -1662035026 -479256938 -2011760379 -1957071209
REM
CELL 1.54180   15.00000   15.00000   15.00000   90.00000   90.00000   90.00000
LATT -1
SFAC C  
C      1  0.5937620000000  0.6423020000000  0.6275040000000 1.0
C      1  0.6546160000000  0.5715020000000  0.6234780000000 1.0
C      1  0.6676440000000  0.4720960000000  0.6181810000000 1.0
C      1  0.6318450000000  0.3836670000000  0.6325160000000 1.0
C      1  0.5488400000000  0.3327580000000  0.6319640000000 1.0
C      1  0.4489070000000  0.3340780000000  0.6314060000000 1.0
C      1  0.3706860000000  0.3836950000000  0.6306530000000 1.0
C      1  0.3284810000000  0.4754220000000  0.6303620000000 1.0
C      1  0.3414990000000  0.5669110000000  0.6308970000000 1.0
C      1  0.4071320000000  0.6437670000000  0.6311880000000 1.0
C      1  0.4958410000000  0.6702960000000  0.6305740000000 1.0
C      1  0.5460010000000  0.2563050000000  0.5674400000000 1.0
C      1  0.4508560000000  0.2579360000000  0.5637750000000 1.0
C      1  0.3028050000000  0.3554810000000  0.5606180000000 1.0
C      1  0.2626930000000  0.4416120000000  0.5610410000000 1.0
C      1  0.2860990000000  0.6182480000000  0.5633150000000 1.0
C      1  0.3473960000000  0.6909120000000  0.5641380000000 1.0
C      1  0.5180000000000  0.7430460000000  0.5636560000000 1.0
C      1  0.6094950000000  0.7166930000000  0.5611980000000 1.0
C      1  0.7257610000000  0.5817550000000  0.5525340000000 1.0
C      1  0.7365450000000  0.4855030000000  0.5478150000000 1.0
C      1  0.6992240000000  0.3257850000000  0.5881750000000 1.0
C      1  0.3358840000000  0.4807800000000  0.3392230000000 1.0
C      1  0.3423810000000  0.5716350000000  0.3368560000000 1.0
C      1  0.4051660000000  0.6493300000000  0.3370590000000 1.0
C      1  0.4923270000000  0.6771940000000  0.3365500000000 1.0
C      1  0.5883280000000  0.6512280000000  0.3337130000000 1.0
C      1  0.6483590000000  0.5823940000000  0.3291910000000 1.0
C      1  0.6665940000000  0.4849470000000  0.3325720000000 1.0
C      1  0.6351580000000  0.3987330000000  0.3605430000000 1.0
C      1  0.5590120000000  0.3451900000000  0.3520050000000 1.0
C      1  0.4580940000000  0.3435720000000  0.3430280000000 1.0
C      1  0.3796590000000  0.3910230000000  0.3401270000000 1.0
C      1  0.3085420000000  0.3591720000000  0.4023290000000 1.0
C      1  0.2676350000000  0.4448100000000  0.4026920000000 1.0
C      1  0.2864940000000  0.6200450000000  0.4048930000000 1.0
C      1  0.3467960000000  0.6931030000000  0.4056960000000 1.0
C      1  0.5155650000000  0.7461070000000  0.4055130000000 1.0
C      1  0.6067220000000  0.7219160000000  0.4029530000000 1.0
C      1  0.7286350000000  0.5949450000000  0.3924170000000 1.0
C      1  0.7454900000000  0.5034690000000  0.3896040000000 1.0
C      1  0.6949460000000  0.3716850000000  0.4351950000000 1.0
C      1  0.5527010000000  0.2658860000000  0.4090530000000 1.0
C      1  0.4573110000000  0.2645650000000  0.4040910000000 1.0
C      1  0.2520530000000  0.5820650000000  0.4833350000000 1.0
C      1  0.3775040000000  0.7323430000000  0.4853370000000 1.0
C      1  0.4687680000000  0.7607400000000  0.4854110000000 1.0
C      1  0.6576870000000  0.7086730000000  0.4809910000000 1.0
C      1  0.7209180000000  0.6373300000000  0.4768350000000 1.0
C      1  0.7497990000000  0.4452140000000  0.4625610000000 1.0
C      1  0.6772520000000  0.3062950000000  0.4996900000000 1.0
C      1  0.5993510000000  0.2523420000000  0.4898200000000 1.0
C      1  0.4036130000000  0.2569480000000  0.4820580000000 1.0
C      1  0.3229000000000  0.3091010000000  0.4808940000000 1.0
C      1  0.2400120000000  0.4872450000000  0.4818540000000 1.0
C      1  0.4995830000000  0.5008070000000  0.5483630000000 1.0
C      1  0.4985970000000  0.4777160000000  0.3721930000000 1.0
C      1  0.5000690000000  0.4994900000000  0.6387230000000 1.0
C      1  0.4999420000000  0.4993910000000  0.4633110000000 1.0
C      1  0.5010490000000  0.4986260000000  0.7228920000000 1.0
END
