TITL C-2158984-8299-1110 -0.00148544275990356 3375 -403.579867813941 0 0 60 (Cs) n - 1
REM
REM in /scratch/bkarasulu/869
REM
REM
REM
REM
REM
REM ./C.cell (a2850807a9bf4ad07a5b6933b78d9264)
REM AIRSS Version 0.9.1 bugfix July 2018 build 013d7b7c2542+ Fri, 06 Jul 2018 19:26:36 +0100
REM compiler GCC version 9.2.1 20190827 (Red Hat 9.2.1-1)
REM options -cpp -mtune=generic -march=x86-64 -g -O0 -fpre-include=/usr/include/finclude/math-vector-fortran.h
REM seed -412724076 1491137703 -1020063426 1290732677 1447564123 -1783762636 2057347005 -1533561363 -1736246938 -477376621 -1009736026 2063953917 -166674158 -861848572 -502703903 -987072870 -191881665 1782035342 1375802423 -846471089 -769073399 -1579923695 -381319020 -1391401708 -2142423904 -1949611678 500554450 -731789221 -2025022022 2037957526 1871002261 1163988599 -2055742866
REM
CELL 1.54180   15.00000   15.00000   15.00000   90.00000   90.00000   90.00000
LATT -1
SFAC C  
C      1  0.6112500000000  0.4300430000000  0.2836520000000 1.0
C      1  0.6312260000000  0.7326510000000  0.5479410000000 1.0
C      1  0.6189380000000  0.3432170000000  0.6743400000000 1.0
C      1  0.6112500000000  0.4300430000000  0.7163480000000 1.0
C      1  0.6312260000000  0.7326510000000  0.4520590000000 1.0
C      1  0.6189380000000  0.3432170000000  0.3256600000000 1.0
C      1  0.4661350000000  0.7129320000000  0.4518820000000 1.0
C      1  0.4443060000000  0.4339920000000  0.7028950000000 1.0
C      1  0.4582940000000  0.3523700000000  0.3448030000000 1.0
C      1  0.4661350000000  0.7129320000000  0.5481180000000 1.0
C      1  0.4443060000000  0.4339920000000  0.2971050000000 1.0
C      1  0.4582940000000  0.3523700000000  0.6551970000000 1.0
C      1  0.7014590000000  0.4530940000000  0.6858370000000 1.0
C      1  0.7017720000000  0.3681490000000  0.3697240000000 1.0
C      1  0.7064020000000  0.6681550000000  0.4519950000000 1.0
C      1  0.7014590000000  0.4530940000000  0.3141630000000 1.0
C      1  0.7017720000000  0.3681490000000  0.6302760000000 1.0
C      1  0.7064020000000  0.6681550000000  0.5480050000000 1.0
C      1  0.7037460000000  0.5059260000000  0.3932670000000 1.0
C      1  0.6690920000000  0.5877570000000  0.5870060000000 1.0
C      1  0.6765300000000  0.4222680000000  0.5496140000000 1.0
C      1  0.7037460000000  0.5059260000000  0.6067330000000 1.0
C      1  0.6690920000000  0.5877570000000  0.4129940000000 1.0
C      1  0.6765300000000  0.4222680000000  0.4503860000000 1.0
C      1  0.5453210000000  0.3438500000000  0.6157050000000 1.0
C      1  0.5335060000000  0.4780020000000  0.3065100000000 1.0
C      1  0.5532940000000  0.6865440000000  0.5765380000000 1.0
C      1  0.5453210000000  0.3438500000000  0.3842950000000 1.0
C      1  0.5335060000000  0.4780020000000  0.6934900000000 1.0
C      1  0.5532940000000  0.6865440000000  0.4234620000000 1.0
C      1  0.5692480000000  0.4202360000000  0.5504080000000 1.0
C      1  0.5261970000000  0.5047580000000  0.4048280000000 1.0
C      1  0.5738550000000  0.5883570000000  0.5561900000000 1.0
C      1  0.5692480000000  0.4202360000000  0.4495920000000 1.0
C      1  0.5261970000000  0.5047580000000  0.5951720000000 1.0
C      1  0.5738550000000  0.5883570000000  0.4438100000000 1.0
C      1  0.3686390000000  0.5804320000000  0.7168800000000 1.0
C      1  0.3711700000000  0.2585350000000  0.4572450000000 1.0
C      1  0.3746290000000  0.6583280000000  0.3171970000000 1.0
C      1  0.3686390000000  0.5804320000000  0.2831200000000 1.0
C      1  0.3711700000000  0.2585350000000  0.5427550000000 1.0
C      1  0.3746290000000  0.6583280000000  0.6828030000000 1.0
C      1  0.2857930000000  0.4302880000000  0.5496330000000 1.0
C      1  0.2782200000000  0.4905320000000  0.3821020000000 1.0
C      1  0.2811240000000  0.5559910000000  0.5515640000000 1.0
C      1  0.2857930000000  0.4302880000000  0.4503670000000 1.0
C      1  0.2782200000000  0.4905320000000  0.6178980000000 1.0
C      1  0.2811240000000  0.5559910000000  0.4484360000000 1.0
C      1  0.3989560000000  0.6661130000000  0.4059090000000 1.0
C      1  0.3718890000000  0.4963690000000  0.6767570000000 1.0
C      1  0.3926940000000  0.3309780000000  0.4057400000000 1.0
C      1  0.3989560000000  0.6661130000000  0.5940910000000 1.0
C      1  0.3718890000000  0.4963690000000  0.3232430000000 1.0
C      1  0.3926940000000  0.3309780000000  0.5942600000000 1.0
C      1  0.4241070000000  0.5006320000000  0.4136030000000 1.0
C      1  0.3774420000000  0.5829610000000  0.5486350000000 1.0
C      1  0.3847660000000  0.4165410000000  0.5485680000000 1.0
C      1  0.4241070000000  0.5006320000000  0.5863970000000 1.0
C      1  0.3774420000000  0.5829610000000  0.4513650000000 1.0
C      1  0.3847660000000  0.4165410000000  0.4514320000000 1.0
END
