TITL C-2159255-4746-1269 -0.00156059668485653 3375 -385.165051995183 0 0 60 (C6h) n - 1
REM
REM in /scratch/bkarasulu/871
REM
REM
REM
REM
REM
REM ./C.cell (a2850807a9bf4ad07a5b6933b78d9264)
REM AIRSS Version 0.9.1 bugfix July 2018 build 013d7b7c2542+ Fri, 06 Jul 2018 19:26:36 +0100
REM compiler GCC version 9.2.1 20190827 (Red Hat 9.2.1-1)
REM options -cpp -mtune=generic -march=x86-64 -g -O0 -fpre-include=/usr/include/finclude/math-vector-fortran.h
REM seed -1811350687 -397005298 -968267857 564412080 -823844246 -639569151 -101198294 1051975688 -1215304685 1774500743 -1914408115 203266206 1566376477 1983801072 260391663 1306860664 671877938 1345753565 -1006880113 -1550834027 1987244503 183599368 -1912147738 971679874 338007872 754799946 1571654876 2083446109 -1234250677 1938423155 -24793962 -1419963771 1271946447
REM
CELL 1.54180   15.00000   15.00000   15.00000   90.00000   90.00000   90.00000
LATT -1
SFAC C  
C      1  0.3039500000000  0.3296420000000  0.5654310000000 1.0
C      1  0.3039500000000  0.3581560000000  0.3851810000000 1.0
C      1  0.3039500000000  0.5285140000000  0.3197500000000 1.0
C      1  0.3039500000000  0.6703580000000  0.4345690000000 1.0
C      1  0.3039500000000  0.6418440000000  0.6148190000000 1.0
C      1  0.3039500000000  0.4714860000000  0.6802500000000 1.0
C      1  0.6960500000000  0.3296420000000  0.5654310000000 1.0
C      1  0.6960500000000  0.3581560000000  0.3851810000000 1.0
C      1  0.6960500000000  0.5285140000000  0.3197500000000 1.0
C      1  0.6960500000000  0.6703580000000  0.4345690000000 1.0
C      1  0.6960500000000  0.6418440000000  0.6148190000000 1.0
C      1  0.6960500000000  0.4714860000000  0.6802500000000 1.0
C      1  0.4527430000000  0.4225840000000  0.6801280000000 1.0
C      1  0.4527430000000  0.3052970000000  0.5230190000000 1.0
C      1  0.4527430000000  0.3827150000000  0.3428930000000 1.0
C      1  0.4527430000000  0.5774160000000  0.3198720000000 1.0
C      1  0.4527430000000  0.6947030000000  0.4769810000000 1.0
C      1  0.4527430000000  0.6172850000000  0.6571070000000 1.0
C      1  0.5472570000000  0.4225840000000  0.6801280000000 1.0
C      1  0.5472570000000  0.3052970000000  0.5230190000000 1.0
C      1  0.5472570000000  0.3827150000000  0.3428930000000 1.0
C      1  0.5472570000000  0.5774160000000  0.3198720000000 1.0
C      1  0.5472570000000  0.6947030000000  0.4769810000000 1.0
C      1  0.5472570000000  0.6172850000000  0.6571070000000 1.0
C      1  0.3802420000000  0.3263900000000  0.3329840000000 1.0
C      1  0.3802420000000  0.5578340000000  0.2661390000000 1.0
C      1  0.3802420000000  0.7314470000000  0.4331580000000 1.0
C      1  0.3802420000000  0.6736100000000  0.6670160000000 1.0
C      1  0.3802420000000  0.4421660000000  0.7338610000000 1.0
C      1  0.3802420000000  0.2685530000000  0.5668420000000 1.0
C      1  0.6197580000000  0.3263900000000  0.3329840000000 1.0
C      1  0.6197580000000  0.5578340000000  0.2661390000000 1.0
C      1  0.6197580000000  0.7314470000000  0.4331580000000 1.0
C      1  0.6197580000000  0.6736100000000  0.6670160000000 1.0
C      1  0.6197580000000  0.4421660000000  0.7338610000000 1.0
C      1  0.6197580000000  0.2685530000000  0.5668420000000 1.0
C      1  0.3166020000000  0.3583620000000  0.4762640000000 1.0
C      1  0.3166020000000  0.4497380000000  0.3654710000000 1.0
C      1  0.3166020000000  0.5913750000000  0.3892070000000 1.0
C      1  0.3166020000000  0.6416380000000  0.5237360000000 1.0
C      1  0.3166020000000  0.5502620000000  0.6345290000000 1.0
C      1  0.3166020000000  0.4086250000000  0.6107940000000 1.0
C      1  0.6833980000000  0.3583620000000  0.4762640000000 1.0
C      1  0.6833980000000  0.4497380000000  0.3654710000000 1.0
C      1  0.6833980000000  0.5913750000000  0.3892070000000 1.0
C      1  0.6833980000000  0.6416380000000  0.5237360000000 1.0
C      1  0.6833980000000  0.5502620000000  0.6345290000000 1.0
C      1  0.6833980000000  0.4086250000000  0.6107940000000 1.0
C      1  0.4113620000000  0.4548310000000  0.4112600000000 1.0
C      1  0.4113620000000  0.5542680000000  0.4165110000000 1.0
C      1  0.4113620000000  0.5994370000000  0.5052520000000 1.0
C      1  0.4113620000000  0.5451690000000  0.5887400000000 1.0
C      1  0.4113620000000  0.4457320000000  0.5834890000000 1.0
C      1  0.4113620000000  0.4005630000000  0.4947480000000 1.0
C      1  0.5886380000000  0.4548310000000  0.4112600000000 1.0
C      1  0.5886380000000  0.5542680000000  0.4165110000000 1.0
C      1  0.5886380000000  0.5994370000000  0.5052520000000 1.0
C      1  0.5886380000000  0.5451690000000  0.5887400000000 1.0
C      1  0.5886380000000  0.4457320000000  0.5834890000000 1.0
C      1  0.5886380000000  0.4005630000000  0.4947480000000 1.0
END
