TITL C-2158988-7926-498 -0.00242781499926881 3375 -409.394988055617 0 0 60 (D6h) n - 1
REM
REM in /scratch/bkarasulu/868
REM
REM
REM
REM
REM
REM ./C.cell (a2850807a9bf4ad07a5b6933b78d9264)
REM AIRSS Version 0.9.1 bugfix July 2018 build 013d7b7c2542+ Fri, 06 Jul 2018 19:26:36 +0100
REM compiler GCC version 9.2.1 20190827 (Red Hat 9.2.1-1)
REM options -cpp -mtune=generic -march=x86-64 -g -O0 -fpre-include=/usr/include/finclude/math-vector-fortran.h
REM seed 582050335 -1565465994 1158150219 1228895603 -2077548821 -958544557 864657416 -186088422 -1427189655 229322338 1430103614 -1408130102 1329784900 -1890216354 -639824614 -363879880 1738396711 -469016654 1326365597 1787155674 1868965852 1225472316 -1953470764 -1318192276 2014499309 -1105156142 -228447983 1847343816 613021456 1623197376 -959214498 -609152444 -1119222986
REM
CELL 1.54180   15.00000   15.00000   15.00000   90.00000   90.00000   90.00000
LATT -1
SFAC C  
C      1  0.2976450000000  0.3822370000000  0.5489770000000 1.0
C      1  0.2968360000000  0.6163600000000  0.5489770000000 1.0
C      1  0.4991900000000  0.7341260000000  0.5489770000000 1.0
C      1  0.7023550000000  0.6177630000000  0.5489770000000 1.0
C      1  0.7031640000000  0.3836400000000  0.5489770000000 1.0
C      1  0.5008100000000  0.2658740000000  0.5489770000000 1.0
C      1  0.2976450000000  0.3822370000000  0.4510230000000 1.0
C      1  0.2968360000000  0.6163600000000  0.4510230000000 1.0
C      1  0.4991900000000  0.7341250000000  0.4510230000000 1.0
C      1  0.7023550000000  0.6177630000000  0.4510230000000 1.0
C      1  0.7031640000000  0.3836400000000  0.4510230000000 1.0
C      1  0.5008100000000  0.2658740000000  0.4510230000000 1.0
C      1  0.4065410000000  0.7146630000000  0.5489760000000 1.0
C      1  0.6391750000000  0.6882680000000  0.5489760000000 1.0
C      1  0.7326370000000  0.4736060000000  0.5489770000000 1.0
C      1  0.5934590000000  0.2853370000000  0.5489760000000 1.0
C      1  0.3608250000000  0.3117320000000  0.5489760000000 1.0
C      1  0.2673630000000  0.5263940000000  0.5489770000000 1.0
C      1  0.4065410000000  0.7146630000000  0.4510240000000 1.0
C      1  0.6391750000000  0.6882680000000  0.4510240000000 1.0
C      1  0.7326370000000  0.4736060000000  0.4510230000000 1.0
C      1  0.5934590000000  0.2853370000000  0.4510240000000 1.0
C      1  0.3608250000000  0.3117320000000  0.4510240000000 1.0
C      1  0.2673630000000  0.5263940000000  0.4510230000000 1.0
C      1  0.5293360000000  0.5895570000000  0.2449800000000 1.0
C      1  0.5922270000000  0.5193730000000  0.2449800000000 1.0
C      1  0.5628910000000  0.4298160000000  0.2449800000000 1.0
C      1  0.4706640000000  0.4104430000000  0.2449800000000 1.0
C      1  0.4077730000000  0.4806270000000  0.2449800000000 1.0
C      1  0.4371090000000  0.5701840000000  0.2449800000000 1.0
C      1  0.5293360000000  0.5895570000000  0.7550200000000 1.0
C      1  0.5922270000000  0.5193730000000  0.7550200000000 1.0
C      1  0.5628910000000  0.4298160000000  0.7550200000000 1.0
C      1  0.4706640000000  0.4104430000000  0.7550200000000 1.0
C      1  0.4077730000000  0.4806270000000  0.7550200000000 1.0
C      1  0.4371090000000  0.5701840000000  0.7550200000000 1.0
C      1  0.4296600000000  0.5784970000000  0.6518960000000 1.0
C      1  0.5328110000000  0.6001650000000  0.6518960000000 1.0
C      1  0.6031520000000  0.5216670000000  0.6518960000000 1.0
C      1  0.5703400000000  0.4215030000000  0.6518960000000 1.0
C      1  0.4671890000000  0.3998350000000  0.6518960000000 1.0
C      1  0.3968480000000  0.4783330000000  0.6518960000000 1.0
C      1  0.4296600000000  0.5784970000000  0.3481040000000 1.0
C      1  0.5328110000000  0.6001650000000  0.3481040000000 1.0
C      1  0.6031520000000  0.5216670000000  0.3481040000000 1.0
C      1  0.5703400000000  0.4215030000000  0.3481040000000 1.0
C      1  0.4671890000000  0.3998350000000  0.3481040000000 1.0
C      1  0.3968480000000  0.4783330000000  0.3481040000000 1.0
C      1  0.3104880000000  0.4601930000000  0.4018320000000 1.0
C      1  0.3707720000000  0.6442150000000  0.4018340000000 1.0
C      1  0.5602810000000  0.6840230000000  0.4018330000000 1.0
C      1  0.6895120000000  0.5398070000000  0.4018320000000 1.0
C      1  0.6292280000000  0.3557850000000  0.4018340000000 1.0
C      1  0.4397190000000  0.3159770000000  0.4018330000000 1.0
C      1  0.3104880000000  0.4601930000000  0.5981680000000 1.0
C      1  0.3707720000000  0.6442150000000  0.5981660000000 1.0
C      1  0.5602810000000  0.6840230000000  0.5981670000000 1.0
C      1  0.6895120000000  0.5398070000000  0.5981680000000 1.0
C      1  0.6292280000000  0.3557850000000  0.5981660000000 1.0
C      1  0.4397190000000  0.3159770000000  0.5981670000000 1.0
END
