TITL C-2159255-4746-728 -0.00148233079536563 3375 -399.030634663275 0 0 60 (D2) n - 1
REM
REM in /scratch/bkarasulu/871
REM
REM
REM
REM
REM
REM ./C.cell (a2850807a9bf4ad07a5b6933b78d9264)
REM AIRSS Version 0.9.1 bugfix July 2018 build 013d7b7c2542+ Fri, 06 Jul 2018 19:26:36 +0100
REM compiler GCC version 9.2.1 20190827 (Red Hat 9.2.1-1)
REM options -cpp -mtune=generic -march=x86-64 -g -O0 -fpre-include=/usr/include/finclude/math-vector-fortran.h
REM seed 1281063123 -1173943551 -1252515319 1470341403 564427007 230186497 -400600575 385201701 2095965065 914761104 896457918 -302114426 -127829045 -2121283395 605618577 -398894703 932520487 -544456131 -1197855291 -1988826970 1260722207 -356724622 1983210009 1198273393 1737716859 -82801033 -752801509 -159163037 -745171899 1849973694 -1617253190 -1418842331 -1318807398
REM
CELL 1.54180   15.00000   15.00000   15.00000   90.00000   90.00000   90.00000
LATT -1
SFAC C  
C      1  0.6866420000000  0.4442480000000  0.3825510000000 1.0
C      1  0.4562430000000  0.3786760000000  0.6907700000000 1.0
C      1  0.3992890000000  0.6723730000000  0.4540010000000 1.0
C      1  0.6866360000000  0.5558320000000  0.6174190000000 1.0
C      1  0.3133830000000  0.4441610000000  0.6174460000000 1.0
C      1  0.3133400000000  0.5557590000000  0.3825840000000 1.0
C      1  0.4561600000000  0.6213050000000  0.3092370000000 1.0
C      1  0.5438090000000  0.3787070000000  0.3092230000000 1.0
C      1  0.5437880000000  0.6213120000000  0.6907700000000 1.0
C      1  0.3993710000000  0.3275840000000  0.5460150000000 1.0
C      1  0.6006360000000  0.6724130000000  0.5460090000000 1.0
C      1  0.6007030000000  0.3276300000000  0.4539750000000 1.0
C      1  0.3165030000000  0.4501410000000  0.3937250000000 1.0
C      1  0.5563570000000  0.3814980000000  0.6860030000000 1.0
C      1  0.6223280000000  0.6909940000000  0.4483090000000 1.0
C      1  0.3164980000000  0.5497800000000  0.6063040000000 1.0
C      1  0.6835190000000  0.4502140000000  0.6062720000000 1.0
C      1  0.6834800000000  0.5498650000000  0.3936980000000 1.0
C      1  0.5562760000000  0.6185260000000  0.3139880000000 1.0
C      1  0.4436940000000  0.3814850000000  0.3139900000000 1.0
C      1  0.4436730000000  0.6184910000000  0.6860190000000 1.0
C      1  0.6224190000000  0.3090590000000  0.5516720000000 1.0
C      1  0.3775890000000  0.6909380000000  0.5517030000000 1.0
C      1  0.3776630000000  0.3090090000000  0.4483170000000 1.0
C      1  0.4438110000000  0.3132620000000  0.3829100000000 1.0
C      1  0.3041260000000  0.3759600000000  0.4536990000000 1.0
C      1  0.3783810000000  0.4465290000000  0.3138210000000 1.0
C      1  0.4437490000000  0.6867140000000  0.6170990000000 1.0
C      1  0.5562690000000  0.3132790000000  0.6170790000000 1.0
C      1  0.5561700000000  0.6867450000000  0.3829120000000 1.0
C      1  0.3040800000000  0.6239550000000  0.5463320000000 1.0
C      1  0.6959280000000  0.3760420000000  0.5462940000000 1.0
C      1  0.6958670000000  0.6240430000000  0.4536750000000 1.0
C      1  0.3783880000000  0.5534180000000  0.6861980000000 1.0
C      1  0.6216420000000  0.4465710000000  0.6861760000000 1.0
C      1  0.6215890000000  0.5534820000000  0.3138050000000 1.0
C      1  0.5430850000000  0.3084250000000  0.3785610000000 1.0
C      1  0.6877080000000  0.3784380000000  0.4446320000000 1.0
C      1  0.6028860000000  0.4535720000000  0.3274520000000 1.0
C      1  0.5430220000000  0.6915930000000  0.6214320000000 1.0
C      1  0.4569980000000  0.3084000000000  0.6214280000000 1.0
C      1  0.4568960000000  0.6915820000000  0.3785790000000 1.0
C      1  0.6876640000000  0.6216430000000  0.5553380000000 1.0
C      1  0.3123450000000  0.3783530000000  0.5553610000000 1.0
C      1  0.3122830000000  0.6215660000000  0.4446690000000 1.0
C      1  0.6028940000000  0.5464730000000  0.6725310000000 1.0
C      1  0.3971340000000  0.4535170000000  0.6725450000000 1.0
C      1  0.3970860000000  0.5464390000000  0.3274710000000 1.0
C      1  0.4563230000000  0.5227150000000  0.4074190000000 1.0
C      1  0.5453280000000  0.4092050000000  0.4802870000000 1.0
C      1  0.3958690000000  0.5328850000000  0.5377180000000 1.0
C      1  0.4563470000000  0.4772670000000  0.5925880000000 1.0
C      1  0.4546690000000  0.5907960000000  0.4802990000000 1.0
C      1  0.6041170000000  0.5329320000000  0.4622840000000 1.0
C      1  0.3958770000000  0.4670710000000  0.4622980000000 1.0
C      1  0.6041370000000  0.4671130000000  0.5377000000000 1.0
C      1  0.5436680000000  0.5227280000000  0.5925820000000 1.0
C      1  0.5436630000000  0.4772910000000  0.4074110000000 1.0
C      1  0.5452920000000  0.5908140000000  0.5197060000000 1.0
C      1  0.4547120000000  0.4091850000000  0.5197080000000 1.0
END
