TITL C-2158988-7926-907 -0.00161091580468658 3375 -407.835607120675 0 0 60 (C6) n - 1
REM
REM in /scratch/bkarasulu/868
REM
REM
REM
REM
REM
REM ./C.cell (a2850807a9bf4ad07a5b6933b78d9264)
REM AIRSS Version 0.9.1 bugfix July 2018 build 013d7b7c2542+ Fri, 06 Jul 2018 19:26:36 +0100
REM compiler GCC version 9.2.1 20190827 (Red Hat 9.2.1-1)
REM options -cpp -mtune=generic -march=x86-64 -g -O0 -fpre-include=/usr/include/finclude/math-vector-fortran.h
REM seed -980125143 -1249568323 -280063060 -1757034706 583029587 2025130941 1184692305 1886230827 -294323959 -52567448 -1163747205 -1369340073 -690345293 -1997342309 -1238857602 -952671192 309574276 242446651 -638525194 1398669943 -99554104 -236230057 1706929993 -146147947 104339941 1228032397 -750612196 1492672922 -1547207261 1910952054 -622267903 -1012710925 381736908
REM
CELL 1.54180   15.00000   15.00000   15.00000   90.00000   90.00000   90.00000
LATT -1
SFAC C  
C      1  0.5150790000000  0.4909960000000  0.5914300000000 1.0
C      1  0.5867200000000  0.4909950000000  0.5326560000000 1.0
C      1  0.5716400000000  0.4909940000000  0.4412260000000 1.0
C      1  0.4849210000000  0.4909960000000  0.4085700000000 1.0
C      1  0.4132800000000  0.4909950000000  0.4673440000000 1.0
C      1  0.4283600000000  0.4909940000000  0.5587740000000 1.0
C      1  0.5300720000000  0.4848640000000  0.6903690000000 1.0
C      1  0.6799000000000  0.4848640000000  0.5691410000000 1.0
C      1  0.6498270000000  0.4848640000000  0.3787730000000 1.0
C      1  0.4699280000000  0.4848640000000  0.3096310000000 1.0
C      1  0.3201000000000  0.4848640000000  0.4308590000000 1.0
C      1  0.3501730000000  0.4848640000000  0.6212270000000 1.0
C      1  0.7544400000000  0.6241970000000  0.5506510000000 1.0
C      1  0.6710820000000  0.6241980000000  0.3049760000000 1.0
C      1  0.4166450000000  0.6241980000000  0.2543230000000 1.0
C      1  0.2455600000000  0.6241970000000  0.4493490000000 1.0
C      1  0.3289180000000  0.6241980000000  0.6950240000000 1.0
C      1  0.5833550000000  0.6241980000000  0.7456770000000 1.0
C      1  0.4131910000000  0.6649570000000  0.4557990000000 1.0
C      1  0.4183170000000  0.6649570000000  0.5530780000000 1.0
C      1  0.5051260000000  0.6649570000000  0.5972790000000 1.0
C      1  0.5868090000000  0.6649570000000  0.5442010000000 1.0
C      1  0.5816830000000  0.6649570000000  0.4469220000000 1.0
C      1  0.4948740000000  0.6649570000000  0.4027210000000 1.0
C      1  0.3627130000000  0.3883920000000  0.6097900000000 1.0
C      1  0.5264370000000  0.3883920000000  0.6737900000000 1.0
C      1  0.6637240000000  0.3883920000000  0.5639990000000 1.0
C      1  0.6372870000000  0.3883920000000  0.3902100000000 1.0
C      1  0.4735630000000  0.3883920000000  0.3262100000000 1.0
C      1  0.3362760000000  0.3883920000000  0.4360010000000 1.0
C      1  0.4427240000000  0.3446330000000  0.6473640000000 1.0
C      1  0.5989830000000  0.3446330000000  0.6232840000000 1.0
C      1  0.6562590000000  0.3446330000000  0.4759200000000 1.0
C      1  0.5572760000000  0.3446330000000  0.3526360000000 1.0
C      1  0.4010170000000  0.3446330000000  0.3767160000000 1.0
C      1  0.3437410000000  0.3446330000000  0.5240800000000 1.0
C      1  0.3294720000000  0.6370350000000  0.4114610000000 1.0
C      1  0.3380600000000  0.6370360000000  0.6034100000000 1.0
C      1  0.5085870000000  0.6370350000000  0.6919510000000 1.0
C      1  0.6705280000000  0.6370350000000  0.5885390000000 1.0
C      1  0.6619400000000  0.6370360000000  0.3965900000000 1.0
C      1  0.4914130000000  0.6370350000000  0.3080490000000 1.0
C      1  0.4625000000000  0.5508470000000  0.7194690000000 1.0
C      1  0.6713130000000  0.5508470000000  0.6422100000000 1.0
C      1  0.7088150000000  0.5508470000000  0.4227430000000 1.0
C      1  0.5375000000000  0.5508470000000  0.2805310000000 1.0
C      1  0.3286870000000  0.5508470000000  0.3577900000000 1.0
C      1  0.2911850000000  0.5508470000000  0.5772570000000 1.0
C      1  0.3888700000000  0.5418710000000  0.2882410000000 1.0
C      1  0.2610450000000  0.5418700000000  0.4903620000000 1.0
C      1  0.3721770000000  0.5418710000000  0.7021210000000 1.0
C      1  0.6111300000000  0.5418710000000  0.7117590000000 1.0
C      1  0.7389550000000  0.5418700000000  0.5096380000000 1.0
C      1  0.6278230000000  0.5418710000000  0.2978790000000 1.0
C      1  0.4062990000000  0.2722080000000  0.5145140000000 1.0
C      1  0.4657190000000  0.2722080000000  0.5884050000000 1.0
C      1  0.5594200000000  0.2722080000000  0.5738900000000 1.0
C      1  0.5937010000000  0.2722080000000  0.4854860000000 1.0
C      1  0.5342810000000  0.2722080000000  0.4115950000000 1.0
C      1  0.4405800000000  0.2722080000000  0.4261100000000 1.0
END
