TITL C-2158984-8299-438 -0.0020397783900557 3375 -404.829303679 0 0 60 (C4h) n - 1
REM
REM in /scratch/bkarasulu/869
REM
REM
REM
REM
REM
REM ./C.cell (a2850807a9bf4ad07a5b6933b78d9264)
REM AIRSS Version 0.9.1 bugfix July 2018 build 013d7b7c2542+ Fri, 06 Jul 2018 19:26:36 +0100
REM compiler GCC version 9.2.1 20190827 (Red Hat 9.2.1-1)
REM options -cpp -mtune=generic -march=x86-64 -g -O0 -fpre-include=/usr/include/finclude/math-vector-fortran.h
REM seed -640266620 1823464797 933466874 1296709074 -593220016 -960720417 848537987 -181551777 -1488346754 -78696699 -852244412 -668780120 -2026196095 -269349134 2140292564 188522240 -355734854 195709833 1235254852 -116521026 -1688956175 -466768794 -997569328 1477283647 -405521408 1008815786 -2071356730 1526097828 -33511180 -455115382 -968230143 -453205551 845954864
REM
CELL 1.54180   15.00000   15.00000   15.00000   90.00000   90.00000   90.00000
LATT -1
SFAC C  
C      1  0.6017750000000  0.3373530000000  0.5017230000000 1.0
C      1  0.6017750000000  0.5017230000000  0.6626470000000 1.0
C      1  0.6017750000000  0.6626470000000  0.4982770000000 1.0
C      1  0.6017750000000  0.4982770000000  0.3373530000000 1.0
C      1  0.3922640000000  0.3373530000000  0.5017250000000 1.0
C      1  0.3922640000000  0.4982750000000  0.3373530000000 1.0
C      1  0.3922640000000  0.6626470000000  0.4982750000000 1.0
C      1  0.3922650000000  0.5017250000000  0.6626470000000 1.0
C      1  0.3515750000000  0.6775950000000  0.5811400000000 1.0
C      1  0.3515750000000  0.5811400000000  0.3224060000000 1.0
C      1  0.3515750000000  0.3224060000000  0.4188610000000 1.0
C      1  0.3515750000000  0.4188600000000  0.6775950000000 1.0
C      1  0.6466520000000  0.6769150000000  0.4171420000000 1.0
C      1  0.6466520000000  0.5828580000000  0.6769150000000 1.0
C      1  0.6466520000000  0.3230850000000  0.5828570000000 1.0
C      1  0.6466510000000  0.4171420000000  0.3230850000000 1.0
C      1  0.5464900000000  0.5745380000000  0.4978850000000 1.0
C      1  0.5464900000000  0.4978850000000  0.4254620000000 1.0
C      1  0.5464900000000  0.4254620000000  0.5021150000000 1.0
C      1  0.5464900000000  0.5021150000000  0.5745380000000 1.0
C      1  0.4475500000000  0.5745380000000  0.4978840000000 1.0
C      1  0.4475500000000  0.5021160000000  0.5745380000000 1.0
C      1  0.4475500000000  0.4254620000000  0.5021160000000 1.0
C      1  0.4475500000000  0.4978840000000  0.4254620000000 1.0
C      1  0.4103050000000  0.3421680000000  0.6570160000000 1.0
C      1  0.4103050000000  0.6570160000000  0.6578320000000 1.0
C      1  0.4103040000000  0.6578320000000  0.3429840000000 1.0
C      1  0.4103040000000  0.3429840000000  0.3421680000000 1.0
C      1  0.5837350000000  0.3429850000000  0.3421670000000 1.0
C      1  0.5837350000000  0.6578330000000  0.3429850000000 1.0
C      1  0.5837350000000  0.6570150000000  0.6578330000000 1.0
C      1  0.5837350000000  0.3421670000000  0.6570150000000 1.0
C      1  0.7530190000000  0.4493500000000  0.4514420000000 1.0
C      1  0.7530190000000  0.4514430000000  0.5506490000000 1.0
C      1  0.7530190000000  0.5506490000000  0.5485570000000 1.0
C      1  0.7530190000000  0.5485570000000  0.4493500000000 1.0
C      1  0.2410200000000  0.4514440000000  0.5506510000000 1.0
C      1  0.2410200000000  0.4493500000000  0.4514440000000 1.0
C      1  0.2410200000000  0.5485560000000  0.4493500000000 1.0
C      1  0.2410200000000  0.5506510000000  0.5485570000000 1.0
C      1  0.3473870000000  0.5828590000000  0.6769140000000 1.0
C      1  0.3473870000000  0.6769140000000  0.4171410000000 1.0
C      1  0.3473870000000  0.4171410000000  0.3230860000000 1.0
C      1  0.3473870000000  0.3230860000000  0.5828600000000 1.0
C      1  0.6424650000000  0.5811410000000  0.3224060000000 1.0
C      1  0.6424650000000  0.6775930000000  0.5811410000000 1.0
C      1  0.6424650000000  0.4188580000000  0.6775930000000 1.0
C      1  0.6424650000000  0.3224070000000  0.4188580000000 1.0
C      1  0.2839260000000  0.6066540000000  0.3898400000000 1.0
C      1  0.2839250000000  0.3898400000000  0.3933460000000 1.0
C      1  0.2839260000000  0.3933460000000  0.6101600000000 1.0
C      1  0.2839260000000  0.6101600000000  0.6066540000000 1.0
C      1  0.7101140000000  0.6101580000000  0.6066560000000 1.0
C      1  0.7101140000000  0.3933440000000  0.6101580000000 1.0
C      1  0.7101140000000  0.3898420000000  0.3933440000000 1.0
C      1  0.7101140000000  0.6066560000000  0.3898410000000 1.0
C      1  0.4970200000000  0.6622460000000  0.6758750000000 1.0
C      1  0.4970200000000  0.6758750000000  0.3377540000000 1.0
C      1  0.4970200000000  0.3241250000000  0.6622450000000 1.0
C      1  0.4970190000000  0.3377550000000  0.3241250000000 1.0
END
