TITL C-2159252-5904-217 -0.00198620199805779 3375 -422.736338999029 0 0 60 (C1) n - 1
REM
REM in /scratch/bkarasulu/870
REM
REM
REM
REM
REM
REM ./C.cell (a2850807a9bf4ad07a5b6933b78d9264)
REM AIRSS Version 0.9.1 bugfix July 2018 build 013d7b7c2542+ Fri, 06 Jul 2018 19:26:36 +0100
REM compiler GCC version 9.2.1 20190827 (Red Hat 9.2.1-1)
REM options -cpp -mtune=generic -march=x86-64 -g -O0 -fpre-include=/usr/include/finclude/math-vector-fortran.h
REM seed 1511975126 -2143902842 728535480 2134960708 -403899610 195982432 541951803 -1336520735 -964920079 414033915 -912783879 -1075244602 416996805 -907045982 823253152 -1652911236 727578366 2061121490 474124869 -1525657344 63953265 -475792864 1748382391 1752589339 -1144317399 1451724687 -544584901 -1873304410 -1638845608 -1169325998 27501793 -1230589765 657099365
REM
CELL 1.54180   15.00000   15.00000   15.00000   90.00000   90.00000   90.00000
LATT -1
SFAC C  
C      1  0.6154320000000  0.3219640000000  0.6766530000000 1.0
C      1  0.5109420000000  0.5375380000000  0.7189140000000 1.0
C      1  0.3246470000000  0.5815120000000  0.5514040000000 1.0
C      1  0.6641940000000  0.6932050000000  0.5975450000000 1.0
C      1  0.5361090000000  0.5353280000000  0.5733460000000 1.0
C      1  0.3707230000000  0.5860050000000  0.3134400000000 1.0
C      1  0.4183120000000  0.6978680000000  0.5092930000000 1.0
C      1  0.6326620000000  0.4155750000000  0.6934300000000 1.0
C      1  0.5175410000000  0.3100380000000  0.6763230000000 1.0
C      1  0.3668920000000  0.5026550000000  0.2692020000000 1.0
C      1  0.4709950000000  0.5905100000000  0.2937240000000 1.0
C      1  0.4793460000000  0.3884870000000  0.7113000000000 1.0
C      1  0.2826840000000  0.4284540000000  0.3836680000000 1.0
C      1  0.5757500000000  0.2640290000000  0.5428830000000 1.0
C      1  0.5350450000000  0.3082420000000  0.3795440000000 1.0
C      1  0.5388700000000  0.6235710000000  0.3492360000000 1.0
C      1  0.5699560000000  0.3713220000000  0.3120500000000 1.0
C      1  0.5800590000000  0.7375960000000  0.5980800000000 1.0
C      1  0.2765940000000  0.5069490000000  0.5169950000000 1.0
C      1  0.4188560000000  0.5275720000000  0.6827860000000 1.0
C      1  0.4037840000000  0.4327100000000  0.6708070000000 1.0
C      1  0.4125820000000  0.3633910000000  0.3062640000000 1.0
C      1  0.6443530000000  0.2707900000000  0.6072610000000 1.0
C      1  0.6905390000000  0.6775410000000  0.5061870000000 1.0
C      1  0.3210620000000  0.5943870000000  0.3952940000000 1.0
C      1  0.6568560000000  0.6132800000000  0.6472640000000 1.0
C      1  0.5157950000000  0.4706280000000  0.4305010000000 1.0
C      1  0.7146410000000  0.5806870000000  0.5019900000000 1.0
C      1  0.3499720000000  0.6375800000000  0.4782490000000 1.0
C      1  0.4895550000000  0.4084890000000  0.2675210000000 1.0
C      1  0.5614210000000  0.6046420000000  0.6750590000000 1.0
C      1  0.7030770000000  0.5443040000000  0.5958320000000 1.0
C      1  0.4641890000000  0.5007410000000  0.2539650000000 1.0
C      1  0.3037590000000  0.3686200000000  0.4546270000000 1.0
C      1  0.5771220000000  0.3179110000000  0.4647440000000 1.0
C      1  0.3824660000000  0.3131990000000  0.4582600000000 1.0
C      1  0.6275790000000  0.7230790000000  0.4494330000000 1.0
C      1  0.5525360000000  0.7076430000000  0.3888820000000 1.0
C      1  0.2971040000000  0.4171250000000  0.5369560000000 1.0
C      1  0.6971310000000  0.4787730000000  0.3567810000000 1.0
C      1  0.6778280000000  0.5427460000000  0.4212920000000 1.0
C      1  0.6654090000000  0.4601840000000  0.6148200000000 1.0
C      1  0.5804160000000  0.4509720000000  0.5668120000000 1.0
C      1  0.4296430000000  0.4771900000000  0.4417220000000 1.0
C      1  0.2697850000000  0.5164180000000  0.4213300000000 1.0
C      1  0.4337510000000  0.6732210000000  0.6031740000000 1.0
C      1  0.6520780000000  0.4144960000000  0.3200800000000 1.0
C      1  0.3839800000000  0.5950140000000  0.6254000000000 1.0
C      1  0.4378310000000  0.3086320000000  0.3787310000000 1.0
C      1  0.5678600000000  0.4093250000000  0.4860440000000 1.0
C      1  0.4893860000000  0.7418160000000  0.4611100000000 1.0
C      1  0.3378260000000  0.4225620000000  0.3083030000000 1.0
C      1  0.3644490000000  0.3861660000000  0.5968850000000 1.0
C      1  0.5535950000000  0.5947440000000  0.5094090000000 1.0
C      1  0.4902470000000  0.2777170000000  0.5922040000000 1.0
C      1  0.5166310000000  0.6856920000000  0.6443630000000 1.0
C      1  0.5733670000000  0.5573170000000  0.4211740000000 1.0
C      1  0.4123500000000  0.3153600000000  0.5505600000000 1.0
C      1  0.5481630000000  0.4506900000000  0.7288660000000 1.0
C      1  0.5642750000000  0.7658010000000  0.5120210000000 1.0
END
