TITL C-2158988-7926-101 -0.00187799875701146 3375 -392.306297343181 0 0 60 (Ci) n - 1
REM
REM in /scratch/bkarasulu/868
REM
REM
REM
REM
REM
REM ./C.cell (a2850807a9bf4ad07a5b6933b78d9264)
REM AIRSS Version 0.9.1 bugfix July 2018 build 013d7b7c2542+ Fri, 06 Jul 2018 19:26:36 +0100
REM compiler GCC version 9.2.1 20190827 (Red Hat 9.2.1-1)
REM options -cpp -mtune=generic -march=x86-64 -g -O0 -fpre-include=/usr/include/finclude/math-vector-fortran.h
REM seed -1277065545 82142403 -2106439125 -1386729916 717187010 1143450235 -149941680 423873920 1035819527 1831332098 622715125 -1092728157 872577841 1231840826 -2089041476 -729465920 1831000057 -1744811264 -504666738 1662971633 1458548094 782966164 259079786 41466822 -982084563 75605691 -1396660298 -156246448 -738770478 1205364485 1334211410 -635904067 -1892742492
REM
CELL 1.54180   15.00000   15.00000   15.00000   90.00000   90.00000   90.00000
LATT -1
SFAC C  
C      1  0.5571230000000  0.5049500000000  0.5612750000000 1.0
C      1  0.4284540000000  0.4447000000000  0.5857350000000 1.0
C      1  0.5486040000000  0.4288570000000  0.5011330000000 1.0
C      1  0.4455550000000  0.4148390000000  0.4987340000000 1.0
C      1  0.5349880000000  0.4673580000000  0.4111380000000 1.0
C      1  0.4428770000000  0.4950500000000  0.4387250000000 1.0
C      1  0.5715460000000  0.5553000000000  0.4142650000000 1.0
C      1  0.4513960000000  0.5711430000000  0.4988670000000 1.0
C      1  0.5544450000000  0.5851610000000  0.5012660000000 1.0
C      1  0.4650120000000  0.5326420000000  0.5888620000000 1.0
C      1  0.3492510000000  0.6045380000000  0.3892630000000 1.0
C      1  0.6640130000000  0.6634820000000  0.4596960000000 1.0
C      1  0.3432260000000  0.6502010000000  0.5745400000000 1.0
C      1  0.6464980000000  0.5852290000000  0.6336420000000 1.0
C      1  0.3368450000000  0.4932160000000  0.6695000000000 1.0
C      1  0.6507490000000  0.3954620000000  0.6107370000000 1.0
C      1  0.3359870000000  0.3365180000000  0.5403040000000 1.0
C      1  0.6567740000000  0.3497990000000  0.4254600000000 1.0
C      1  0.3535020000000  0.4147710000000  0.3663580000000 1.0
C      1  0.6631550000000  0.5067840000000  0.3305000000000 1.0
C      1  0.6604020000000  0.4098780000000  0.3539010000000 1.0
C      1  0.3734710000000  0.5088980000000  0.3645340000000 1.0
C      1  0.6516570000000  0.5897820000000  0.3784830000000 1.0
C      1  0.3747040000000  0.6365990000000  0.4779770000000 1.0
C      1  0.6270190000000  0.6413950000000  0.5464600000000 1.0
C      1  0.3395980000000  0.5901220000000  0.6460990000000 1.0
C      1  0.6265290000000  0.4911020000000  0.6354660000000 1.0
C      1  0.3483430000000  0.4102180000000  0.6215170000000 1.0
C      1  0.6252960000000  0.3634010000000  0.5220230000000 1.0
C      1  0.3729810000000  0.3586050000000  0.4535400000000 1.0
C      1  0.5856510000000  0.3635000000000  0.6760040000000 1.0
C      1  0.4016440000000  0.2805510000000  0.5798800000000 1.0
C      1  0.5894270000000  0.2770660000000  0.4229630000000 1.0
C      1  0.4184590000000  0.3632220000000  0.3180270000000 1.0
C      1  0.5889050000000  0.4881300000000  0.2634290000000 1.0
C      1  0.4143490000000  0.6365000000000  0.3239960000000 1.0
C      1  0.5983560000000  0.7194490000000  0.4201200000000 1.0
C      1  0.4105730000000  0.7229340000000  0.5770370000000 1.0
C      1  0.5815410000000  0.6367780000000  0.6819730000000 1.0
C      1  0.4110950000000  0.5118700000000  0.7365710000000 1.0
C      1  0.4272520000000  0.7247080000000  0.4824010000000 1.0
C      1  0.5777130000000  0.7050960000000  0.6060910000000 1.0
C      1  0.4085860000000  0.6056090000000  0.7169320000000 1.0
C      1  0.5690480000000  0.4518390000000  0.7135030000000 1.0
C      1  0.4175480000000  0.3379820000000  0.6594100000000 1.0
C      1  0.5727480000000  0.2752920000000  0.5175990000000 1.0
C      1  0.4222870000000  0.2949040000000  0.3939090000000 1.0
C      1  0.5914140000000  0.3943910000000  0.2830680000000 1.0
C      1  0.4309520000000  0.5481610000000  0.2864970000000 1.0
C      1  0.5824520000000  0.6620180000000  0.3405900000000 1.0
C      1  0.5148580000000  0.2823710000000  0.3705410000000 1.0
C      1  0.5120320000000  0.3448840000000  0.2964500000000 1.0
C      1  0.5071170000000  0.5230840000000  0.2493750000000 1.0
C      1  0.4883480000000  0.6892200000000  0.3439840000000 1.0
C      1  0.5021770000000  0.7377790000000  0.4295150000000 1.0
C      1  0.4851420000000  0.7176290000000  0.6294590000000 1.0
C      1  0.4879680000000  0.6551160000000  0.7035500000000 1.0
C      1  0.4928830000000  0.4769160000000  0.7506250000000 1.0
C      1  0.5116520000000  0.3107800000000  0.6560160000000 1.0
C      1  0.4978230000000  0.2622210000000  0.5704850000000 1.0
END
