TITL C-2159255-4746-421 -0.00337920869554022 3375 -427.623216301848 0 0 60 (C1) n - 1
REM
REM in /scratch/bkarasulu/871
REM
REM
REM
REM
REM
REM ./C.cell (a2850807a9bf4ad07a5b6933b78d9264)
REM AIRSS Version 0.9.1 bugfix July 2018 build 013d7b7c2542+ Fri, 06 Jul 2018 19:26:36 +0100
REM compiler GCC version 9.2.1 20190827 (Red Hat 9.2.1-1)
REM options -cpp -mtune=generic -march=x86-64 -g -O0 -fpre-include=/usr/include/finclude/math-vector-fortran.h
REM seed -181918898 -1170460080 -498173969 -700990735 -340300866 -1589155868 1680914902 641642789 170016315 -1796379105 -2029078493 1081396598 -487496494 -445949203 -190928806 626688961 422562758 875596606 727246820 733926356 -645847371 860790277 -1429936194 -738279290 -1912722003 -2100716053 -1343373316 567212031 -1802189961 -2037367487 -327273085 -1770747787 -315494014
REM
CELL 1.54180   15.00000   15.00000   15.00000   90.00000   90.00000   90.00000
LATT -1
SFAC C  
C      1  0.3231600000000  0.6745510000000  0.4524230000000 1.0
C      1  0.3414970000000  0.6543360000000  0.6081040000000 1.0
C      1  0.4793750000000  0.6382790000000  0.6770320000000 1.0
C      1  0.6193040000000  0.6321710000000  0.6161190000000 1.0
C      1  0.6715760000000  0.6301250000000  0.4736530000000 1.0
C      1  0.5920010000000  0.6378280000000  0.3425590000000 1.0
C      1  0.4374150000000  0.6630290000000  0.3342650000000 1.0
C      1  0.6092210000000  0.7030230000000  0.4802260000000 1.0
C      1  0.5712430000000  0.7143470000000  0.3936040000000 1.0
C      1  0.4796400000000  0.7368630000000  0.3802060000000 1.0
C      1  0.3766980000000  0.7455260000000  0.4887670000000 1.0
C      1  0.3958990000000  0.7264400000000  0.5806770000000 1.0
C      1  0.4851530000000  0.7096810000000  0.6125410000000 1.0
C      1  0.5710200000000  0.7009570000000  0.5685130000000 1.0
C      1  0.5601590000000  0.2418130000000  0.4075610000000 1.0
C      1  0.4660170000000  0.2468260000000  0.4002360000000 1.0
C      1  0.4020010000000  0.2481540000000  0.4691630000000 1.0
C      1  0.4148810000000  0.2448300000000  0.5626770000000 1.0
C      1  0.4960030000000  0.2412630000000  0.6110360000000 1.0
C      1  0.5843810000000  0.2391090000000  0.5770220000000 1.0
C      1  0.6129550000000  0.2388000000000  0.4865470000000 1.0
C      1  0.3593500000000  0.3120640000000  0.6023930000000 1.0
C      1  0.4916720000000  0.3053040000000  0.6824590000000 1.0
C      1  0.6381260000000  0.3012520000000  0.6266770000000 1.0
C      1  0.6860980000000  0.3000730000000  0.4771780000000 1.0
C      1  0.5983840000000  0.3055200000000  0.3468580000000 1.0
C      1  0.4436290000000  0.3161730000000  0.3376300000000 1.0
C      1  0.3400960000000  0.3186990000000  0.4499920000000 1.0
C      1  0.5835200000000  0.5113210000000  0.7240770000000 1.0
C      1  0.7303440000000  0.5102440000000  0.5751250000000 1.0
C      1  0.7023250000000  0.5080550000000  0.3646560000000 1.0
C      1  0.5058280000000  0.5192180000000  0.2729530000000 1.0
C      1  0.3420650000000  0.5389460000000  0.3635810000000 1.0
C      1  0.2829150000000  0.5310680000000  0.5228420000000 1.0
C      1  0.3715190000000  0.5155780000000  0.7028080000000 1.0
C      1  0.5096170000000  0.6051300000000  0.3025670000000 1.0
C      1  0.3537060000000  0.6296060000000  0.3706100000000 1.0
C      1  0.2958620000000  0.6204080000000  0.5291010000000 1.0
C      1  0.3894910000000  0.6013860000000  0.6763160000000 1.0
C      1  0.5648950000000  0.5926820000000  0.6854010000000 1.0
C      1  0.6870960000000  0.5904210000000  0.5603430000000 1.0
C      1  0.6658510000000  0.5893150000000  0.3860200000000 1.0
C      1  0.7042840000000  0.3407140000000  0.5653230000000 1.0
C      1  0.6796280000000  0.3408690000000  0.3873340000000 1.0
C      1  0.5240050000000  0.3516490000000  0.2998630000000 1.0
C      1  0.3663200000000  0.3658600000000  0.3700500000000 1.0
C      1  0.3131860000000  0.3605710000000  0.5319570000000 1.0
C      1  0.4031370000000  0.3486690000000  0.6792590000000 1.0
C      1  0.5804470000000  0.3427460000000  0.6957540000000 1.0
C      1  0.2949090000000  0.4498370000000  0.5322700000000 1.0
C      1  0.3800620000000  0.4327850000000  0.7072280000000 1.0
C      1  0.5912620000000  0.4281910000000  0.7286610000000 1.0
C      1  0.7377500000000  0.4265760000000  0.5759720000000 1.0
C      1  0.7105230000000  0.4248110000000  0.3661340000000 1.0
C      1  0.5200010000000  0.4372270000000  0.2675710000000 1.0
C      1  0.3539300000000  0.4572270000000  0.3613360000000 1.0
C      1  0.4426400000000  0.7866030000000  0.4447540000000 1.0
C      1  0.5291560000000  0.4405170000000  0.5083000000000 1.0
C      1  0.4645890000000  0.5949030000000  0.4886030000000 1.0
C      1  0.4883330000000  0.5142390000000  0.4977190000000 1.0
END
