TITL C-2159252-5904-81 -0.00212312627648922 3375 -404.167828991464 0 0 60 (C6) n - 1
REM
REM in /scratch/bkarasulu/870
REM
REM
REM
REM
REM
REM ./C.cell (a2850807a9bf4ad07a5b6933b78d9264)
REM AIRSS Version 0.9.1 bugfix July 2018 build 013d7b7c2542+ Fri, 06 Jul 2018 19:26:36 +0100
REM compiler GCC version 9.2.1 20190827 (Red Hat 9.2.1-1)
REM options -cpp -mtune=generic -march=x86-64 -g -O0 -fpre-include=/usr/include/finclude/math-vector-fortran.h
REM seed 1173362060 -1281073526 -375932571 373435855 -1368816576 -1857360941 -1216109522 935110255 -2026265921 840523933 -1493764651 1021549461 1335599016 -2001234169 -1303041005 -1557830695 1840584557 1060347273 441251895 -539521484 1568522275 -281186538 -994418934 -1900542189 12046089 718282384 993453647 -1655118535 -95211213 -1874381062 -626592353 -1272959242 2031911624
REM
CELL 1.54180   15.00000   15.00000   15.00000   90.00000   90.00000   90.00000
LATT -1
SFAC C  
C      1  0.5780950000000  0.5503950000000  0.7412230000000 1.0
C      1  0.7479530000000  0.5503950000000  0.5529770000000 1.0
C      1  0.6698560000000  0.5503950000000  0.3117560000000 1.0
C      1  0.4219050000000  0.5503950000000  0.2587770000000 1.0
C      1  0.2520470000000  0.5503950000000  0.4470230000000 1.0
C      1  0.3301440000000  0.5503950000000  0.6882440000000 1.0
C      1  0.4709280000000  0.6392830000000  0.6524570000000 1.0
C      1  0.6174950000000  0.6392830000000  0.6014050000000 1.0
C      1  0.6465670000000  0.6392830000000  0.4489490000000 1.0
C      1  0.5290720000000  0.6392830000000  0.3475430000000 1.0
C      1  0.3825050000000  0.6392830000000  0.3985950000000 1.0
C      1  0.3534330000000  0.6392830000000  0.5510510000000 1.0
C      1  0.5593260000000  0.2377330000000  0.4238890000000 1.0
C      1  0.4637490000000  0.2377330000000  0.4105660000000 1.0
C      1  0.4044230000000  0.2377330000000  0.4866780000000 1.0
C      1  0.4406740000000  0.2377330000000  0.5761110000000 1.0
C      1  0.5362510000000  0.2377330000000  0.5894340000000 1.0
C      1  0.5955770000000  0.2377330000000  0.5133220000000 1.0
C      1  0.5871100000000  0.7100880000000  0.4696100000000 1.0
C      1  0.5172370000000  0.7100880000000  0.4093650000000 1.0
C      1  0.4301260000000  0.7100880000000  0.4397550000000 1.0
C      1  0.4128900000000  0.7100880000000  0.5303900000000 1.0
C      1  0.4827630000000  0.7100880000000  0.5906350000000 1.0
C      1  0.5698740000000  0.7100880000000  0.5602450000000 1.0
C      1  0.4390770000000  0.3396070000000  0.5805400000000 1.0
C      1  0.5392880000000  0.3396070000000  0.5930310000000 1.0
C      1  0.6002110000000  0.3396070000000  0.5124910000000 1.0
C      1  0.5609230000000  0.3396070000000  0.4194600000000 1.0
C      1  0.4607120000000  0.3396070000000  0.4069690000000 1.0
C      1  0.3997890000000  0.3396070000000  0.4875090000000 1.0
C      1  0.4067080000000  0.4136310000000  0.6371740000000 1.0
C      1  0.5721490000000  0.4136310000000  0.6493800000000 1.0
C      1  0.6654410000000  0.4136310000000  0.5122070000000 1.0
C      1  0.5932920000000  0.4136310000000  0.3628260000000 1.0
C      1  0.4278510000000  0.4136310000000  0.3506200000000 1.0
C      1  0.3345590000000  0.4136310000000  0.4877930000000 1.0
C      1  0.7008580000000  0.6244480000000  0.5394250000000 1.0
C      1  0.6345710000000  0.6244480000000  0.3457640000000 1.0
C      1  0.4337150000000  0.6244480000000  0.3063390000000 1.0
C      1  0.2991420000000  0.6244480000000  0.4605750000000 1.0
C      1  0.3654290000000  0.6244480000000  0.6542360000000 1.0
C      1  0.5662850000000  0.6244480000000  0.6936610000000 1.0
C      1  0.5473610000000  0.4663060000000  0.7278180000000 1.0
C      1  0.7209750000000  0.4663060000000  0.5728920000000 1.0
C      1  0.6736140000000  0.4663060000000  0.3450770000000 1.0
C      1  0.4526390000000  0.4663060000000  0.2721820000000 1.0
C      1  0.2790250000000  0.4663060000000  0.4271080000000 1.0
C      1  0.3263860000000  0.4663060000000  0.6549230000000 1.0
C      1  0.5198920000000  0.4706550000000  0.3401700000000 1.0
C      1  0.3715290000000  0.4706550000000  0.4028580000000 1.0
C      1  0.3516370000000  0.4706550000000  0.5626870000000 1.0
C      1  0.4801080000000  0.4706550000000  0.6598300000000 1.0
C      1  0.6284710000000  0.4706550000000  0.5971420000000 1.0
C      1  0.6483630000000  0.4706550000000  0.4373130000000 1.0
C      1  0.4844920000000  0.5478530000000  0.5966150000000 1.0
C      1  0.5759160000000  0.5478530000000  0.5617380000000 1.0
C      1  0.5914250000000  0.5478530000000  0.4651230000000 1.0
C      1  0.5155080000000  0.5478530000000  0.4033850000000 1.0
C      1  0.4240840000000  0.5478530000000  0.4382620000000 1.0
C      1  0.4085750000000  0.5478530000000  0.5348770000000 1.0
END
