TITL C-2159255-4746-973 -0.0021155210670208 3375 -403.406635466409 0 0 60 (C3) n - 1
REM
REM in /scratch/bkarasulu/871
REM
REM
REM
REM
REM
REM ./C.cell (a2850807a9bf4ad07a5b6933b78d9264)
REM AIRSS Version 0.9.1 bugfix July 2018 build 013d7b7c2542+ Fri, 06 Jul 2018 19:26:36 +0100
REM compiler GCC version 9.2.1 20190827 (Red Hat 9.2.1-1)
REM options -cpp -mtune=generic -march=x86-64 -g -O0 -fpre-include=/usr/include/finclude/math-vector-fortran.h
REM seed -45798398 1035932354 1795112856 1225364040 1971130059 -1819254510 754179274 1367110469 1959319969 507444015 2120659019 808972907 272176262 793454875 -826709823 1524073320 1481518082 -622180313 -1944413390 1969073093 340510885 1718514475 -165964542 -244734013 -416117851 -71376193 1414872670 -1455258283 2104329008 -54150265 -582646631 1289644010 -1567844908
REM
CELL 1.54180   15.00000   15.00000   15.00000   90.00000   90.00000   90.00000
LATT -1
SFAC C  
C      1  0.5158990000000  0.6985250000000  0.5976570000000 1.0
C      1  0.3201180000000  0.4145140000000  0.5976520000000 1.0
C      1  0.6639690000000  0.3869680000000  0.5976680000000 1.0
C      1  0.6619160000000  0.5896410000000  0.6579800000000 1.0
C      1  0.3414000000000  0.5954120000000  0.6579640000000 1.0
C      1  0.4966610000000  0.3149530000000  0.6579760000000 1.0
C      1  0.5851320000000  0.3811040000000  0.5299780000000 1.0
C      1  0.5604010000000  0.6331770000000  0.5299720000000 1.0
C      1  0.3544620000000  0.4857220000000  0.5299640000000 1.0
C      1  0.5796490000000  0.5417770000000  0.6608880000000 1.0
C      1  0.4239850000000  0.5481000000000  0.6608810000000 1.0
C      1  0.4963410000000  0.4101300000000  0.6608870000000 1.0
C      1  0.6530400000000  0.6062500000000  0.5009870000000 1.0
C      1  0.3314620000000  0.5794110000000  0.5009720000000 1.0
C      1  0.5154980000000  0.3143380000000  0.5009850000000 1.0
C      1  0.2694880000000  0.4484090000000  0.6667910000000 1.0
C      1  0.6599240000000  0.3261780000000  0.6668120000000 1.0
C      1  0.5705620000000  0.7254220000000  0.6668030000000 1.0
C      1  0.6998230000000  0.5557240000000  0.5708140000000 1.0
C      1  0.3518260000000  0.6451920000000  0.5707960000000 1.0
C      1  0.4483430000000  0.2990860000000  0.5708060000000 1.0
C      1  0.3592090000000  0.3326630000000  0.5581490000000 1.0
C      1  0.7153130000000  0.4617430000000  0.5581640000000 1.0
C      1  0.4254730000000  0.7055970000000  0.5581460000000 1.0
C      1  0.6462490000000  0.6776330000000  0.6800120000000 1.0
C      1  0.2730270000000  0.5378520000000  0.6799950000000 1.0
C      1  0.5806950000000  0.2845230000000  0.6800140000000 1.0
C      1  0.5157300000000  0.3186110000000  0.4056290000000 1.0
C      1  0.6492270000000  0.6043070000000  0.4056310000000 1.0
C      1  0.3350550000000  0.5770740000000  0.4056150000000 1.0
C      1  0.5202120000000  0.6689750000000  0.4506930000000 1.0
C      1  0.3435600000000  0.4330130000000  0.4506880000000 1.0
C      1  0.6362340000000  0.3980150000000  0.4507030000000 1.0
C      1  0.3964630000000  0.7300400000000  0.3860030000000 1.0
C      1  0.3525570000000  0.2953050000000  0.3860080000000 1.0
C      1  0.7510010000000  0.4746470000000  0.3860230000000 1.0
C      1  0.3773610000000  0.3460970000000  0.3080580000000 1.0
C      1  0.6946150000000  0.4707300000000  0.3080690000000 1.0
C      1  0.4280530000000  0.6831630000000  0.3080540000000 1.0
C      1  0.3364240000000  0.3417590000000  0.4640880000000 1.0
C      1  0.7188330000000  0.4374560000000  0.4641040000000 1.0
C      1  0.4447520000000  0.7207840000000  0.4640870000000 1.0
C      1  0.5434690000000  0.5373450000000  0.5668480000000 1.0
C      1  0.4459210000000  0.5189780000000  0.5668430000000 1.0
C      1  0.5106000000000  0.4436820000000  0.5668480000000 1.0
C      1  0.4518850000000  0.4720920000000  0.7203240000000 1.0
C      1  0.5482140000000  0.4723000000000  0.7203280000000 1.0
C      1  0.4998690000000  0.5556190000000  0.7203250000000 1.0
C      1  0.3422010000000  0.4846080000000  0.3744620000000 1.0
C      1  0.5922350000000  0.3710340000000  0.3744770000000 1.0
C      1  0.5655790000000  0.6443530000000  0.3744710000000 1.0
C      1  0.5049540000000  0.5532860000000  0.2531170000000 1.0
C      1  0.4513890000000  0.4776320000000  0.2531160000000 1.0
C      1  0.5436900000000  0.4690700000000  0.2531200000000 1.0
C      1  0.4414620000000  0.2939400000000  0.3512340000000 1.0
C      1  0.7077320000000  0.5523220000000  0.3512440000000 1.0
C      1  0.3508300000000  0.6537290000000  0.3512240000000 1.0
C      1  0.6140560000000  0.4211090000000  0.2962910000000 1.0
C      1  0.5113060000000  0.6382070000000  0.2962830000000 1.0
C      1  0.3746670000000  0.4406730000000  0.2962800000000 1.0
END
