TITL C-2158984-8299-498 -0.00159403546479585 3375 -406.824918391133 0 0 60 (C3) n - 1
REM
REM in /scratch/bkarasulu/869
REM
REM
REM
REM
REM
REM ./C.cell (a2850807a9bf4ad07a5b6933b78d9264)
REM AIRSS Version 0.9.1 bugfix July 2018 build 013d7b7c2542+ Fri, 06 Jul 2018 19:26:36 +0100
REM compiler GCC version 9.2.1 20190827 (Red Hat 9.2.1-1)
REM options -cpp -mtune=generic -march=x86-64 -g -O0 -fpre-include=/usr/include/finclude/math-vector-fortran.h
REM seed 300361446 -1364718876 1797728894 -2051986688 -2045295591 1605396020 -1999871221 -808244889 -306198454 -1501425542 1485369609 921977019 296945367 -1501242160 1842134919 945522576 -1134127054 -1545040553 1059593156 -1073076141 -1789254376 2080659851 239342779 1962217331 1009114876 39901664 -352683866 -1660459985 -357470541 1179488962 -192430175 -290365193 -478215069
REM
CELL 1.54180   15.00000   15.00000   15.00000   90.00000   90.00000   90.00000
LATT -1
SFAC C  
C      1  0.3405360000000  0.4094540000000  0.4683450000000 1.0
C      1  0.3404890000000  0.5726240000000  0.4374580000000 1.0
C      1  0.3405110000000  0.5177890000000  0.5942120000000 1.0
C      1  0.4439930000000  0.3326180000000  0.3628510000000 1.0
C      1  0.4438930000000  0.7024440000000  0.4236330000000 1.0
C      1  0.4439680000000  0.4648920000000  0.7135220000000 1.0
C      1  0.4387110000000  0.7267740000000  0.5093950000000 1.0
C      1  0.4388120000000  0.3784530000000  0.6917100000000 1.0
C      1  0.4387970000000  0.3947230000000  0.2988980000000 1.0
C      1  0.2512520000000  0.4472920000000  0.4823430000000 1.0
C      1  0.2512240000000  0.5415500000000  0.4632580000000 1.0
C      1  0.2512360000000  0.5109490000000  0.5544300000000 1.0
C      1  0.5356600000000  0.3201060000000  0.3850820000000 1.0
C      1  0.5355580000000  0.6894820000000  0.4016550000000 1.0
C      1  0.5356240000000  0.4904410000000  0.7132590000000 1.0
C      1  0.6881320000000  0.6094650000000  0.5811360000000 1.0
C      1  0.6881960000000  0.3750740000000  0.5541780000000 1.0
C      1  0.6881520000000  0.5156160000000  0.3646690000000 1.0
C      1  0.3773670000000  0.5864470000000  0.5307350000000 1.0
C      1  0.3774110000000  0.4301120000000  0.5595320000000 1.0
C      1  0.3773910000000  0.4833400000000  0.4097430000000 1.0
C      1  0.6033480000000  0.5656110000000  0.3832500000000 1.0
C      1  0.6033530000000  0.5683430000000  0.6151660000000 1.0
C      1  0.6034060000000  0.3661310000000  0.5015750000000 1.0
C      1  0.4407920000000  0.6849040000000  0.6364650000000 1.0
C      1  0.4408980000000  0.2893430000000  0.5919150000000 1.0
C      1  0.4408250000000  0.5257040000000  0.2716230000000 1.0
C      1  0.5150050000000  0.7017200000000  0.5705470000000 1.0
C      1  0.5151070000000  0.3380500000000  0.6394150000000 1.0
C      1  0.5150640000000  0.4602430000000  0.2900340000000 1.0
C      1  0.3895890000000  0.6385160000000  0.3794270000000 1.0
C      1  0.3896270000000  0.5351190000000  0.6802780000000 1.0
C      1  0.3896770000000  0.3262740000000  0.4403060000000 1.0
C      1  0.6608360000000  0.6877070000000  0.5286640000000 1.0
C      1  0.6609240000000  0.3813840000000  0.6481800000000 1.0
C      1  0.6609020000000  0.4310420000000  0.3231400000000 1.0
C      1  0.5414920000000  0.5810760000000  0.6935000000000 1.0
C      1  0.5415640000000  0.2919020000000  0.4734530000000 1.0
C      1  0.5414670000000  0.6270540000000  0.3330440000000 1.0
C      1  0.4693910000000  0.4573650000000  0.5352920000000 1.0
C      1  0.4693790000000  0.4907420000000  0.4454380000000 1.0
C      1  0.4693650000000  0.5518690000000  0.5192710000000 1.0
C      1  0.5990770000000  0.7433540000000  0.5689200000000 1.0
C      1  0.5991960000000  0.3186740000000  0.6762590000000 1.0
C      1  0.5991530000000  0.4380570000000  0.2548090000000 1.0
C      1  0.7336150000000  0.5045810000000  0.4462560000000 1.0
C      1  0.7336070000000  0.5443440000000  0.5307750000000 1.0
C      1  0.7336320000000  0.4512670000000  0.5229510000000 1.0
C      1  0.4496740000000  0.2857260000000  0.5031900000000 1.0
C      1  0.4495800000000  0.6043530000000  0.3128530000000 1.0
C      1  0.4495910000000  0.6098780000000  0.6839620000000 1.0
C      1  0.5455720000000  0.6039070000000  0.5396650000000 1.0
C      1  0.5456250000000  0.4137130000000  0.5701390000000 1.0
C      1  0.5456020000000  0.4824190000000  0.3901900000000 1.0
C      1  0.5966870000000  0.4668490000000  0.6384420000000 1.0
C      1  0.5967000000000  0.3967180000000  0.4020420000000 1.0
C      1  0.5966350000000  0.6365120000000  0.4595060000000 1.0
C      1  0.3789970000000  0.6791430000000  0.5642270000000 1.0
C      1  0.3790870000000  0.3547600000000  0.6230620000000 1.0
C      1  0.3790480000000  0.4659980000000  0.3127190000000 1.0
END
