TITL C-2158984-8299-1186 -0.00256275620019061 3375 -391.119996264755 0 0 60 (Td) n - 1
REM
REM in /scratch/bkarasulu/869
REM
REM
REM
REM
REM
REM ./C.cell (a2850807a9bf4ad07a5b6933b78d9264)
REM AIRSS Version 0.9.1 bugfix July 2018 build 013d7b7c2542+ Fri, 06 Jul 2018 19:26:36 +0100
REM compiler GCC version 9.2.1 20190827 (Red Hat 9.2.1-1)
REM options -cpp -mtune=generic -march=x86-64 -g -O0 -fpre-include=/usr/include/finclude/math-vector-fortran.h
REM seed -1350991551 -1573027248 -1183656024 -1808419339 1748987076 -1016522993 -1603493282 -1330444089 235839273 920111776 232733431 1981320659 1650574418 -1133573952 1720865815 681052363 1625230054 -57931328 836955048 -1036932739 541426585 -522838292 -851906065 -1289134533 -838846300 1031981575 -420034245 444566630 1811897007 -802040504 1153434420 -24401490 2064369954
REM
CELL 1.54180   15.00000   15.00000   15.00000   90.00000   90.00000   90.00000
LATT -1
SFAC C  
C      1  0.5883630000000  0.6563170000000  0.7264070000000 1.0
C      1  0.7264070000000  0.5883630000000  0.6563170000000 1.0
C      1  0.6563170000000  0.7264070000000  0.5883630000000 1.0
C      1  0.4116370000000  0.6563170000000  0.2735930000000 1.0
C      1  0.5883630000000  0.3436830000000  0.2735930000000 1.0
C      1  0.4116370000000  0.3436830000000  0.7264070000000 1.0
C      1  0.2735930000000  0.5883630000000  0.3436830000000 1.0
C      1  0.7264070000000  0.4116370000000  0.3436830000000 1.0
C      1  0.2735930000000  0.4116370000000  0.6563170000000 1.0
C      1  0.3436830000000  0.7264070000000  0.4116370000000 1.0
C      1  0.6563170000000  0.2735930000000  0.4116370000000 1.0
C      1  0.3436830000000  0.2735930000000  0.5883630000000 1.0
C      1  0.7264070000000  0.6563170000000  0.5883630000000 1.0
C      1  0.6563170000000  0.5883630000000  0.7264070000000 1.0
C      1  0.5883630000000  0.7264070000000  0.6563170000000 1.0
C      1  0.2735930000000  0.6563170000000  0.4116370000000 1.0
C      1  0.2735930000000  0.3436830000000  0.5883630000000 1.0
C      1  0.7264070000000  0.3436830000000  0.4116370000000 1.0
C      1  0.3436830000000  0.5883630000000  0.2735930000000 1.0
C      1  0.3436830000000  0.4116370000000  0.7264070000000 1.0
C      1  0.6563170000000  0.4116370000000  0.2735930000000 1.0
C      1  0.4116370000000  0.7264070000000  0.3436830000000 1.0
C      1  0.4116370000000  0.2735930000000  0.6563170000000 1.0
C      1  0.5883630000000  0.2735930000000  0.3436830000000 1.0
C      1  0.3281850000000  0.4753900000000  0.6026580000000 1.0
C      1  0.6026580000000  0.3281850000000  0.4753900000000 1.0
C      1  0.4753900000000  0.6026580000000  0.3281850000000 1.0
C      1  0.6718150000000  0.4753900000000  0.3973420000000 1.0
C      1  0.3281850000000  0.5246100000000  0.3973420000000 1.0
C      1  0.6718150000000  0.5246100000000  0.6026580000000 1.0
C      1  0.3973420000000  0.3281850000000  0.5246100000000 1.0
C      1  0.6026580000000  0.6718150000000  0.5246100000000 1.0
C      1  0.3973420000000  0.6718150000000  0.4753900000000 1.0
C      1  0.5246100000000  0.6026580000000  0.6718150000000 1.0
C      1  0.4753900000000  0.3973420000000  0.6718150000000 1.0
C      1  0.5246100000000  0.3973420000000  0.3281850000000 1.0
C      1  0.6026580000000  0.4753900000000  0.3281850000000 1.0
C      1  0.4753900000000  0.3281850000000  0.6026580000000 1.0
C      1  0.3281850000000  0.6026580000000  0.4753900000000 1.0
C      1  0.3973420000000  0.4753900000000  0.6718150000000 1.0
C      1  0.3973420000000  0.5246100000000  0.3281850000000 1.0
C      1  0.6026580000000  0.5246100000000  0.6718150000000 1.0
C      1  0.5246100000000  0.3281850000000  0.3973420000000 1.0
C      1  0.5246100000000  0.6718150000000  0.6026580000000 1.0
C      1  0.4753900000000  0.6718150000000  0.3973420000000 1.0
C      1  0.6718150000000  0.6026580000000  0.5246100000000 1.0
C      1  0.6718150000000  0.3973420000000  0.4753900000000 1.0
C      1  0.3281850000000  0.3973420000000  0.5246100000000 1.0
C      1  0.4662150000000  0.5337850000000  0.7094530000000 1.0
C      1  0.7094530000000  0.4662150000000  0.5337850000000 1.0
C      1  0.5337850000000  0.5337850000000  0.2905470000000 1.0
C      1  0.4662150000000  0.4662150000000  0.2905470000000 1.0
C      1  0.5337850000000  0.4662150000000  0.7094530000000 1.0
C      1  0.2905470000000  0.4662150000000  0.4662150000000 1.0
C      1  0.7094530000000  0.5337850000000  0.4662150000000 1.0
C      1  0.2905470000000  0.5337850000000  0.5337850000000 1.0
C      1  0.4662150000000  0.7094530000000  0.5337850000000 1.0
C      1  0.5337850000000  0.2905470000000  0.5337850000000 1.0
C      1  0.5337850000000  0.7094530000000  0.4662150000000 1.0
C      1  0.4662150000000  0.2905470000000  0.4662150000000 1.0
END
