TITL C-2158984-8299-100 -0.00292981519554919 3375 -425.162363760868 0 0 60 (C1) n - 1
REM
REM in /scratch/bkarasulu/869
REM
REM
REM
REM
REM
REM ./C.cell (a2850807a9bf4ad07a5b6933b78d9264)
REM AIRSS Version 0.9.1 bugfix July 2018 build 013d7b7c2542+ Fri, 06 Jul 2018 19:26:36 +0100
REM compiler GCC version 9.2.1 20190827 (Red Hat 9.2.1-1)
REM options -cpp -mtune=generic -march=x86-64 -g -O0 -fpre-include=/usr/include/finclude/math-vector-fortran.h
REM seed -785117694 -1242682539 -1136666696 -858848062 -1964086043 578556307 1648510401 -540336108 -1808676928 2088264721 901632256 -714964363 1373259657 -2080874411 -1531551521 -170815045 950691975 353068315 2093642277 2076041904 1527990077 549062378 231651198 141645492 -1828045496 -1963509843 -536415740 2014887041 1278564475 240450759 1779982890 -609169947 1947093170
REM
CELL 1.54180   15.00000   15.00000   15.00000   90.00000   90.00000   90.00000
LATT -1
SFAC C  
C      1  0.5611620000000  0.4701640000000  0.7578410000000 1.0
C      1  0.5595690000000  0.3336400000000  0.6334910000000 1.0
C      1  0.5425930000000  0.2770680000000  0.5601320000000 1.0
C      1  0.5783310000000  0.2971570000000  0.4739310000000 1.0
C      1  0.5748170000000  0.3665990000000  0.3064600000000 1.0
C      1  0.5688960000000  0.4494540000000  0.2617190000000 1.0
C      1  0.5619320000000  0.6244940000000  0.2797990000000 1.0
C      1  0.5655970000000  0.6961690000000  0.3420790000000 1.0
C      1  0.5829630000000  0.7140520000000  0.5244190000000 1.0
C      1  0.5824760000000  0.6861170000000  0.6143190000000 1.0
C      1  0.5661670000000  0.5656150000000  0.7539950000000 1.0
C      1  0.4906240000000  0.7279190000000  0.3867450000000 1.0
C      1  0.5024520000000  0.7410500000000  0.4805880000000 1.0
C      1  0.5023740000000  0.6840280000000  0.6662020000000 1.0
C      1  0.4918850000000  0.6185730000000  0.7353810000000 1.0
C      1  0.4812880000000  0.4253040000000  0.7499310000000 1.0
C      1  0.4833430000000  0.3506240000000  0.6929320000000 1.0
C      1  0.4529410000000  0.2457000000000  0.5465450000000 1.0
C      1  0.5066660000000  0.2813600000000  0.4119740000000 1.0
C      1  0.4989100000000  0.3173110000000  0.3270090000000 1.0
C      1  0.4855310000000  0.4900110000000  0.2421940000000 1.0
C      1  0.4815710000000  0.5845320000000  0.2539590000000 1.0
C      1  0.6397190000000  0.3994840000000  0.3709300000000 1.0
C      1  0.6395190000000  0.4860900000000  0.3223780000000 1.0
C      1  0.6377810000000  0.5783160000000  0.3259120000000 1.0
C      1  0.6410340000000  0.6545540000000  0.3880130000000 1.0
C      1  0.6507880000000  0.6632290000000  0.4783350000000 1.0
C      1  0.6491130000000  0.6176300000000  0.6237410000000 1.0
C      1  0.6415940000000  0.5584600000000  0.6931200000000 1.0
C      1  0.6333490000000  0.4609760000000  0.6926700000000 1.0
C      1  0.6302790000000  0.3988470000000  0.6226560000000 1.0
C      1  0.6695620000000  0.4211100000000  0.5349540000000 1.0
C      1  0.6421250000000  0.3662640000000  0.4591600000000 1.0
C      1  0.3406600000000  0.5722150000000  0.6637240000000 1.0
C      1  0.3343060000000  0.4738660000000  0.6745650000000 1.0
C      1  0.3285220000000  0.3931300000000  0.6329350000000 1.0
C      1  0.3242980000000  0.3386230000000  0.5514180000000 1.0
C      1  0.3517870000000  0.3333820000000  0.4587340000000 1.0
C      1  0.3487350000000  0.3837750000000  0.3801210000000 1.0
C      1  0.3418580000000  0.4745980000000  0.3379530000000 1.0
C      1  0.3397750000000  0.5659990000000  0.3517800000000 1.0
C      1  0.3417370000000  0.6435890000000  0.4190430000000 1.0
C      1  0.3461630000000  0.6698190000000  0.5070230000000 1.0
C      1  0.3457120000000  0.6408560000000  0.6034550000000 1.0
C      1  0.4143950000000  0.3581380000000  0.3110930000000 1.0
C      1  0.4090170000000  0.4437890000000  0.2701140000000 1.0
C      1  0.4047450000000  0.6175840000000  0.2969620000000 1.0
C      1  0.4086330000000  0.6878830000000  0.3609480000000 1.0
C      1  0.4243450000000  0.7283700000000  0.5290970000000 1.0
C      1  0.4242150000000  0.7011550000000  0.6187700000000 1.0
C      1  0.4088640000000  0.5738160000000  0.7372760000000 1.0
C      1  0.4024740000000  0.4790980000000  0.7482540000000 1.0
C      1  0.3957740000000  0.3248960000000  0.6705450000000 1.0
C      1  0.3817560000000  0.2688200000000  0.5981880000000 1.0
C      1  0.4276810000000  0.2701330000000  0.4592600000000 1.0
C      1  0.6828240000000  0.5913650000000  0.5366710000000 1.0
C      1  0.3367550000000  0.5106710000000  0.4956650000000 1.0
C      1  0.4243800000000  0.5041390000000  0.5050310000000 1.0
C      1  0.5071980000000  0.5038520000000  0.5004780000000 1.0
C      1  0.7023940000000  0.5052260000000  0.5162130000000 1.0
END
