TITL C-2159252-5904-176 -0.00245502665622093 3375 -404.366650720438 0 0 60 (C6) n - 1
REM
REM in /scratch/bkarasulu/870
REM
REM
REM
REM
REM
REM ./C.cell (a2850807a9bf4ad07a5b6933b78d9264)
REM AIRSS Version 0.9.1 bugfix July 2018 build 013d7b7c2542+ Fri, 06 Jul 2018 19:26:36 +0100
REM compiler GCC version 9.2.1 20190827 (Red Hat 9.2.1-1)
REM options -cpp -mtune=generic -march=x86-64 -g -O0 -fpre-include=/usr/include/finclude/math-vector-fortran.h
REM seed 492274495 -1608785944 -676496496 -1353569585 -813865300 799462647 738192752 86435486 1694491551 796679012 -106740852 -545170852 -2110498508 -1373579323 -850623626 -678568268 1996366505 1966739333 -68377878 1101873312 218503636 569662032 196484307 -1209214946 595778139 508659287 -2105459794 -530229582 201146385 -1913849113 -509368332 788313080 1169886698
REM
CELL 1.54180   15.00000   15.00000   15.00000   90.00000   90.00000   90.00000
LATT -1
SFAC C  
C      1  0.6208860000000  0.6103730000000  0.3896820000000 1.0
C      1  0.6208870000000  0.4596480000000  0.3492540000000 1.0
C      1  0.6208880000000  0.3492750000000  0.4595730000000 1.0
C      1  0.6208860000000  0.3896270000000  0.6103180000000 1.0
C      1  0.6208870000000  0.5403520000000  0.6507460000000 1.0
C      1  0.6208880000000  0.6507250000000  0.5404270000000 1.0
C      1  0.6019900000000  0.3046210000000  0.5473930000000 1.0
C      1  0.6019900000000  0.4433560000000  0.6929010000000 1.0
C      1  0.6019900000000  0.6387340000000  0.6455050000000 1.0
C      1  0.6019900000000  0.6953790000000  0.4526070000000 1.0
C      1  0.6019900000000  0.5566440000000  0.3070990000000 1.0
C      1  0.6019900000000  0.3612660000000  0.3544950000000 1.0
C      1  0.4592420000000  0.7205710000000  0.7023280000000 1.0
C      1  0.4592430000000  0.7855100000000  0.4101460000000 1.0
C      1  0.4592440000000  0.5649340000000  0.2078120000000 1.0
C      1  0.4592420000000  0.2794290000000  0.2976720000000 1.0
C      1  0.4592430000000  0.2144900000000  0.5898540000000 1.0
C      1  0.4592440000000  0.4350660000000  0.7921880000000 1.0
C      1  0.4595400000000  0.4152300000000  0.6381030000000 1.0
C      1  0.4595400000000  0.5772150000000  0.6424640000000 1.0
C      1  0.4595410000000  0.6619850000000  0.5043620000000 1.0
C      1  0.4595400000000  0.5847700000000  0.3618970000000 1.0
C      1  0.4595400000000  0.4227850000000  0.3575360000000 1.0
C      1  0.4595410000000  0.3380150000000  0.4956380000000 1.0
C      1  0.3975120000000  0.3563510000000  0.4164800000000 1.0
C      1  0.3975130000000  0.3558440000000  0.5826440000000 1.0
C      1  0.3975120000000  0.4994940000000  0.6661650000000 1.0
C      1  0.3975120000000  0.6436490000000  0.5835200000000 1.0
C      1  0.3975130000000  0.6441560000000  0.4173560000000 1.0
C      1  0.3975120000000  0.5005060000000  0.3338350000000 1.0
C      1  0.3292900000000  0.5812880000000  0.4524830000000 1.0
C      1  0.3292900000000  0.4994930000000  0.4058430000000 1.0
C      1  0.3292900000000  0.4182050000000  0.4533610000000 1.0
C      1  0.3292900000000  0.4187120000000  0.5475170000000 1.0
C      1  0.3292900000000  0.5005070000000  0.5941570000000 1.0
C      1  0.3292900000000  0.5817950000000  0.5466390000000 1.0
C      1  0.5303210000000  0.5940780000000  0.5150180000000 1.0
C      1  0.5303210000000  0.5600460000000  0.4260340000000 1.0
C      1  0.5303210000000  0.4659670000000  0.4110170000000 1.0
C      1  0.5303210000000  0.4059220000000  0.4849820000000 1.0
C      1  0.5303210000000  0.4399540000000  0.5739660000000 1.0
C      1  0.5303210000000  0.5340330000000  0.5889830000000 1.0
C      1  0.5179850000000  0.5853150000000  0.2754320000000 1.0
C      1  0.5179840000000  0.3481790000000  0.3138320000000 1.0
C      1  0.5179850000000  0.2628600000000  0.5383950000000 1.0
C      1  0.5179850000000  0.4146850000000  0.7245680000000 1.0
C      1  0.5179840000000  0.6518210000000  0.6861680000000 1.0
C      1  0.5179850000000  0.7371400000000  0.4616050000000 1.0
C      1  0.6926390000000  0.5655480000000  0.4348480000000 1.0
C      1  0.6926400000000  0.4763510000000  0.4106580000000 1.0
C      1  0.6926400000000  0.4108030000000  0.4758090000000 1.0
C      1  0.6926390000000  0.4344520000000  0.5651520000000 1.0
C      1  0.6926400000000  0.5236490000000  0.5893420000000 1.0
C      1  0.6926400000000  0.5891970000000  0.5241910000000 1.0
C      1  0.3905930000000  0.2629250000000  0.6123470000000 1.0
C      1  0.3905930000000  0.4787620000000  0.7614880000000 1.0
C      1  0.3905910000000  0.7158340000000  0.6491360000000 1.0
C      1  0.3905930000000  0.7370750000000  0.3876530000000 1.0
C      1  0.3905930000000  0.5212380000000  0.2385120000000 1.0
C      1  0.3905910000000  0.2841660000000  0.3508640000000 1.0
END
