TITL C-2159252-5904-77 -0.00188280066462935 3375 -431.475289234423 0 0 60 (Cs) n - 1
REM
REM in /scratch/bkarasulu/870
REM
REM
REM
REM
REM
REM ./C.cell (a2850807a9bf4ad07a5b6933b78d9264)
REM AIRSS Version 0.9.1 bugfix July 2018 build 013d7b7c2542+ Fri, 06 Jul 2018 19:26:36 +0100
REM compiler GCC version 9.2.1 20190827 (Red Hat 9.2.1-1)
REM options -cpp -mtune=generic -march=x86-64 -g -O0 -fpre-include=/usr/include/finclude/math-vector-fortran.h
REM seed 410075007 -87566195 -767192846 -691950502 721156529 -1742808964 321867408 540181927 -1687304449 -1092358157 131825239 -760695818 476074010 -1415083814 -964606954 -1268898199 -1617171720 -1580748815 -1935680044 -1246065328 -397100469 -514912104 296700376 103543516 -1352335154 1172571724 -6605627 -1534535586 518347670 774580742 1694412303 1607575802 -1284289548
REM
CELL 1.54180   15.00000   15.00000   15.00000   90.00000   90.00000   90.00000
LATT -1
SFAC C  
C      1  0.3097580000000  0.5963830000000  0.5539260000000 1.0
C      1  0.5231390000000  0.7110180000000  0.5538040000000 1.0
C      1  0.6988950000000  0.5339670000000  0.5527820000000 1.0
C      1  0.5989500000000  0.3055000000000  0.5518440000000 1.0
C      1  0.3575690000000  0.3500050000000  0.5538570000000 1.0
C      1  0.3799780000000  0.5379220000000  0.7195940000000 1.0
C      1  0.4870310000000  0.6557230000000  0.7311920000000 1.0
C      1  0.6317240000000  0.5568030000000  0.7371320000000 1.0
C      1  0.6044670000000  0.3836640000000  0.7311260000000 1.0
C      1  0.4453150000000  0.3865620000000  0.7195580000000 1.0
C      1  0.3587330000000  0.3544040000000  0.3842330000000 1.0
C      1  0.3153850000000  0.5892740000000  0.3846340000000 1.0
C      1  0.5232470000000  0.7007280000000  0.3840820000000 1.0
C      1  0.6911360000000  0.5314590000000  0.3856470000000 1.0
C      1  0.5927350000000  0.3160650000000  0.3827520000000 1.0
C      1  0.3735120000000  0.6483190000000  0.6091350000000 1.0
C      1  0.5805530000000  0.6438520000000  0.6080090000000 1.0
C      1  0.6599540000000  0.4599110000000  0.6079650000000 1.0
C      1  0.5211980000000  0.3061800000000  0.6090530000000 1.0
C      1  0.3365230000000  0.4294090000000  0.6077610000000 1.0
C      1  0.3186970000000  0.3695990000000  0.4692090000000 1.0
C      1  0.3130760000000  0.6376440000000  0.4676450000000 1.0
C      1  0.5653460000000  0.7139540000000  0.4698990000000 1.0
C      1  0.7183850000000  0.4948240000000  0.4693920000000 1.0
C      1  0.5674920000000  0.2763190000000  0.4660550000000 1.0
C      1  0.6532160000000  0.4612190000000  0.3323510000000 1.0
C      1  0.5126280000000  0.3357420000000  0.3308560000000 1.0
C      1  0.3486420000000  0.4347070000000  0.3312490000000 1.0
C      1  0.3891000000000  0.6219190000000  0.3309240000000 1.0
C      1  0.5768370000000  0.6381640000000  0.3323930000000 1.0
C      1  0.3861130000000  0.4507960000000  0.6908370000000 1.0
C      1  0.4055610000000  0.6223890000000  0.6972040000000 1.0
C      1  0.5731540000000  0.6248220000000  0.7061800000000 1.0
C      1  0.6410460000000  0.4675400000000  0.7061420000000 1.0
C      1  0.5243250000000  0.3472530000000  0.6971370000000 1.0
C      1  0.4263360000000  0.7053900000000  0.5519400000000 1.0
C      1  0.6611440000000  0.6214180000000  0.5528030000000 1.0
C      1  0.6694420000000  0.3720840000000  0.5537230000000 1.0
C      1  0.4396670000000  0.2954300000000  0.5538540000000 1.0
C      1  0.2931630000000  0.4992080000000  0.5538930000000 1.0
C      1  0.6619980000000  0.3792890000000  0.3840050000000 1.0
C      1  0.4383220000000  0.3044680000000  0.3845660000000 1.0
C      1  0.2971330000000  0.4971070000000  0.3842670000000 1.0
C      1  0.4297330000000  0.6936900000000  0.3828420000000 1.0
C      1  0.6539690000000  0.6175590000000  0.3856680000000 1.0
C      1  0.6460120000000  0.6624820000000  0.4694330000000 1.0
C      1  0.7005140000000  0.4008180000000  0.4698240000000 1.0
C      1  0.4719520000000  0.2695780000000  0.4675570000000 1.0
C      1  0.2807460000000  0.4575170000000  0.4692300000000 1.0
C      1  0.3835090000000  0.7025470000000  0.4661570000000 1.0
C      1  0.5041310000000  0.4161470000000  0.2807620000000 1.0
C      1  0.4207940000000  0.4658630000000  0.2794080000000 1.0
C      1  0.4417740000000  0.5606080000000  0.2807960000000 1.0
C      1  0.5378130000000  0.5694160000000  0.2802210000000 1.0
C      1  0.5764120000000  0.4799950000000  0.2802000000000 1.0
C      1  0.5643600000000  0.4763000000000  0.5960680000000 1.0
C      1  0.5290700000000  0.4319370000000  0.5200790000000 1.0
C      1  0.4912640000000  0.4962360000000  0.4709430000000 1.0
C      1  0.4704090000000  0.5678260000000  0.5201150000000 1.0
C      1  0.5269130000000  0.5630500000000  0.5960910000000 1.0
END
