TITL C-2159255-4746-962 -0.0107238012324496 3375 -416.530993464767 0 0 60 (C1) n - 1
REM
REM in /scratch/bkarasulu/871
REM
REM
REM
REM
REM
REM ./C.cell (a2850807a9bf4ad07a5b6933b78d9264)
REM AIRSS Version 0.9.1 bugfix July 2018 build 013d7b7c2542+ Fri, 06 Jul 2018 19:26:36 +0100
REM compiler GCC version 9.2.1 20190827 (Red Hat 9.2.1-1)
REM options -cpp -mtune=generic -march=x86-64 -g -O0 -fpre-include=/usr/include/finclude/math-vector-fortran.h
REM seed 100593687 116216097 1037644781 560573173 1253895857 -200133883 -1793838472 2038883372 1441656377 -1667959842 701405237 847051682 709158236 2015197971 1684430311 -1187450503 -1394798327 -1868938936 254226293 604153517 -1160740966 1391302916 -369187950 -1684626715 -1738930104 -671659850 -2005444409 75008877 -303940242 -1871363557 -1568920431 843509715 1189719451
REM
CELL 1.54180   15.00000   15.00000   15.00000   90.00000   90.00000   90.00000
LATT -1
SFAC C  
C      1  0.6267740000000  0.5691240000000  0.6121220000000 1.0
C      1  0.6073460000000  0.6060840000000  0.4450750000000 1.0
C      1  0.5449590000000  0.6775320000000  0.4194180000000 1.0
C      1  0.5621040000000  0.6941540000000  0.3211000000000 1.0
C      1  0.4142580000000  0.7017560000000  0.3380410000000 1.0
C      1  0.4503040000000  0.6869550000000  0.4309080000000 1.0
C      1  0.3837400000000  0.6355150000000  0.4790890000000 1.0
C      1  0.4070940000000  0.6085050000000  0.6479950000000 1.0
C      1  0.4873320000000  0.6419200000000  0.6930930000000 1.0
C      1  0.4730020000000  0.6261110000000  0.7915530000000 1.0
C      1  0.6171380000000  0.5982280000000  0.7674770000000 1.0
C      1  0.5801370000000  0.6245520000000  0.6779130000000 1.0
C      1  0.6529780000000  0.4559490000000  0.4944370000000 1.0
C      1  0.6658530000000  0.4931900000000  0.3362220000000 1.0
C      1  0.6178290000000  0.5778880000000  0.2165590000000 1.0
C      1  0.4708430000000  0.6360290000000  0.1966570000000 1.0
C      1  0.3333370000000  0.5795350000000  0.2612410000000 1.0
C      1  0.2878970000000  0.5281000000000  0.4008270000000 1.0
C      1  0.3287000000000  0.4960380000000  0.5544520000000 1.0
C      1  0.3160270000000  0.4841870000000  0.7170600000000 1.0
C      1  0.3821680000000  0.5012410000000  0.8522160000000 1.0
C      1  0.5408570000000  0.5010850000000  0.8776540000000 1.0
C      1  0.6715430000000  0.4444380000000  0.7998770000000 1.0
C      1  0.6882780000000  0.4182040000000  0.6499180000000 1.0
C      1  0.3433150000000  0.3873160000000  0.4156650000000 1.0
C      1  0.3893830000000  0.3182280000000  0.4537060000000 1.0
C      1  0.4456160000000  0.2673870000000  0.4877050000000 1.0
C      1  0.5175000000000  0.2169520000000  0.4981130000000 1.0
C      1  0.5882940000000  0.1903080000000  0.4570470000000 1.0
C      1  0.6339740000000  0.1949340000000  0.3826060000000 1.0
C      1  0.6407520000000  0.2177270000000  0.2997720000000 1.0
C      1  0.6013410000000  0.2526940000000  0.2299420000000 1.0
C      1  0.5337600000000  0.2945530000000  0.1979170000000 1.0
C      1  0.4549160000000  0.3304230000000  0.2151320000000 1.0
C      1  0.3918140000000  0.3646290000000  0.2573000000000 1.0
C      1  0.3417820000000  0.4102330000000  0.3189260000000 1.0
C      1  0.6250150000000  0.5482740000000  0.5187850000000 1.0
C      1  0.6503820000000  0.5828670000000  0.3639990000000 1.0
C      1  0.6306460000000  0.6382400000000  0.2910000000000 1.0
C      1  0.4815280000000  0.6993480000000  0.2711530000000 1.0
C      1  0.3363420000000  0.6518810000000  0.3268770000000 1.0
C      1  0.3164120000000  0.6158660000000  0.4123710000000 1.0
C      1  0.3768520000000  0.5857160000000  0.5607830000000 1.0
C      1  0.3565910000000  0.5700950000000  0.7195020000000 1.0
C      1  0.3902100000000  0.5854280000000  0.8052220000000 1.0
C      1  0.5499100000000  0.5893760000000  0.8337890000000 1.0
C      1  0.6798510000000  0.5298940000000  0.7567510000000 1.0
C      1  0.6796740000000  0.5114320000000  0.6653560000000 1.0
C      1  0.3128490000000  0.4637660000000  0.4647330000000 1.0
C      1  0.3113560000000  0.4500790000000  0.6325730000000 1.0
C      1  0.3172500000000  0.4487100000000  0.8059290000000 1.0
C      1  0.4541460000000  0.4737010000000  0.9001160000000 1.0
C      1  0.6128370000000  0.4411560000000  0.8691860000000 1.0
C      1  0.6978210000000  0.3768900000000  0.7362430000000 1.0
C      1  0.6650360000000  0.3941050000000  0.5648460000000 1.0
C      1  0.6610580000000  0.4312230000000  0.4033490000000 1.0
C      1  0.6582060000000  0.4925410000000  0.2398060000000 1.0
C      1  0.5482880000000  0.5965730000000  0.1615310000000 1.0
C      1  0.3891570000000  0.5921000000000  0.1906500000000 1.0
C      1  0.3056390000000  0.4990380000000  0.3107180000000 1.0
END
