TITL C-2159255-4746-1104 -0.00191710674073895 3375 -406.268493479217 0 0 60 (S4) n - 1
REM
REM in /scratch/bkarasulu/871
REM
REM
REM
REM
REM
REM ./C.cell (a2850807a9bf4ad07a5b6933b78d9264)
REM AIRSS Version 0.9.1 bugfix July 2018 build 013d7b7c2542+ Fri, 06 Jul 2018 19:26:36 +0100
REM compiler GCC version 9.2.1 20190827 (Red Hat 9.2.1-1)
REM options -cpp -mtune=generic -march=x86-64 -g -O0 -fpre-include=/usr/include/finclude/math-vector-fortran.h
REM seed -1045425481 -328493160 -193032855 305105956 -274960944 -104919356 581929201 382988914 514179752 1772377236 767119026 1041072604 -1551915624 -1845826029 -1572947295 -2140198420 -1602003816 -1115291784 358327558 998177176 1995897836 -1057343594 495277138 -156303678 842618416 463180272 854288603 222143259 1973155531 -483792392 -338040314 -1192137830 -804260810
REM
CELL 1.54180   15.00000   15.00000   15.00000   90.00000   90.00000   90.00000
LATT -1
SFAC C  
C      1  0.3631990000000  0.6393830000000  0.6303690000000 1.0
C      1  0.6393830000000  0.6368010000000  0.3696310000000 1.0
C      1  0.6368010000000  0.3606170000000  0.6303690000000 1.0
C      1  0.3606170000000  0.3631990000000  0.3696310000000 1.0
C      1  0.3292090000000  0.5744600000000  0.4766530000000 1.0
C      1  0.5744600000000  0.6707910000000  0.5233470000000 1.0
C      1  0.6707910000000  0.4255400000000  0.4766530000000 1.0
C      1  0.4255400000000  0.3292090000000  0.5233470000000 1.0
C      1  0.7372980000000  0.5029320000000  0.4720430000000 1.0
C      1  0.5029320000000  0.2627020000000  0.5279570000000 1.0
C      1  0.2627020000000  0.4970680000000  0.4720430000000 1.0
C      1  0.4970680000000  0.7372980000000  0.5279570000000 1.0
C      1  0.4667640000000  0.5355650000000  0.5651310000000 1.0
C      1  0.5355650000000  0.5332360000000  0.4348690000000 1.0
C      1  0.5332360000000  0.4644350000000  0.5651310000000 1.0
C      1  0.4644350000000  0.4667640000000  0.4348690000000 1.0
C      1  0.3742770000000  0.6302490000000  0.4031940000000 1.0
C      1  0.6302490000000  0.6257230000000  0.5968060000000 1.0
C      1  0.6257230000000  0.3697510000000  0.4031940000000 1.0
C      1  0.3697510000000  0.3742770000000  0.5968060000000 1.0
C      1  0.3520450000000  0.3490210000000  0.4614280000000 1.0
C      1  0.3490210000000  0.6479550000000  0.5385720000000 1.0
C      1  0.6479550000000  0.6509790000000  0.4614280000000 1.0
C      1  0.6509790000000  0.3520450000000  0.5385720000000 1.0
C      1  0.5981970000000  0.5921920000000  0.6757960000000 1.0
C      1  0.5921920000000  0.4018030000000  0.3242040000000 1.0
C      1  0.4018030000000  0.4078080000000  0.6757960000000 1.0
C      1  0.4078080000000  0.5981970000000  0.3242040000000 1.0
C      1  0.6638930000000  0.4411840000000  0.6606470000000 1.0
C      1  0.4411840000000  0.3361070000000  0.3393530000000 1.0
C      1  0.3361070000000  0.5588160000000  0.6606470000000 1.0
C      1  0.5588160000000  0.6638930000000  0.3393530000000 1.0
C      1  0.4271540000000  0.6725220000000  0.4809080000000 1.0
C      1  0.6725220000000  0.5728460000000  0.5190920000000 1.0
C      1  0.5728460000000  0.3274780000000  0.4809080000000 1.0
C      1  0.3274780000000  0.4271540000000  0.5190920000000 1.0
C      1  0.6138910000000  0.4930560000000  0.2971380000000 1.0
C      1  0.4930560000000  0.3861090000000  0.7028620000000 1.0
C      1  0.3861090000000  0.5069440000000  0.2971380000000 1.0
C      1  0.5069440000000  0.6138910000000  0.7028620000000 1.0
C      1  0.6037170000000  0.4995920000000  0.5011670000000 1.0
C      1  0.4995920000000  0.3962830000000  0.4988330000000 1.0
C      1  0.3962830000000  0.5004080000000  0.5011670000000 1.0
C      1  0.5004080000000  0.6037170000000  0.4988330000000 1.0
C      1  0.3250450000000  0.4493500000000  0.3410220000000 1.0
C      1  0.4493500000000  0.6749550000000  0.6589780000000 1.0
C      1  0.6749550000000  0.5506500000000  0.3410220000000 1.0
C      1  0.5506500000000  0.3250450000000  0.6589780000000 1.0
C      1  0.6150060000000  0.5009860000000  0.7041040000000 1.0
C      1  0.5009860000000  0.3849940000000  0.2958960000000 1.0
C      1  0.3849940000000  0.4990140000000  0.7041040000000 1.0
C      1  0.4990140000000  0.6150060000000  0.2958960000000 1.0
C      1  0.4680600000000  0.5346600000000  0.7371210000000 1.0
C      1  0.5346600000000  0.5319400000000  0.2628790000000 1.0
C      1  0.5319400000000  0.4653400000000  0.7371210000000 1.0
C      1  0.4653400000000  0.4680600000000  0.2628790000000 1.0
C      1  0.7537080000000  0.5270200000000  0.3846880000000 1.0
C      1  0.5270200000000  0.2462920000000  0.6153120000000 1.0
C      1  0.2462920000000  0.4729800000000  0.3846880000000 1.0
C      1  0.4729800000000  0.7537080000000  0.6153120000000 1.0
END
