TITL C-2158984-8299-634 -0.00187107518249849 3375 -389.693888834109 0 0 60 (D2d) n - 1
REM
REM in /scratch/bkarasulu/869
REM
REM
REM
REM
REM
REM ./C.cell (a2850807a9bf4ad07a5b6933b78d9264)
REM AIRSS Version 0.9.1 bugfix July 2018 build 013d7b7c2542+ Fri, 06 Jul 2018 19:26:36 +0100
REM compiler GCC version 9.2.1 20190827 (Red Hat 9.2.1-1)
REM options -cpp -mtune=generic -march=x86-64 -g -O0 -fpre-include=/usr/include/finclude/math-vector-fortran.h
REM seed -674496474 242660978 1122082147 -770019696 1205381963 2116580388 -4217636 -468830115 1356425643 -1033829728 -823397325 -846797415 -796403115 -1882032217 1258363083 -353430807 1058192682 -833415658 2100590467 1174768135 1403411150 -996559297 -985755551 -675627604 -1259685566 688189096 2144437869 1710514003 306128833 271245000 551762665 1100616842 -721354693
REM
CELL 1.54180   15.00000   15.00000   15.00000   90.00000   90.00000   90.00000
LATT -1
SFAC C  
C      1  0.6083440000000  0.4708940000000  0.2854640000000 1.0
C      1  0.6083440000000  0.5291060000000  0.7145360000000 1.0
C      1  0.3916560000000  0.4708930000000  0.7145360000000 1.0
C      1  0.3916560000000  0.5291060000000  0.2854640000000 1.0
C      1  0.6083440000000  0.2854640000000  0.4708940000000 1.0
C      1  0.6083440000000  0.7145360000000  0.5291060000000 1.0
C      1  0.3916560000000  0.7145360000000  0.4708930000000 1.0
C      1  0.3916560000000  0.2854640000000  0.5291060000000 1.0
C      1  0.4115180000000  0.5586310000000  0.6763910000000 1.0
C      1  0.4115180000000  0.4413690000000  0.3236090000000 1.0
C      1  0.5884820000000  0.5586310000000  0.3236090000000 1.0
C      1  0.5884820000000  0.4413690000000  0.6763910000000 1.0
C      1  0.4115180000000  0.6763910000000  0.5586310000000 1.0
C      1  0.4115180000000  0.3236090000000  0.4413690000000 1.0
C      1  0.5884820000000  0.3236090000000  0.5586310000000 1.0
C      1  0.5884820000000  0.6763910000000  0.4413690000000 1.0
C      1  0.5248540000000  0.3715930000000  0.6976870000000 1.0
C      1  0.5248540000000  0.6284070000000  0.3023130000000 1.0
C      1  0.4751460000000  0.3715930000000  0.3023130000000 1.0
C      1  0.4751460000000  0.6284070000000  0.6976870000000 1.0
C      1  0.5248540000000  0.6976870000000  0.3715930000000 1.0
C      1  0.5248540000000  0.3023130000000  0.6284070000000 1.0
C      1  0.4751460000000  0.3023130000000  0.3715930000000 1.0
C      1  0.4751460000000  0.6976870000000  0.6284070000000 1.0
C      1  0.3222890000000  0.5636600000000  0.6273380000000 1.0
C      1  0.3222890000000  0.4363400000000  0.3726610000000 1.0
C      1  0.6777110000000  0.5636600000000  0.3726620000000 1.0
C      1  0.6777110000000  0.4363400000000  0.6273380000000 1.0
C      1  0.3222890000000  0.6273380000000  0.5636600000000 1.0
C      1  0.3222890000000  0.3726610000000  0.4363400000000 1.0
C      1  0.6777110000000  0.3726620000000  0.5636600000000 1.0
C      1  0.6777110000000  0.6273380000000  0.4363400000000 1.0
C      1  0.4548010000000  0.5189760000000  0.5878110000000 1.0
C      1  0.4548010000000  0.4810240000000  0.4121890000000 1.0
C      1  0.5451990000000  0.5189760000000  0.4121890000000 1.0
C      1  0.5451990000000  0.4810240000000  0.5878110000000 1.0
C      1  0.4548010000000  0.5878110000000  0.5189760000000 1.0
C      1  0.4548010000000  0.4121890000000  0.4810240000000 1.0
C      1  0.5451990000000  0.4121890000000  0.5189760000000 1.0
C      1  0.5451990000000  0.5878110000000  0.4810240000000 1.0
C      1  0.5448240000000  0.7406550000000  0.5854100000000 1.0
C      1  0.5448240000000  0.2593450000000  0.4145900000000 1.0
C      1  0.4551760000000  0.7406550000000  0.4145900000000 1.0
C      1  0.4551760000000  0.2593450000000  0.5854100000000 1.0
C      1  0.5448240000000  0.5854100000000  0.7406550000000 1.0
C      1  0.5448240000000  0.4145900000000  0.2593450000000 1.0
C      1  0.4551760000000  0.4145900000000  0.7406550000000 1.0
C      1  0.4551760000000  0.5854100000000  0.2593450000000 1.0
C      1  0.3264850000000  0.3669320000000  0.5347450000000 1.0
C      1  0.3264850000000  0.6330680000000  0.4652550000000 1.0
C      1  0.6735150000000  0.3669320000000  0.4652550000000 1.0
C      1  0.6735150000000  0.6330680000000  0.5347450000000 1.0
C      1  0.3264850000000  0.5347450000000  0.3669320000000 1.0
C      1  0.3264850000000  0.4652550000000  0.6330680000000 1.0
C      1  0.6735150000000  0.4652550000000  0.3669320000000 1.0
C      1  0.6735150000000  0.5347450000000  0.6330680000000 1.0
C      1  0.3906540000000  0.5624490000000  0.4375510000000 1.0
C      1  0.3906540000000  0.4375510000000  0.5624490000000 1.0
C      1  0.6093460000000  0.4375510000000  0.4375510000000 1.0
C      1  0.6093460000000  0.5624490000000  0.5624490000000 1.0
END
