TITL C-2158988-7926-215 -0.00203880150002995 3375 -406.733694613489 0 0 60 (C1) n - 1
REM
REM in /scratch/bkarasulu/868
REM
REM
REM
REM
REM
REM ./C.cell (a2850807a9bf4ad07a5b6933b78d9264)
REM AIRSS Version 0.9.1 bugfix July 2018 build 013d7b7c2542+ Fri, 06 Jul 2018 19:26:36 +0100
REM compiler GCC version 9.2.1 20190827 (Red Hat 9.2.1-1)
REM options -cpp -mtune=generic -march=x86-64 -g -O0 -fpre-include=/usr/include/finclude/math-vector-fortran.h
REM seed 741120810 -1924362149 528514613 543087144 -246131480 2014759017 -1273350269 460648281 -209175272 1225031400 -856069302 216524389 -468093795 1233318376 -1833383173 -504090250 1603928845 -1020409250 1663523900 -1154203860 -1599421526 -1421598326 -206912998 -278908655 1784674820 -1544201954 -635102388 -102962208 1928505419 -24056116 342487591 -649518119 496462760
REM
CELL 1.54180   15.00000   15.00000   15.00000   90.00000   90.00000   90.00000
LATT -1
SFAC C  
C      1  0.7556360000000  0.5178240000000  0.5674450000000 1.0
C      1  0.2650140000000  0.5084130000000  0.4021000000000 1.0
C      1  0.7304260000000  0.4964560000000  0.3941470000000 1.0
C      1  0.2542650000000  0.5108930000000  0.5725100000000 1.0
C      1  0.4109110000000  0.5399580000000  0.5945870000000 1.0
C      1  0.5886950000000  0.5353370000000  0.4316350000000 1.0
C      1  0.4132910000000  0.5362180000000  0.4302030000000 1.0
C      1  0.5956830000000  0.5465660000000  0.5974780000000 1.0
C      1  0.3091550000000  0.4316450000000  0.5353370000000 1.0
C      1  0.7102120000000  0.4166060000000  0.4365870000000 1.0
C      1  0.2827070000000  0.4246430000000  0.4361130000000 1.0
C      1  0.6990430000000  0.4380280000000  0.5362670000000 1.0
C      1  0.5719190000000  0.6728400000000  0.3510680000000 1.0
C      1  0.4235130000000  0.6686120000000  0.6820640000000 1.0
C      1  0.5777170000000  0.6688260000000  0.6838830000000 1.0
C      1  0.4312390000000  0.6725260000000  0.3519260000000 1.0
C      1  0.5896220000000  0.4015130000000  0.6597900000000 1.0
C      1  0.4119010000000  0.4001280000000  0.3349570000000 1.0
C      1  0.5776290000000  0.3883500000000  0.3462160000000 1.0
C      1  0.4246910000000  0.3888250000000  0.6513200000000 1.0
C      1  0.5764800000000  0.4939960000000  0.6723560000000 1.0
C      1  0.4227010000000  0.4917890000000  0.3372080000000 1.0
C      1  0.5750820000000  0.4830620000000  0.3426510000000 1.0
C      1  0.4307120000000  0.4845790000000  0.6665080000000 1.0
C      1  0.4667570000000  0.2709540000000  0.3924410000000 1.0
C      1  0.5360420000000  0.2705210000000  0.6050830000000 1.0
C      1  0.4756150000000  0.2399790000000  0.5418370000000 1.0
C      1  0.5265430000000  0.2395540000000  0.4562800000000 1.0
C      1  0.3431720000000  0.3658850000000  0.3930280000000 1.0
C      1  0.6564660000000  0.3720470000000  0.5969760000000 1.0
C      1  0.3593760000000  0.3582150000000  0.5867520000000 1.0
C      1  0.6445570000000  0.3520250000000  0.4058120000000 1.0
C      1  0.7162270000000  0.6047690000000  0.5888600000000 1.0
C      1  0.2798160000000  0.5970900000000  0.4202610000000 1.0
C      1  0.7199440000000  0.5873080000000  0.4174750000000 1.0
C      1  0.2870940000000  0.5994790000000  0.5912780000000 1.0
C      1  0.6229870000000  0.2917730000000  0.5610000000000 1.0
C      1  0.3800030000000  0.2906060000000  0.4355450000000 1.0
C      1  0.6148490000000  0.2795320000000  0.4653620000000 1.0
C      1  0.3873310000000  0.2817010000000  0.5318400000000 1.0
C      1  0.3746970000000  0.6325010000000  0.4225420000000 1.0
C      1  0.6176750000000  0.6411710000000  0.5988310000000 1.0
C      1  0.3854600000000  0.6355950000000  0.5981510000000 1.0
C      1  0.6277300000000  0.6312170000000  0.4205490000000 1.0
C      1  0.2467260000000  0.5825010000000  0.5100990000000 1.0
C      1  0.7548280000000  0.5890020000000  0.5065190000000 1.0
C      1  0.6202510000000  0.5009540000000  0.5187800000000 1.0
C      1  0.3828780000000  0.4975190000000  0.5156410000000 1.0
C      1  0.5014750000000  0.7216340000000  0.3930680000000 1.0
C      1  0.5011700000000  0.7081870000000  0.4872390000000 1.0
C      1  0.4913190000000  0.3427150000000  0.3354610000000 1.0
C      1  0.5114090000000  0.3434340000000  0.6612180000000 1.0
C      1  0.4998000000000  0.5281970000000  0.7162970000000 1.0
C      1  0.5017370000000  0.5299120000000  0.3007250000000 1.0
C      1  0.5017260000000  0.6223000000000  0.3037320000000 1.0
C      1  0.4998690000000  0.6264130000000  0.7077580000000 1.0
C      1  0.4137770000000  0.6751480000000  0.5089550000000 1.0
C      1  0.5888060000000  0.6771430000000  0.5087490000000 1.0
C      1  0.5025600000000  0.3998140000000  0.5007160000000 1.0
C      1  0.5010020000000  0.5601810000000  0.4572090000000 1.0
END
