TITL C-2158984-8299-141 -0.00163202385299387 3375 -403.67340807203 0 0 60 (C1) n - 1
REM
REM in /scratch/bkarasulu/869
REM
REM
REM
REM
REM
REM ./C.cell (a2850807a9bf4ad07a5b6933b78d9264)
REM AIRSS Version 0.9.1 bugfix July 2018 build 013d7b7c2542+ Fri, 06 Jul 2018 19:26:36 +0100
REM compiler GCC version 9.2.1 20190827 (Red Hat 9.2.1-1)
REM options -cpp -mtune=generic -march=x86-64 -g -O0 -fpre-include=/usr/include/finclude/math-vector-fortran.h
REM seed -1189912156 -1345821660 748675100 441476515 42449207 -22789808 872853642 1701948269 1289886953 672591349 1862295961 94476985 -404204095 1979250959 377294760 191174494 -538792207 557995543 -731333377 802168523 -321781576 -1268484552 -1221304707 -101898755 -1069412572 1668586752 -958129236 344536304 189968187 2019823135 1265254343 1531147926 991290509
REM
CELL 1.54180   15.00000   15.00000   15.00000   90.00000   90.00000   90.00000
LATT -1
SFAC C  
C      1  0.4632390000000  0.4292390000000  0.6083440000000 1.0
C      1  0.4733700000000  0.6787050000000  0.6341090000000 1.0
C      1  0.5638090000000  0.4210720000000  0.7152370000000 1.0
C      1  0.4266650000000  0.2749500000000  0.5290960000000 1.0
C      1  0.4350100000000  0.4223880000000  0.5087120000000 1.0
C      1  0.4357280000000  0.6393390000000  0.3258390000000 1.0
C      1  0.5350030000000  0.3169250000000  0.3271380000000 1.0
C      1  0.6833760000000  0.3854750000000  0.6007660000000 1.0
C      1  0.4467200000000  0.5140250000000  0.6578480000000 1.0
C      1  0.7105680000000  0.6104490000000  0.5033650000000 1.0
C      1  0.5609400000000  0.6682750000000  0.6658280000000 1.0
C      1  0.4343590000000  0.5791400000000  0.4970300000000 1.0
C      1  0.3499460000000  0.3090470000000  0.4824470000000 1.0
C      1  0.6641950000000  0.3439860000000  0.5141130000000 1.0
C      1  0.5674360000000  0.3440920000000  0.5214180000000 1.0
C      1  0.6209060000000  0.3607950000000  0.6679390000000 1.0
C      1  0.6152980000000  0.7015010000000  0.5935450000000 1.0
C      1  0.3740340000000  0.3155910000000  0.3842950000000 1.0
C      1  0.3319030000000  0.6021630000000  0.6157360000000 1.0
C      1  0.4900870000000  0.3680940000000  0.6800150000000 1.0
C      1  0.5997250000000  0.4283760000000  0.2942690000000 1.0
C      1  0.6843560000000  0.6397310000000  0.5869470000000 1.0
C      1  0.3435200000000  0.4114940000000  0.4782170000000 1.0
C      1  0.4877500000000  0.3475460000000  0.4687950000000 1.0
C      1  0.2951290000000  0.5083800000000  0.6088890000000 1.0
C      1  0.5462190000000  0.2993130000000  0.6463010000000 1.0
C      1  0.6653730000000  0.5436700000000  0.3789550000000 1.0
C      1  0.5105560000000  0.3956570000000  0.2813720000000 1.0
C      1  0.3201250000000  0.4919640000000  0.3296160000000 1.0
C      1  0.7234300000000  0.5151420000000  0.5083550000000 1.0
C      1  0.7110770000000  0.4727250000000  0.4255980000000 1.0
C      1  0.2993230000000  0.5634280000000  0.3832430000000 1.0
C      1  0.4838450000000  0.6175730000000  0.4069760000000 1.0
C      1  0.3470350000000  0.5240030000000  0.6805110000000 1.0
C      1  0.3832640000000  0.7508260000000  0.5346290000000 1.0
C      1  0.5098620000000  0.5171400000000  0.3860190000000 1.0
C      1  0.2986540000000  0.7367620000000  0.5275420000000 1.0
C      1  0.6264540000000  0.3560730000000  0.3499940000000 1.0
C      1  0.2980220000000  0.6440920000000  0.5367280000000 1.0
C      1  0.3644350000000  0.4133620000000  0.3746750000000 1.0
C      1  0.4510660000000  0.4584160000000  0.3277920000000 1.0
C      1  0.6690580000000  0.4814400000000  0.5809120000000 1.0
C      1  0.6799430000000  0.3807040000000  0.4270810000000 1.0
C      1  0.4676790000000  0.2929470000000  0.3877450000000 1.0
C      1  0.3232540000000  0.5716990000000  0.4726450000000 1.0
C      1  0.5327030000000  0.5104510000000  0.7114500000000 1.0
C      1  0.3938590000000  0.5243320000000  0.2782840000000 1.0
C      1  0.4314700000000  0.5984100000000  0.5995900000000 1.0
C      1  0.4052420000000  0.6122560000000  0.2498960000000 1.0
C      1  0.5916030000000  0.5827340000000  0.6960710000000 1.0
C      1  0.5135260000000  0.2674460000000  0.5684670000000 1.0
C      1  0.5921200000000  0.5109670000000  0.3362280000000 1.0
C      1  0.6541440000000  0.6245980000000  0.4293390000000 1.0
C      1  0.5578310000000  0.7218860000000  0.5177020000000 1.0
C      1  0.4959830000000  0.4965520000000  0.4853440000000 1.0
C      1  0.5604150000000  0.4481230000000  0.5532140000000 1.0
C      1  0.5672870000000  0.6668710000000  0.4401830000000 1.0
C      1  0.4690190000000  0.7396940000000  0.5584520000000 1.0
C      1  0.6655060000000  0.5613690000000  0.6400730000000 1.0
C      1  0.2975460000000  0.4865920000000  0.5190840000000 1.0
END
