TITL C-2158988-7926-745 -0.00209823272044008 3375 -396.016828770632 0 0 60 (C5) n - 1
REM
REM in /scratch/bkarasulu/868
REM
REM
REM
REM
REM
REM ./C.cell (a2850807a9bf4ad07a5b6933b78d9264)
REM AIRSS Version 0.9.1 bugfix July 2018 build 013d7b7c2542+ Fri, 06 Jul 2018 19:26:36 +0100
REM compiler GCC version 9.2.1 20190827 (Red Hat 9.2.1-1)
REM options -cpp -mtune=generic -march=x86-64 -g -O0 -fpre-include=/usr/include/finclude/math-vector-fortran.h
REM seed 623686443 -1981298590 -17320013 -626030975 -1669074015 -266064536 -500304587 1361386705 1383335296 -13718820 1485315186 -667378137 799061520 -1548694625 -1070932703 -1017845546 1069439710 -876175747 1924021079 -1560962824 2103725628 1715067351 35244089 -1728852956 -18430337 -728784760 903352921 1004913662 1277109712 762158684 1048349250 765252134 -1124408463
REM
CELL 1.54180   15.00000   15.00000   15.00000   90.00000   90.00000   90.00000
LATT -1
SFAC C  
C      1  0.6986110000000  0.3961450000000  0.5735760000000 1.0
C      1  0.4626020000000  0.2790170000000  0.5735820000000 1.0
C      1  0.2782730000000  0.4672840000000  0.5735800000000 1.0
C      1  0.4003690000000  0.7007680000000  0.5735730000000 1.0
C      1  0.6601520000000  0.6567960000000  0.5735710000000 1.0
C      1  0.5347470000000  0.6607290000000  0.4558270000000 1.0
C      1  0.6635990000000  0.5166200000000  0.4558270000000 1.0
C      1  0.5663620000000  0.3495440000000  0.4558330000000 1.0
C      1  0.3774150000000  0.3903910000000  0.4558360000000 1.0
C      1  0.3578750000000  0.5827140000000  0.4558310000000 1.0
C      1  0.6320640000000  0.4236970000000  0.5007560000000 1.0
C      1  0.4682410000000  0.3508200000000  0.5007600000000 1.0
C      1  0.3483060000000  0.4841060000000  0.5007580000000 1.0
C      1  0.4380070000000  0.6393590000000  0.5007530000000 1.0
C      1  0.6133800000000  0.6020220000000  0.5007520000000 1.0
C      1  0.4452130000000  0.6200380000000  0.3157200000000 1.0
C      1  0.5972340000000  0.5891940000000  0.3157180000000 1.0
C      1  0.6148760000000  0.4350820000000  0.3157210000000 1.0
C      1  0.4737590000000  0.3706800000000  0.3157250000000 1.0
C      1  0.3689010000000  0.4849890000000  0.3157240000000 1.0
C      1  0.5525460000000  0.7421900000000  0.5084520000000 1.0
C      1  0.7465750000000  0.5248660000000  0.5084500000000 1.0
C      1  0.5998450000000  0.2731800000000  0.5084590000000 1.0
C      1  0.3151370000000  0.3349510000000  0.5084650000000 1.0
C      1  0.2859030000000  0.6248130000000  0.5084600000000 1.0
C      1  0.5657060000000  0.4434300000000  0.6665470000000 1.0
C      1  0.4665030000000  0.4200340000000  0.6665510000000 1.0
C      1  0.4135960000000  0.5071520000000  0.6665510000000 1.0
C      1  0.4801010000000  0.5843900000000  0.6665460000000 1.0
C      1  0.5741110000000  0.5450080000000  0.6665430000000 1.0
C      1  0.5618580000000  0.5503610000000  0.5643240000000 1.0
C      1  0.5670080000000  0.4567330000000  0.5643260000000 1.0
C      1  0.4795540000000  0.4229010000000  0.5643300000000 1.0
C      1  0.4203530000000  0.4956210000000  0.5643300000000 1.0
C      1  0.4712210000000  0.5743960000000  0.5643260000000 1.0
C      1  0.5607000000000  0.5555590000000  0.2326030000000 1.0
C      1  0.5715990000000  0.4594320000000  0.2326050000000 1.0
C      1  0.4835440000000  0.4193610000000  0.2326070000000 1.0
C      1  0.4182250000000  0.4907240000000  0.2326070000000 1.0
C      1  0.4659090000000  0.5748980000000  0.2326040000000 1.0
C      1  0.6333730000000  0.3742510000000  0.6445480000000 1.0
C      1  0.4216220000000  0.3343000000000  0.6445540000000 1.0
C      1  0.3181890000000  0.5233420000000  0.6445510000000 1.0
C      1  0.4660180000000  0.6801310000000  0.6445450000000 1.0
C      1  0.6608140000000  0.5879850000000  0.6445430000000 1.0
C      1  0.5285550000000  0.6425930000000  0.3612440000000 1.0
C      1  0.6444380000000  0.5169020000000  0.3612450000000 1.0
C      1  0.5607100000000  0.3678510000000  0.3612500000000 1.0
C      1  0.3930790000000  0.4014210000000  0.3612520000000 1.0
C      1  0.3732060000000  0.5712220000000  0.3612480000000 1.0
C      1  0.3033700000000  0.6014710000000  0.6007000000000 1.0
C      1  0.5357440000000  0.7183640000000  0.6006930000000 1.0
C      1  0.7187180000000  0.5334810000000  0.6006910000000 1.0
C      1  0.5994310000000  0.3023370000000  0.6006980000000 1.0
C      1  0.3427370000000  0.3443510000000  0.6007030000000 1.0
C      1  0.7658630000000  0.4602200000000  0.5756790000000 1.0
C      1  0.5443240000000  0.2348590000000  0.5756870000000 1.0
C      1  0.2615360000000  0.3759160000000  0.5756920000000 1.0
C      1  0.3083010000000  0.6884510000000  0.5756860000000 1.0
C      1  0.6199900000000  0.7405540000000  0.5756790000000 1.0
END
