TITL C-2158984-8299-1172 -0.00187484845991131 3375 -407.812941026877 0 0 60 (C1) n - 1
REM
REM in /scratch/bkarasulu/869
REM
REM
REM
REM
REM
REM ./C.cell (a2850807a9bf4ad07a5b6933b78d9264)
REM AIRSS Version 0.9.1 bugfix July 2018 build 013d7b7c2542+ Fri, 06 Jul 2018 19:26:36 +0100
REM compiler GCC version 9.2.1 20190827 (Red Hat 9.2.1-1)
REM options -cpp -mtune=generic -march=x86-64 -g -O0 -fpre-include=/usr/include/finclude/math-vector-fortran.h
REM seed 1178648351 -1644914799 -1920192334 1725135902 -1304673869 257816229 -356730503 -556504728 1638524254 -1311700275 -1891555768 -1668392312 -1027037892 1393659210 1841723968 -822668776 -698719116 -1270469277 -116910024 -1032654126 837342514 2001582047 -1135575628 -1712547093 -33327428 239951482 1061976536 1875056017 -1916825100 -850466805 417102409 -1748484083 651389058
REM
CELL 1.54180   15.00000   15.00000   15.00000   90.00000   90.00000   90.00000
LATT -1
SFAC C  
C      1  0.3828790000000  0.5010910000000  0.5332520000000 1.0
C      1  0.7380580000000  0.5420590000000  0.5843450000000 1.0
C      1  0.2961940000000  0.5480140000000  0.3978840000000 1.0
C      1  0.4401340000000  0.5699260000000  0.4803460000000 1.0
C      1  0.4357490000000  0.3357850000000  0.6397190000000 1.0
C      1  0.5414820000000  0.4521620000000  0.5405830000000 1.0
C      1  0.4224650000000  0.6567320000000  0.6407680000000 1.0
C      1  0.6432980000000  0.3599550000000  0.4748340000000 1.0
C      1  0.6505310000000  0.4632750000000  0.3532500000000 1.0
C      1  0.5479810000000  0.5092610000000  0.7264670000000 1.0
C      1  0.3088130000000  0.4357830000000  0.6788040000000 1.0
C      1  0.6650390000000  0.6811610000000  0.5445550000000 1.0
C      1  0.4360360000000  0.3483110000000  0.3395050000000 1.0
C      1  0.5246680000000  0.6584490000000  0.6340600000000 1.0
C      1  0.6066100000000  0.7064140000000  0.6043680000000 1.0
C      1  0.7171230000000  0.4885670000000  0.4174990000000 1.0
C      1  0.4889440000000  0.6368460000000  0.2958790000000 1.0
C      1  0.3980460000000  0.4070500000000  0.6925480000000 1.0
C      1  0.6539050000000  0.5506810000000  0.6270820000000 1.0
C      1  0.3332800000000  0.6714060000000  0.4930720000000 1.0
C      1  0.3061890000000  0.5552860000000  0.5703950000000 1.0
C      1  0.3215130000000  0.4565740000000  0.3905520000000 1.0
C      1  0.5766950000000  0.6040880000000  0.3106410000000 1.0
C      1  0.6296550000000  0.4821200000000  0.6893050000000 1.0
C      1  0.7156890000000  0.5753470000000  0.4564720000000 1.0
C      1  0.3686690000000  0.3350460000000  0.4844180000000 1.0
C      1  0.3779850000000  0.4237010000000  0.3201790000000 1.0
C      1  0.3929140000000  0.2939610000000  0.5663440000000 1.0
C      1  0.3542370000000  0.6052800000000  0.3513490000000 1.0
C      1  0.2640460000000  0.4981640000000  0.6397440000000 1.0
C      1  0.7297240000000  0.4468250000000  0.5733770000000 1.0
C      1  0.4012150000000  0.6567130000000  0.4240540000000 1.0
C      1  0.5031300000000  0.5836320000000  0.5623420000000 1.0
C      1  0.6593730000000  0.4111850000000  0.6300630000000 1.0
C      1  0.4688050000000  0.2199480000000  0.4506600000000 1.0
C      1  0.6260980000000  0.6145210000000  0.4730450000000 1.0
C      1  0.5912350000000  0.5453140000000  0.5450440000000 1.0
C      1  0.5945260000000  0.3660180000000  0.5680810000000 1.0
C      1  0.5252990000000  0.3753970000000  0.3194710000000 1.0
C      1  0.4154070000000  0.5798690000000  0.2838240000000 1.0
C      1  0.5951910000000  0.5134180000000  0.2936780000000 1.0
C      1  0.4864070000000  0.6829450000000  0.3826630000000 1.0
C      1  0.4567950000000  0.4866190000000  0.6911180000000 1.0
C      1  0.7500160000000  0.6161060000000  0.5323340000000 1.0
C      1  0.4315020000000  0.5840280000000  0.7085490000000 1.0
C      1  0.3515790000000  0.6518860000000  0.5847520000000 1.0
C      1  0.4789310000000  0.2432690000000  0.5378730000000 1.0
C      1  0.3461640000000  0.4246600000000  0.4763900000000 1.0
C      1  0.5200070000000  0.4437690000000  0.4503130000000 1.0
C      1  0.5774340000000  0.6508730000000  0.3990640000000 1.0
C      1  0.4166180000000  0.2903020000000  0.4121370000000 1.0
C      1  0.4827400000000  0.5172670000000  0.4159790000000 1.0
C      1  0.2765160000000  0.5901340000000  0.4812610000000 1.0
C      1  0.5231820000000  0.3040980000000  0.5991690000000 1.0
C      1  0.7171230000000  0.4177980000000  0.4840290000000 1.0
C      1  0.5210860000000  0.4568420000000  0.2700060000000 1.0
C      1  0.5938820000000  0.3919460000000  0.3924470000000 1.0
C      1  0.5255460000000  0.6021160000000  0.7211080000000 1.0
C      1  0.4650130000000  0.4925810000000  0.5919800000000 1.0
C      1  0.4306280000000  0.4874280000000  0.2669690000000 1.0
END
