TITL C-2158984-8299-447 -0.00198133969202601 3375 -414.147852038962 0 0 60 (C1) n - 1
REM
REM in /scratch/bkarasulu/869
REM
REM
REM
REM
REM
REM ./C.cell (a2850807a9bf4ad07a5b6933b78d9264)
REM AIRSS Version 0.9.1 bugfix July 2018 build 013d7b7c2542+ Fri, 06 Jul 2018 19:26:36 +0100
REM compiler GCC version 9.2.1 20190827 (Red Hat 9.2.1-1)
REM options -cpp -mtune=generic -march=x86-64 -g -O0 -fpre-include=/usr/include/finclude/math-vector-fortran.h
REM seed -737306702 -1192204742 -561069712 1906648550 147688486 -2036442395 282974719 -1594125330 1759168570 1147454431 1246447265 -1748860702 -1846503447 1282551137 1793580773 731310162 1236407321 -591748336 1178790038 -1816927382 -1363121023 1431479346 1933569688 -1651448699 -1772539695 1074258594 266660480 -581964022 -542796089 1740989771 224798166 1287134859 -859942069
REM
CELL 1.54180   15.00000   15.00000   15.00000   90.00000   90.00000   90.00000
LATT -1
SFAC C  
C      1  0.3746900000000  0.4881140000000  0.2866970000000 1.0
C      1  0.2807280000000  0.4209290000000  0.5708970000000 1.0
C      1  0.7497580000000  0.4007450000000  0.5788390000000 1.0
C      1  0.5598590000000  0.7053580000000  0.3529990000000 1.0
C      1  0.6187430000000  0.7032350000000  0.5266520000000 1.0
C      1  0.4594820000000  0.6800430000000  0.5769670000000 1.0
C      1  0.6259260000000  0.3218450000000  0.6505810000000 1.0
C      1  0.3371040000000  0.3772340000000  0.4226000000000 1.0
C      1  0.4643780000000  0.4497290000000  0.2656730000000 1.0
C      1  0.4605880000000  0.3238300000000  0.6815780000000 1.0
C      1  0.6062830000000  0.4346860000000  0.3492240000000 1.0
C      1  0.7703590000000  0.4847710000000  0.5731120000000 1.0
C      1  0.5941520000000  0.6164300000000  0.6531000000000 1.0
C      1  0.6382840000000  0.5020990000000  0.4898970000000 1.0
C      1  0.4428530000000  0.3715840000000  0.3137600000000 1.0
C      1  0.5751300000000  0.3691970000000  0.4117660000000 1.0
C      1  0.6347560000000  0.5307350000000  0.6612220000000 1.0
C      1  0.5202210000000  0.4117470000000  0.5589810000000 1.0
C      1  0.5513810000000  0.5522990000000  0.5025200000000 1.0
C      1  0.5768230000000  0.5716230000000  0.2764140000000 1.0
C      1  0.3196540000000  0.5698660000000  0.5589140000000 1.0
C      1  0.5000940000000  0.6372780000000  0.6544540000000 1.0
C      1  0.4246720000000  0.6469960000000  0.3100400000000 1.0
C      1  0.5414060000000  0.2821720000000  0.6442780000000 1.0
C      1  0.2849360000000  0.4353920000000  0.4786940000000 1.0
C      1  0.4854090000000  0.3371560000000  0.3905820000000 1.0
C      1  0.6507570000000  0.5813050000000  0.3362030000000 1.0
C      1  0.6287720000000  0.3803280000000  0.7190110000000 1.0
C      1  0.4994390000000  0.7299030000000  0.4225900000000 1.0
C      1  0.3544910000000  0.4069300000000  0.3352690000000 1.0
C      1  0.4381790000000  0.4125890000000  0.7162080000000 1.0
C      1  0.5178420000000  0.2570660000000  0.5582860000000 1.0
C      1  0.5940100000000  0.4634800000000  0.7112680000000 1.0
C      1  0.3143260000000  0.5901180000000  0.4024140000000 1.0
C      1  0.5501690000000  0.4795530000000  0.2811730000000 1.0
C      1  0.4682720000000  0.5674530000000  0.7034440000000 1.0
C      1  0.5097720000000  0.5690700000000  0.4180320000000 1.0
C      1  0.6053920000000  0.3970690000000  0.5067040000000 1.0
C      1  0.3728550000000  0.6510580000000  0.5428540000000 1.0
C      1  0.2902090000000  0.5317640000000  0.4716500000000 1.0
C      1  0.4563660000000  0.4944100000000  0.4255190000000 1.0
C      1  0.4993630000000  0.4851820000000  0.7278940000000 1.0
C      1  0.6594210000000  0.5039500000000  0.3915670000000 1.0
C      1  0.4162550000000  0.7022800000000  0.3898090000000 1.0
C      1  0.6700070000000  0.3517170000000  0.5689460000000 1.0
C      1  0.6739750000000  0.6865260000000  0.4572420000000 1.0
C      1  0.3211020000000  0.3607090000000  0.6302330000000 1.0
C      1  0.4790670000000  0.4843150000000  0.5212700000000 1.0
C      1  0.6423100000000  0.6675200000000  0.3770710000000 1.0
C      1  0.3516600000000  0.4371290000000  0.6862040000000 1.0
C      1  0.5215570000000  0.7181100000000  0.5145490000000 1.0
C      1  0.3090930000000  0.5006770000000  0.6242310000000 1.0
C      1  0.4291080000000  0.2747330000000  0.5350370000000 1.0
C      1  0.6540380000000  0.6405480000000  0.5853340000000 1.0
C      1  0.3607370000000  0.5755060000000  0.3177030000000 1.0
C      1  0.5179290000000  0.6475910000000  0.2886410000000 1.0
C      1  0.3918300000000  0.3015860000000  0.6194980000000 1.0
C      1  0.3550890000000  0.6653410000000  0.4490220000000 1.0
C      1  0.6871150000000  0.5401010000000  0.5728630000000 1.0
C      1  0.4118240000000  0.3192950000000  0.4518190000000 1.0
END
