TITL C-2159255-4746-1017 -0.00207568800469991 3375 -424.184504102246 0 0 60 (C6v) n - 1
REM
REM in /scratch/bkarasulu/871
REM
REM
REM
REM
REM
REM ./C.cell (a2850807a9bf4ad07a5b6933b78d9264)
REM AIRSS Version 0.9.1 bugfix July 2018 build 013d7b7c2542+ Fri, 06 Jul 2018 19:26:36 +0100
REM compiler GCC version 9.2.1 20190827 (Red Hat 9.2.1-1)
REM options -cpp -mtune=generic -march=x86-64 -g -O0 -fpre-include=/usr/include/finclude/math-vector-fortran.h
REM seed -1879344166 -220195015 1658426848 1244092216 1514781516 808179644 -2046309490 472384578 300716000 1700592700 -1155726421 121063736 379864927 976728759 -491046820 -350944033 -1649823663 -1812237266 11733030 -964576097 1180961775 1698787771 2055384871 598439693 -1466887885 1248588642 -701659356 -1207658272 -844548303 -1374791468 1610213819 -1401584355 -601774403
REM
CELL 1.54180   15.00000   15.00000   15.00000   90.00000   90.00000   90.00000
LATT -1
SFAC C  
C      1  0.4034490000000  0.5013110000000  0.6666820000000 1.0
C      1  0.4528600000000  0.5842710000000  0.6666820000000 1.0
C      1  0.5494110000000  0.5829600000000  0.6666820000000 1.0
C      1  0.5965510000000  0.4986890000000  0.6666820000000 1.0
C      1  0.5471400000000  0.4157290000000  0.6666820000000 1.0
C      1  0.4505890000000  0.4170400000000  0.6666820000000 1.0
C      1  0.4105360000000  0.5012180000000  0.4876540000000 1.0
C      1  0.4563230000000  0.5780880000000  0.4876540000000 1.0
C      1  0.5457870000000  0.5768700000000  0.4876540000000 1.0
C      1  0.5894640000000  0.4987820000000  0.4876540000000 1.0
C      1  0.5436770000000  0.4219120000000  0.4876540000000 1.0
C      1  0.4542130000000  0.4231300000000  0.4876540000000 1.0
C      1  0.7397880000000  0.5446090000000  0.4839640000000 1.0
C      1  0.6585250000000  0.3146430000000  0.4839650000000 1.0
C      1  0.4187390000000  0.2700320000000  0.4839650000000 1.0
C      1  0.2602120000000  0.4553910000000  0.4839640000000 1.0
C      1  0.3414750000000  0.6853570000000  0.4839650000000 1.0
C      1  0.5812610000000  0.7299680000000  0.4839650000000 1.0
C      1  0.5910120000000  0.3373000000000  0.6286490000000 1.0
C      1  0.4046040000000  0.3398310000000  0.6286490000000 1.0
C      1  0.3135910000000  0.5025310000000  0.6286490000000 1.0
C      1  0.4089880000000  0.6627000000000  0.6286490000000 1.0
C      1  0.5953960000000  0.6601690000000  0.6286490000000 1.0
C      1  0.6864090000000  0.4974690000000  0.6286490000000 1.0
C      1  0.3002870000000  0.3882840000000  0.4283090000000 1.0
C      1  0.3033940000000  0.6170980000000  0.4283090000000 1.0
C      1  0.5031070000000  0.7288190000000  0.4283100000000 1.0
C      1  0.6997130000000  0.6117160000000  0.4283090000000 1.0
C      1  0.6966060000000  0.3829020000000  0.4283090000000 1.0
C      1  0.4968930000000  0.2711810000000  0.4283100000000 1.0
C      1  0.7384890000000  0.4488970000000  0.4839640000000 1.0
C      1  0.5749880000000  0.2679100000000  0.4839650000000 1.0
C      1  0.3365010000000  0.3190150000000  0.4839640000000 1.0
C      1  0.2615120000000  0.5511030000000  0.4839640000000 1.0
C      1  0.4250120000000  0.7320900000000  0.4839650000000 1.0
C      1  0.6634990000000  0.6809850000000  0.4839640000000 1.0
C      1  0.5783730000000  0.3598900000000  0.3258620000000 1.0
C      1  0.4178510000000  0.3620710000000  0.3258620000000 1.0
C      1  0.3394800000000  0.5021800000000  0.3258610000000 1.0
C      1  0.4216270000000  0.6401100000000  0.3258620000000 1.0
C      1  0.5821490000000  0.6379300000000  0.3258620000000 1.0
C      1  0.6605200000000  0.4978200000000  0.3258610000000 1.0
C      1  0.5425330000000  0.2747240000000  0.5762140000000 1.0
C      1  0.3261740000000  0.3505280000000  0.5762130000000 1.0
C      1  0.2836400000000  0.5758020000000  0.5762130000000 1.0
C      1  0.4574670000000  0.7252760000000  0.5762140000000 1.0
C      1  0.6738260000000  0.6494720000000  0.5762130000000 1.0
C      1  0.7163600000000  0.4241980000000  0.5762130000000 1.0
C      1  0.2816620000000  0.4301000000000  0.5762130000000 1.0
C      1  0.3302960000000  0.6541360000000  0.5762130000000 1.0
C      1  0.5486340000000  0.7240380000000  0.5762140000000 1.0
C      1  0.7183380000000  0.5699000000000  0.5762130000000 1.0
C      1  0.6697040000000  0.3458640000000  0.5762130000000 1.0
C      1  0.4513660000000  0.2759620000000  0.5762140000000 1.0
C      1  0.3437290000000  0.4125840000000  0.3424880000000 1.0
C      1  0.3461610000000  0.5916280000000  0.3424880000000 1.0
C      1  0.5024320000000  0.6790480000000  0.3424880000000 1.0
C      1  0.6562710000000  0.5874160000000  0.3424880000000 1.0
C      1  0.6538390000000  0.4083720000000  0.3424880000000 1.0
C      1  0.4975680000000  0.3209530000000  0.3424880000000 1.0
END
