TITL C-2158984-8299-423 -0.00212029580306018 3375 -409.129796233342 0 0 60 (C3i) n - 1
REM
REM in /scratch/bkarasulu/869
REM
REM
REM
REM
REM
REM ./C.cell (a2850807a9bf4ad07a5b6933b78d9264)
REM AIRSS Version 0.9.1 bugfix July 2018 build 013d7b7c2542+ Fri, 06 Jul 2018 19:26:36 +0100
REM compiler GCC version 9.2.1 20190827 (Red Hat 9.2.1-1)
REM options -cpp -mtune=generic -march=x86-64 -g -O0 -fpre-include=/usr/include/finclude/math-vector-fortran.h
REM seed 269892475 -326160383 1132811717 -843065271 699182174 -2092070113 1057206774 -898645307 2122322722 1902776040 -1878149728 921893457 -1004680268 1146319398 1080134763 1588547555 -1374240525 -1539421539 -1956626214 613021584 -287412171 263972111 -1870020245 -921910982 -1068348860 598514640 1599635541 -927805009 -1563766916 1568739511 -1629019981 -657998764 -963353274
REM
CELL 1.54180   15.00000   15.00000   15.00000   90.00000   90.00000   90.00000
LATT -1
SFAC C  
C      1  0.5572820000000  0.4790750000000  0.7056530000000 1.0
C      1  0.3505430000000  0.5209280000000  0.6524340000000 1.0
C      1  0.2932590000000  0.4790770000000  0.4467840000000 1.0
C      1  0.4427180000000  0.5209250000000  0.2943470000000 1.0
C      1  0.6494570000000  0.4790720000000  0.3475660000000 1.0
C      1  0.7067410000000  0.5209230000000  0.5532160000000 1.0
C      1  0.4280980000000  0.4353970000000  0.3415380000000 1.0
C      1  0.6012820000000  0.5646010000000  0.3585010000000 1.0
C      1  0.6731820000000  0.4353950000000  0.5169630000000 1.0
C      1  0.5719020000000  0.5646030000000  0.6584620000000 1.0
C      1  0.3987180000000  0.4353990000000  0.6414990000000 1.0
C      1  0.3268180000000  0.5646050000000  0.4830370000000 1.0
C      1  0.4280560000000  0.6527610000000  0.6687350000000 1.0
C      1  0.3178960000000  0.3472430000000  0.5220610000000 1.0
C      1  0.3898460000000  0.6527600000000  0.3533250000000 1.0
C      1  0.5719440000000  0.3472390000000  0.3312650000000 1.0
C      1  0.6821040000000  0.6527570000000  0.4779390000000 1.0
C      1  0.6101540000000  0.3472400000000  0.6466750000000 1.0
C      1  0.6816290000000  0.4170780000000  0.4176680000000 1.0
C      1  0.6621180000000  0.5829180000000  0.6161300000000 1.0
C      1  0.4804860000000  0.4170810000000  0.6984640000000 1.0
C      1  0.3183710000000  0.5829220000000  0.5823320000000 1.0
C      1  0.3378820000000  0.4170820000000  0.3838700000000 1.0
C      1  0.5195140000000  0.5829190000000  0.3015360000000 1.0
C      1  0.2650130000000  0.4242000000000  0.5152250000000 1.0
C      1  0.3693240000000  0.5758030000000  0.3041090000000 1.0
C      1  0.6043060000000  0.4241960000000  0.2888850000000 1.0
C      1  0.7349870000000  0.5758000000000  0.4847750000000 1.0
C      1  0.6306760000000  0.4241970000000  0.6958910000000 1.0
C      1  0.3956940000000  0.5758040000000  0.7111150000000 1.0
C      1  0.4490790000000  0.2917020000000  0.6121580000000 1.0
C      1  0.3774110000000  0.7083000000000  0.5119810000000 1.0
C      1  0.4283260000000  0.2917020000000  0.3998250000000 1.0
C      1  0.5509210000000  0.7082980000000  0.3878420000000 1.0
C      1  0.6225890000000  0.2917000000000  0.4880190000000 1.0
C      1  0.5716740000000  0.7082980000000  0.6001750000000 1.0
C      1  0.4694760000000  0.2282820000000  0.4550370000000 1.0
C      1  0.5236810000000  0.7717170000000  0.4510850000000 1.0
C      1  0.5541980000000  0.2282810000000  0.4960500000000 1.0
C      1  0.5305240000000  0.7717180000000  0.5449630000000 1.0
C      1  0.4763190000000  0.2282830000000  0.5489150000000 1.0
C      1  0.4458020000000  0.7717190000000  0.5039500000000 1.0
C      1  0.6517800000000  0.6636190000000  0.5701640000000 1.0
C      1  0.5151230000000  0.3363790000000  0.6665270000000 1.0
C      1  0.3633480000000  0.6636230000000  0.5963610000000 1.0
C      1  0.3482200000000  0.3363810000000  0.4298360000000 1.0
C      1  0.4848770000000  0.6636210000000  0.3334730000000 1.0
C      1  0.6366520000000  0.3363770000000  0.4036390000000 1.0
C      1  0.4110560000000  0.5091260000000  0.4898830000000 1.0
C      1  0.4642890000000  0.4908750000000  0.4179130000000 1.0
C      1  0.5532340000000  0.5091240000000  0.4280300000000 1.0
C      1  0.5889440000000  0.4908740000000  0.5101170000000 1.0
C      1  0.5357110000000  0.5091250000000  0.5820870000000 1.0
C      1  0.4467660000000  0.4908760000000  0.5719700000000 1.0
C      1  0.4767030000000  0.3491350000000  0.3418710000000 1.0
C      1  0.6252970000000  0.6508630000000  0.4007610000000 1.0
C      1  0.6485890000000  0.3491340000000  0.5588900000000 1.0
C      1  0.5232970000000  0.6508650000000  0.6581290000000 1.0
C      1  0.3747030000000  0.3491370000000  0.5992390000000 1.0
C      1  0.3514110000000  0.6508660000000  0.4411100000000 1.0
END
