TITL C-2158988-7926-510 -0.00149039576525728 3375 -404.323726365115 0 0 60 (Cs) n - 1
REM
REM in /scratch/bkarasulu/868
REM
REM
REM
REM
REM
REM ./C.cell (a2850807a9bf4ad07a5b6933b78d9264)
REM AIRSS Version 0.9.1 bugfix July 2018 build 013d7b7c2542+ Fri, 06 Jul 2018 19:26:36 +0100
REM compiler GCC version 9.2.1 20190827 (Red Hat 9.2.1-1)
REM options -cpp -mtune=generic -march=x86-64 -g -O0 -fpre-include=/usr/include/finclude/math-vector-fortran.h
REM seed -1963144516 1478460748 1953818256 -906244370 -1625910924 -249028435 470003959 1526899308 -865708373 -585468474 1080254630 -21363602 -1267242455 1204393514 -480177625 -1252440568 1616166582 694660966 1865946977 -719216627 -325335942 -2078218667 -1548135810 -978263285 -1439077112 476129072 -1045684931 898686624 -659553838 424077551 -1100504130 2094681237 1475903488
REM
CELL 1.54180   15.00000   15.00000   15.00000   90.00000   90.00000   90.00000
LATT -1
SFAC C  
C      1  0.6861680000000  0.5157060000000  0.5471040000000 1.0
C      1  0.6861680000000  0.5157060000000  0.4528960000000 1.0
C      1  0.3431730000000  0.3337350000000  0.6086560000000 1.0
C      1  0.3431730000000  0.3337350000000  0.3913440000000 1.0
C      1  0.3721940000000  0.4723980000000  0.5864860000000 1.0
C      1  0.3721940000000  0.4723980000000  0.4135140000000 1.0
C      1  0.3817820000000  0.6503470000000  0.5885680000000 1.0
C      1  0.3817820000000  0.6503470000000  0.4114320000000 1.0
C      1  0.4595770000000  0.4090240000000  0.5841130000000 1.0
C      1  0.4595770000000  0.4090240000000  0.4158870000000 1.0
C      1  0.4424860000000  0.7127580000000  0.5467100000000 1.0
C      1  0.4424860000000  0.7127580000000  0.4532900000000 1.0
C      1  0.6580610000000  0.6010680000000  0.4191140000000 1.0
C      1  0.6580610000000  0.6010680000000  0.5808860000000 1.0
C      1  0.5034260000000  0.5473950000000  0.5826950000000 1.0
C      1  0.5034260000000  0.5473950000000  0.4173050000000 1.0
C      1  0.5356410000000  0.4595560000000  0.5481760000000 1.0
C      1  0.5356410000000  0.4595560000000  0.4518240000000 1.0
C      1  0.4236390000000  0.3170130000000  0.4481440000000 1.0
C      1  0.4236390000000  0.3170130000000  0.5518560000000 1.0
C      1  0.6392930000000  0.4398920000000  0.5868820000000 1.0
C      1  0.6392930000000  0.4398920000000  0.4131180000000 1.0
C      1  0.4074180000000  0.5593240000000  0.5485330000000 1.0
C      1  0.4074180000000  0.5593240000000  0.4514670000000 1.0
C      1  0.6101100000000  0.4260360000000  0.3196720000000 1.0
C      1  0.6101100000000  0.4260360000000  0.6803280000000 1.0
C      1  0.5633280000000  0.6134140000000  0.5488660000000 1.0
C      1  0.5633280000000  0.6134140000000  0.4511340000000 1.0
C      1  0.3986060000000  0.5605040000000  0.2900460000000 1.0
C      1  0.3986060000000  0.5605040000000  0.7099540000000 1.0
C      1  0.5824610000000  0.2987360000000  0.4042240000000 1.0
C      1  0.5824610000000  0.2987360000000  0.5957760000000 1.0
C      1  0.5352680000000  0.4765180000000  0.2879400000000 1.0
C      1  0.5352680000000  0.4765180000000  0.7120600000000 1.0
C      1  0.6095220000000  0.7455230000000  0.5478640000000 1.0
C      1  0.6095220000000  0.7455230000000  0.4521360000000 1.0
C      1  0.5299700000000  0.6593270000000  0.6804430000000 1.0
C      1  0.5299700000000  0.6593270000000  0.3195570000000 1.0
C      1  0.3780240000000  0.3821960000000  0.3053880000000 1.0
C      1  0.3780240000000  0.3821960000000  0.6946120000000 1.0
C      1  0.6887050000000  0.6845590000000  0.5478760000000 1.0
C      1  0.6887050000000  0.6845590000000  0.4521240000000 1.0
C      1  0.3597070000000  0.6376290000000  0.3259960000000 1.0
C      1  0.3597070000000  0.6376290000000  0.6740040000000 1.0
C      1  0.3087200000000  0.4040240000000  0.5473160000000 1.0
C      1  0.3087200000000  0.4040240000000  0.4526840000000 1.0
C      1  0.4767830000000  0.3916950000000  0.3156330000000 1.0
C      1  0.4767830000000  0.3916950000000  0.6843670000000 1.0
C      1  0.5615370000000  0.3428430000000  0.6759750000000 1.0
C      1  0.5615370000000  0.3428430000000  0.3240250000000 1.0
C      1  0.5002280000000  0.5638040000000  0.6838540000000 1.0
C      1  0.5002280000000  0.5638040000000  0.3161460000000 1.0
C      1  0.6466930000000  0.3500230000000  0.5465500000000 1.0
C      1  0.6466930000000  0.3500230000000  0.4534500000000 1.0
C      1  0.5326010000000  0.7021470000000  0.4066360000000 1.0
C      1  0.5326010000000  0.7021470000000  0.5933640000000 1.0
C      1  0.5084810000000  0.2648420000000  0.4524020000000 1.0
C      1  0.5084810000000  0.2648420000000  0.5475980000000 1.0
C      1  0.3563980000000  0.4779630000000  0.6837920000000 1.0
C      1  0.3563980000000  0.4779630000000  0.3162080000000 1.0
END
