TITL C-2158988-7926-280 -0.00184600274571945 3375 -413.214485065192 0 0 60 (Cs) n - 1
REM
REM in /scratch/bkarasulu/868
REM
REM
REM
REM
REM
REM ./C.cell (a2850807a9bf4ad07a5b6933b78d9264)
REM AIRSS Version 0.9.1 bugfix July 2018 build 013d7b7c2542+ Fri, 06 Jul 2018 19:26:36 +0100
REM compiler GCC version 9.2.1 20190827 (Red Hat 9.2.1-1)
REM options -cpp -mtune=generic -march=x86-64 -g -O0 -fpre-include=/usr/include/finclude/math-vector-fortran.h
REM seed -243138550 1754139611 1115181418 1143391842 1141276590 28859619 -2115853864 456177812 -216226698 -6039686 -1430156960 -1444346754 1644314076 328967892 128438684 20360618 1018259494 -1345632766 -1642313972 1647771328 997347262 1989717366 1432585746 2142867204 962736706 -503388348 -63484128 -1832918378 2021770451 1846761984 1556765187 1985359831 -755476438
REM
CELL 1.54180   15.00000   15.00000   15.00000   90.00000   90.00000   90.00000
LATT -1
SFAC C  
C      1  0.6924440000000  0.5506180000000  0.5641840000000 1.0
C      1  0.3075560000000  0.5506180000000  0.5641840000000 1.0
C      1  0.5894780000000  0.3077200000000  0.4434540000000 1.0
C      1  0.4105220000000  0.3077200000000  0.4434540000000 1.0
C      1  0.4470660000000  0.4025700000000  0.4281310000000 1.0
C      1  0.5529340000000  0.4025700000000  0.4281310000000 1.0
C      1  0.3288210000000  0.6232450000000  0.5068900000000 1.0
C      1  0.6711790000000  0.6232450000000  0.5068900000000 1.0
C      1  0.6874660000000  0.4580020000000  0.5188940000000 1.0
C      1  0.3125340000000  0.4580020000000  0.5188940000000 1.0
C      1  0.4023240000000  0.5581100000000  0.7026070000000 1.0
C      1  0.5976760000000  0.5581100000000  0.7026070000000 1.0
C      1  0.5487460000000  0.6338260000000  0.6803000000000 1.0
C      1  0.4512540000000  0.6338260000000  0.6803000000000 1.0
C      1  0.4509830000000  0.4818030000000  0.2725020000000 1.0
C      1  0.5490170000000  0.4818030000000  0.2725020000000 1.0
C      1  0.4536550000000  0.5315350000000  0.5090380000000 1.0
C      1  0.5463450000000  0.5315350000000  0.5090380000000 1.0
C      1  0.5497280000000  0.5528230000000  0.4096370000000 1.0
C      1  0.4502720000000  0.5528230000000  0.4096370000000 1.0
C      1  0.5833050000000  0.4425410000000  0.5149780000000 1.0
C      1  0.4166950000000  0.4425410000000  0.5149780000000 1.0
C      1  0.5427650000000  0.2419170000000  0.3976560000000 1.0
C      1  0.4572350000000  0.2419170000000  0.3976560000000 1.0
C      1  0.4494250000000  0.3746360000000  0.5861720000000 1.0
C      1  0.5505750000000  0.3746360000000  0.5861720000000 1.0
C      1  0.4099640000000  0.4055510000000  0.6740860000000 1.0
C      1  0.5900360000000  0.4055510000000  0.6740860000000 1.0
C      1  0.5864960000000  0.6422460000000  0.3784010000000 1.0
C      1  0.4135040000000  0.6422460000000  0.3784010000000 1.0
C      1  0.6806740000000  0.4320200000000  0.6637230000000 1.0
C      1  0.3193260000000  0.4320200000000  0.6637230000000 1.0
C      1  0.5493320000000  0.6464340000000  0.2903980000000 1.0
C      1  0.4506680000000  0.6464340000000  0.2903980000000 1.0
C      1  0.3247360000000  0.5291730000000  0.6536600000000 1.0
C      1  0.6752640000000  0.5291730000000  0.6536600000000 1.0
C      1  0.5501920000000  0.5692410000000  0.2317100000000 1.0
C      1  0.4498080000000  0.5692410000000  0.2317100000000 1.0
C      1  0.5475760000000  0.7043170000000  0.4466800000000 1.0
C      1  0.4524240000000  0.7043170000000  0.4466800000000 1.0
C      1  0.6721350000000  0.6059120000000  0.4118890000000 1.0
C      1  0.3278650000000  0.6059120000000  0.4118890000000 1.0
C      1  0.5986190000000  0.6882610000000  0.5246590000000 1.0
C      1  0.4013810000000  0.6882610000000  0.5246590000000 1.0
C      1  0.7221330000000  0.4573900000000  0.4314210000000 1.0
C      1  0.2778670000000  0.4573900000000  0.4314210000000 1.0
C      1  0.2828620000000  0.3913630000000  0.5879650000000 1.0
C      1  0.7171380000000  0.3913630000000  0.5879650000000 1.0
C      1  0.6956310000000  0.3035340000000  0.5740470000000 1.0
C      1  0.3043690000000  0.3035340000000  0.5740470000000 1.0
C      1  0.4536920000000  0.4778260000000  0.7170130000000 1.0
C      1  0.5463080000000  0.4778260000000  0.7170130000000 1.0
C      1  0.3879440000000  0.3035440000000  0.5389940000000 1.0
C      1  0.6120560000000  0.3035440000000  0.5389940000000 1.0
C      1  0.4505740000000  0.6927610000000  0.6035790000000 1.0
C      1  0.5494260000000  0.6927610000000  0.6035790000000 1.0
C      1  0.6826020000000  0.5149290000000  0.3773250000000 1.0
C      1  0.3173980000000  0.5149290000000  0.3773250000000 1.0
C      1  0.4114850000000  0.4761520000000  0.3600050000000 1.0
C      1  0.5885150000000  0.4761520000000  0.3600050000000 1.0
END
