TITL C-2159255-4746-337 -0.00259067121118088 3375 -416.337637315051 0 0 60 (D6d) n - 1
REM
REM in /scratch/bkarasulu/871
REM
REM
REM
REM
REM
REM ./C.cell (a2850807a9bf4ad07a5b6933b78d9264)
REM AIRSS Version 0.9.1 bugfix July 2018 build 013d7b7c2542+ Fri, 06 Jul 2018 19:26:36 +0100
REM compiler GCC version 9.2.1 20190827 (Red Hat 9.2.1-1)
REM options -cpp -mtune=generic -march=x86-64 -g -O0 -fpre-include=/usr/include/finclude/math-vector-fortran.h
REM seed 857423578 -1569788259 -1718491179 -1778755277 1751977483 -1828945517 2131089311 1855060176 1715478298 1906359179 -1309290759 -834145104 1401654105 688921511 2085214535 253593011 -153311371 -364664570 1020285659 -419011091 -572272275 1480186493 2038091255 723675453 -1157383081 970248267 669672548 532033382 -890868595 -348797228 -944227964 -1071816919 487948915
REM
CELL 1.54180   15.00000   15.00000   15.00000   90.00000   90.00000   90.00000
LATT -1
SFAC C  
C      1  0.5747500000000  0.2382970000000  0.4421310000000 1.0
C      1  0.5936700000000  0.7617030000000  0.4872590000000 1.0
C      1  0.5874910000000  0.2382970000000  0.5358010000000 1.0
C      1  0.5578690000000  0.7617030000000  0.5747500000000 1.0
C      1  0.5127410000000  0.2382970000000  0.5936700000000 1.0
C      1  0.4641990000000  0.7617030000000  0.5874910000000 1.0
C      1  0.4252500000000  0.2382970000000  0.5578690000000 1.0
C      1  0.4063300000000  0.7617030000000  0.5127410000000 1.0
C      1  0.4125090000000  0.2382970000000  0.4641990000000 1.0
C      1  0.4421310000000  0.7617030000000  0.4252500000000 1.0
C      1  0.4872590000000  0.2382970000000  0.4063300000000 1.0
C      1  0.5358010000000  0.7617030000000  0.4125090000000 1.0
C      1  0.4351350000000  0.6589100000000  0.4162120000000 1.0
C      1  0.4857190000000  0.3410900000000  0.3950050000000 1.0
C      1  0.5401300000000  0.6589100000000  0.4019310000000 1.0
C      1  0.5837880000000  0.3410890000000  0.4351350000000 1.0
C      1  0.6049950000000  0.6589100000000  0.4857190000000 1.0
C      1  0.5980690000000  0.3410900000000  0.5401300000000 1.0
C      1  0.5648650000000  0.6589100000000  0.5837880000000 1.0
C      1  0.5142810000000  0.3410900000000  0.6049950000000 1.0
C      1  0.4598700000000  0.6589100000000  0.5980690000000 1.0
C      1  0.4162120000000  0.3410890000000  0.5648650000000 1.0
C      1  0.3950050000000  0.6589100000000  0.5142810000000 1.0
C      1  0.4019310000000  0.3410900000000  0.4598700000000 1.0
C      1  0.3986680000000  0.4527480000000  0.2947800000000 1.0
C      1  0.5148540000000  0.5472520000000  0.2716060000000 1.0
C      1  0.6270590000000  0.4527480000000  0.3096340000000 1.0
C      1  0.7052200000000  0.5472520000000  0.3986680000000 1.0
C      1  0.7283940000000  0.4527480000000  0.5148540000000 1.0
C      1  0.6903660000000  0.5472520000000  0.6270590000000 1.0
C      1  0.6013320000000  0.4527480000000  0.7052200000000 1.0
C      1  0.4851460000000  0.5472520000000  0.7283940000000 1.0
C      1  0.3729410000000  0.4527480000000  0.6903660000000 1.0
C      1  0.2947800000000  0.5472520000000  0.6013320000000 1.0
C      1  0.2716060000000  0.4527480000000  0.4851460000000 1.0
C      1  0.3096340000000  0.5472520000000  0.3729410000000 1.0
C      1  0.2838720000000  0.4527480000000  0.5753150000000 1.0
C      1  0.2751680000000  0.5472520000000  0.4571610000000 1.0
C      1  0.3267120000000  0.4527490000000  0.3504860000000 1.0
C      1  0.4246850000000  0.5472520000000  0.2838720000000 1.0
C      1  0.5428390000000  0.4527480000000  0.2751680000000 1.0
C      1  0.6495140000000  0.5472510000000  0.3267120000000 1.0
C      1  0.7161280000000  0.4527480000000  0.4246850000000 1.0
C      1  0.7248320000000  0.5472520000000  0.5428390000000 1.0
C      1  0.6732880000000  0.4527490000000  0.6495140000000 1.0
C      1  0.5753150000000  0.5472520000000  0.7161280000000 1.0
C      1  0.4571610000000  0.4527480000000  0.7248320000000 1.0
C      1  0.3504860000000  0.5472510000000  0.6732880000000 1.0
C      1  0.5728810000000  0.6044990000000  0.3218950000000 1.0
C      1  0.6521690000000  0.3955010000000  0.3821970000000 1.0
C      1  0.6906840000000  0.6044990000000  0.4740640000000 1.0
C      1  0.6781050000000  0.3955010000000  0.5728810000000 1.0
C      1  0.6178030000000  0.6044990000000  0.6521690000000 1.0
C      1  0.5259360000000  0.3955010000000  0.6906840000000 1.0
C      1  0.4271190000000  0.6044990000000  0.6781050000000 1.0
C      1  0.3478310000000  0.3955010000000  0.6178030000000 1.0
C      1  0.3093160000000  0.6044990000000  0.5259360000000 1.0
C      1  0.3218950000000  0.3955010000000  0.4271190000000 1.0
C      1  0.3821970000000  0.6044990000000  0.3478310000000 1.0
C      1  0.4740640000000  0.3955010000000  0.3093160000000 1.0
END
