TITL C-2158984-8299-646 -0.0021839464548722 3375 -405.19868535335 0 0 60 (D2h) n - 1
REM
REM in /scratch/bkarasulu/869
REM
REM
REM
REM
REM
REM ./C.cell (a2850807a9bf4ad07a5b6933b78d9264)
REM AIRSS Version 0.9.1 bugfix July 2018 build 013d7b7c2542+ Fri, 06 Jul 2018 19:26:36 +0100
REM compiler GCC version 9.2.1 20190827 (Red Hat 9.2.1-1)
REM options -cpp -mtune=generic -march=x86-64 -g -O0 -fpre-include=/usr/include/finclude/math-vector-fortran.h
REM seed 1093605941 -1882774087 -1721514297 -1017749143 -1706997608 2125674057 -1387703804 604384748 101599467 -1343487537 -462903012 1461600666 693009974 -1258806917 -563407087 1697046368 1897797276 -1916938582 -767417098 -1043974530 989753064 1455908734 -598242679 1554502643 759628223 268993024 1653162195 401665684 -2104019467 -1995713964 184459453 -1895155819 142142382
REM
CELL 1.54180   15.00000   15.00000   15.00000   90.00000   90.00000   90.00000
LATT -1
SFAC C  
C      1  0.4076890000000  0.4196520000000  0.6153360000000 1.0
C      1  0.5923110000000  0.4196520000000  0.3846640000000 1.0
C      1  0.4076890000000  0.5803480000000  0.6153360000000 1.0
C      1  0.5923110000000  0.5803480000000  0.3846640000000 1.0
C      1  0.4076890000000  0.4196520000000  0.3846640000000 1.0
C      1  0.5923110000000  0.4196520000000  0.6153360000000 1.0
C      1  0.4076890000000  0.5803480000000  0.3846640000000 1.0
C      1  0.5923110000000  0.5803480000000  0.6153360000000 1.0
C      1  0.3950810000000  0.7192820000000  0.5481900000000 1.0
C      1  0.6049190000000  0.7192820000000  0.4518100000000 1.0
C      1  0.3950810000000  0.2807180000000  0.5481900000000 1.0
C      1  0.6049190000000  0.2807180000000  0.4518100000000 1.0
C      1  0.3950810000000  0.7192820000000  0.4518100000000 1.0
C      1  0.6049190000000  0.7192820000000  0.5481900000000 1.0
C      1  0.3950810000000  0.2807180000000  0.4518100000000 1.0
C      1  0.6049190000000  0.2807180000000  0.5481900000000 1.0
C      1  0.3530950000000  0.4534540000000  0.2804610000000 1.0
C      1  0.6469050000000  0.4534540000000  0.7195390000000 1.0
C      1  0.3530950000000  0.5465460000000  0.2804610000000 1.0
C      1  0.6469050000000  0.5465460000000  0.7195390000000 1.0
C      1  0.3530950000000  0.4534540000000  0.7195390000000 1.0
C      1  0.6469050000000  0.4534540000000  0.2804610000000 1.0
C      1  0.3530950000000  0.5465460000000  0.7195390000000 1.0
C      1  0.6469050000000  0.5465460000000  0.2804610000000 1.0
C      1  0.6957570000000  0.3210810000000  0.5481290000000 1.0
C      1  0.3042430000000  0.3210810000000  0.4518710000000 1.0
C      1  0.6957570000000  0.6789190000000  0.5481290000000 1.0
C      1  0.3042430000000  0.6789190000000  0.4518710000000 1.0
C      1  0.6957570000000  0.3210810000000  0.4518710000000 1.0
C      1  0.3042430000000  0.3210810000000  0.5481290000000 1.0
C      1  0.6957570000000  0.6789190000000  0.4518710000000 1.0
C      1  0.3042430000000  0.6789190000000  0.5481290000000 1.0
C      1  0.7306800000000  0.4504240000000  0.6636490000000 1.0
C      1  0.2693200000000  0.4504240000000  0.3363510000000 1.0
C      1  0.7306800000000  0.5495760000000  0.6636490000000 1.0
C      1  0.2693200000000  0.5495760000000  0.3363510000000 1.0
C      1  0.7306800000000  0.4504240000000  0.3363510000000 1.0
C      1  0.2693200000000  0.4504240000000  0.6636490000000 1.0
C      1  0.7306800000000  0.5495760000000  0.3363510000000 1.0
C      1  0.2693200000000  0.5495760000000  0.6636490000000 1.0
C      1  0.4540980000000  0.3368290000000  0.5959090000000 1.0
C      1  0.5459020000000  0.3368290000000  0.4040910000000 1.0
C      1  0.4540980000000  0.6631710000000  0.5959090000000 1.0
C      1  0.5459020000000  0.6631710000000  0.4040910000000 1.0
C      1  0.4540980000000  0.3368290000000  0.4040910000000 1.0
C      1  0.5459020000000  0.3368290000000  0.5959090000000 1.0
C      1  0.4540980000000  0.6631710000000  0.4040910000000 1.0
C      1  0.5459020000000  0.6631710000000  0.5959090000000 1.0
C      1  0.6875360000000  0.5949550000000  0.4066540000000 1.0
C      1  0.3124640000000  0.5949550000000  0.5933460000000 1.0
C      1  0.6875360000000  0.4050450000000  0.4066540000000 1.0
C      1  0.3124640000000  0.4050450000000  0.5933460000000 1.0
C      1  0.6875360000000  0.5949550000000  0.5933460000000 1.0
C      1  0.3124640000000  0.5949550000000  0.4066540000000 1.0
C      1  0.6875360000000  0.4050450000000  0.5933460000000 1.0
C      1  0.3124640000000  0.4050450000000  0.4066540000000 1.0
C      1  0.4543610000000  0.5000000000000  0.5968810000000 1.0
C      1  0.5456390000000  0.5000000000000  0.4031190000000 1.0
C      1  0.4543610000000  0.5000000000000  0.4031190000000 1.0
C      1  0.5456390000000  0.5000000000000  0.5968810000000 1.0
END
