TITL C-2159255-4746-700 -0.00267450461077123 3375 -401.319581015965 0 0 60 (C4v) n - 1
REM
REM in /scratch/bkarasulu/871
REM
REM
REM
REM
REM
REM ./C.cell (a2850807a9bf4ad07a5b6933b78d9264)
REM AIRSS Version 0.9.1 bugfix July 2018 build 013d7b7c2542+ Fri, 06 Jul 2018 19:26:36 +0100
REM compiler GCC version 9.2.1 20190827 (Red Hat 9.2.1-1)
REM options -cpp -mtune=generic -march=x86-64 -g -O0 -fpre-include=/usr/include/finclude/math-vector-fortran.h
REM seed 227798937 -688939547 1614974720 1137434644 1143101570 -1532724142 489922992 -440225221 1989608453 1887207936 -1011592230 1823470448 1700422225 1780255825 -560433004 1810720638 1795690520 2147073804 -2110149870 1435231066 -2026761195 -1309131620 -682917777 1711227184 -1436926935 515841910 -1612174492 1223793991 1055927509 740081638 -961444553 -1373898321 1663988836
REM
CELL 1.54180   15.00000   15.00000   15.00000   90.00000   90.00000   90.00000
LATT -1
SFAC C  
C      1  0.6936800000000  0.4055690000000  0.3363470000000 1.0
C      1  0.6936800000000  0.6636530000000  0.4055690000000 1.0
C      1  0.6936800000000  0.5944310000000  0.6636530000000 1.0
C      1  0.6936800000000  0.3363470000000  0.5944310000000 1.0
C      1  0.6936800000000  0.4055690000000  0.6636530000000 1.0
C      1  0.6936800000000  0.6636530000000  0.5944310000000 1.0
C      1  0.6936800000000  0.5944310000000  0.3363470000000 1.0
C      1  0.6936800000000  0.3363470000000  0.4055690000000 1.0
C      1  0.5383720000000  0.5526240000000  0.6206030000000 1.0
C      1  0.5383720000000  0.3793970000000  0.5526240000000 1.0
C      1  0.5383720000000  0.4473760000000  0.3793970000000 1.0
C      1  0.5383720000000  0.6206030000000  0.4473760000000 1.0
C      1  0.5383720000000  0.5526240000000  0.3793970000000 1.0
C      1  0.5383720000000  0.3793970000000  0.4473760000000 1.0
C      1  0.5383720000000  0.4473760000000  0.6206030000000 1.0
C      1  0.5383720000000  0.6206030000000  0.5526240000000 1.0
C      1  0.6156610000000  0.6833490000000  0.5489790000000 1.0
C      1  0.6156610000000  0.4510210000000  0.6833490000000 1.0
C      1  0.6156610000000  0.3166510000000  0.4510210000000 1.0
C      1  0.6156610000000  0.5489790000000  0.3166510000000 1.0
C      1  0.6156610000000  0.6833490000000  0.4510210000000 1.0
C      1  0.6156610000000  0.4510210000000  0.3166510000000 1.0
C      1  0.6156610000000  0.3166510000000  0.5489790000000 1.0
C      1  0.6156610000000  0.5489790000000  0.6833490000000 1.0
C      1  0.7667450000000  0.4534830000000  0.3835270000000 1.0
C      1  0.7667450000000  0.6164730000000  0.4534830000000 1.0
C      1  0.7667450000000  0.5465170000000  0.6164730000000 1.0
C      1  0.7667450000000  0.3835270000000  0.5465170000000 1.0
C      1  0.7667450000000  0.4534830000000  0.6164730000000 1.0
C      1  0.7667450000000  0.6164730000000  0.5465170000000 1.0
C      1  0.7667450000000  0.5465170000000  0.3835270000000 1.0
C      1  0.7667450000000  0.3835270000000  0.4534830000000 1.0
C      1  0.2777260000000  0.4185920000000  0.3480750000000 1.0
C      1  0.2777260000000  0.6519250000000  0.4185920000000 1.0
C      1  0.2777260000000  0.5814080000000  0.6519250000000 1.0
C      1  0.2777260000000  0.3480750000000  0.5814080000000 1.0
C      1  0.2777260000000  0.4185920000000  0.6519250000000 1.0
C      1  0.2777260000000  0.6519250000000  0.5814080000000 1.0
C      1  0.2777260000000  0.5814080000000  0.3480750000000 1.0
C      1  0.2777260000000  0.3480750000000  0.4185920000000 1.0
C      1  0.4362440000000  0.6240550000000  0.5479480000000 1.0
C      1  0.4362440000000  0.4520520000000  0.6240550000000 1.0
C      1  0.4362440000000  0.3759450000000  0.4520520000000 1.0
C      1  0.4362440000000  0.5479480000000  0.3759450000000 1.0
C      1  0.4362440000000  0.6240550000000  0.4520520000000 1.0
C      1  0.4362440000000  0.4520520000000  0.3759450000000 1.0
C      1  0.4362440000000  0.3759450000000  0.5479480000000 1.0
C      1  0.4362440000000  0.5479480000000  0.6240550000000 1.0
C      1  0.3689200000000  0.3998010000000  0.3283800000000 1.0
C      1  0.3689200000000  0.6716200000000  0.3998010000000 1.0
C      1  0.3689200000000  0.6001990000000  0.6716200000000 1.0
C      1  0.3689200000000  0.3283800000000  0.6001990000000 1.0
C      1  0.3689200000000  0.3998010000000  0.6716200000000 1.0
C      1  0.3689200000000  0.6716200000000  0.6001990000000 1.0
C      1  0.3689200000000  0.6001990000000  0.3283800000000 1.0
C      1  0.3689200000000  0.3283800000000  0.3998010000000 1.0
C      1  0.2411940000000  0.3560680000000  0.5000000000000 1.0
C      1  0.2411940000000  0.5000000000000  0.3560680000000 1.0
C      1  0.2411940000000  0.6439320000000  0.5000000000000 1.0
C      1  0.2411940000000  0.5000000000000  0.6439320000000 1.0
END
