TITL C-2158988-7926-761 -0.00211926870739247 3375 -409.831898658223 0 0 60 (Ci) n - 1
REM
REM in /scratch/bkarasulu/868
REM
REM
REM
REM
REM
REM ./C.cell (a2850807a9bf4ad07a5b6933b78d9264)
REM AIRSS Version 0.9.1 bugfix July 2018 build 013d7b7c2542+ Fri, 06 Jul 2018 19:26:36 +0100
REM compiler GCC version 9.2.1 20190827 (Red Hat 9.2.1-1)
REM options -cpp -mtune=generic -march=x86-64 -g -O0 -fpre-include=/usr/include/finclude/math-vector-fortran.h
REM seed -900097569 1602248990 -473226990 -1922493471 -1842299995 191001375 -981551745 3170239 -1912332845 -329506967 -834587499 -736484147 1151681749 -1789006887 2069689279 -2003025972 -1480474262 2013003434 1235864857 -161413802 -1361770548 1097257965 1143901395 1917635194 1843474829 2063815979 -419399418 1296569427 -1586002200 -1743581224 -1684114396 -1881291836 558725563
REM
CELL 1.54180   15.00000   15.00000   15.00000   90.00000   90.00000   90.00000
LATT -1
SFAC C  
C      1  0.6369230000000  0.6555990000000  0.3974160000000 1.0
C      1  0.4806870000000  0.3543420000000  0.3395310000000 1.0
C      1  0.3406300000000  0.6567710000000  0.4402660000000 1.0
C      1  0.3630770000000  0.3444010000000  0.6025840000000 1.0
C      1  0.5193130000000  0.6456580000000  0.6604690000000 1.0
C      1  0.6593700000000  0.3432290000000  0.5597350000000 1.0
C      1  0.5614710000000  0.4464620000000  0.4700920000000 1.0
C      1  0.5597420000000  0.5335260000000  0.4416120000000 1.0
C      1  0.5006150000000  0.4099370000000  0.5216540000000 1.0
C      1  0.4385290000000  0.5535380000000  0.5299080000000 1.0
C      1  0.4402580000000  0.4664740000000  0.5583880000000 1.0
C      1  0.4993840000000  0.5900630000000  0.4783470000000 1.0
C      1  0.5774160000000  0.3528560000000  0.3313850000000 1.0
C      1  0.3947810000000  0.6560200000000  0.3583190000000 1.0
C      1  0.3162650000000  0.3463960000000  0.5194780000000 1.0
C      1  0.4225840000000  0.6471440000000  0.6686140000000 1.0
C      1  0.6052190000000  0.3439790000000  0.6416810000000 1.0
C      1  0.6837350000000  0.6536040000000  0.4805220000000 1.0
C      1  0.4336210000000  0.2966250000000  0.3988030000000 1.0
C      1  0.3716400000000  0.7116860000000  0.5124500000000 1.0
C      1  0.4392110000000  0.2893250000000  0.6132570000000 1.0
C      1  0.5663800000000  0.7033750000000  0.6011970000000 1.0
C      1  0.6283590000000  0.2883140000000  0.4875500000000 1.0
C      1  0.5607890000000  0.7106750000000  0.3867430000000 1.0
C      1  0.7012940000000  0.4221560000000  0.5210110000000 1.0
C      1  0.6130520000000  0.5652430000000  0.3603170000000 1.0
C      1  0.4270380000000  0.4336850000000  0.3271670000000 1.0
C      1  0.2987060000000  0.5778440000000  0.4789890000000 1.0
C      1  0.3869470000000  0.4347570000000  0.6396830000000 1.0
C      1  0.5729630000000  0.5663150000000  0.6728330000000 1.0
C      1  0.6913810000000  0.4146140000000  0.4212980000000 1.0
C      1  0.5274910000000  0.5825210000000  0.3059160000000 1.0
C      1  0.3509820000000  0.4269930000000  0.3878970000000 1.0
C      1  0.3086180000000  0.5853860000000  0.5787020000000 1.0
C      1  0.4725080000000  0.4174790000000  0.6940840000000 1.0
C      1  0.6490190000000  0.5730070000000  0.6121030000000 1.0
C      1  0.5475970000000  0.4800880000000  0.7053360000000 1.0
C      1  0.7055630000000  0.5130400000000  0.5550460000000 1.0
C      1  0.6663530000000  0.4805540000000  0.3482540000000 1.0
C      1  0.4524030000000  0.5199120000000  0.2946640000000 1.0
C      1  0.2944370000000  0.4869610000000  0.4449540000000 1.0
C      1  0.3336470000000  0.5194460000000  0.6517460000000 1.0
C      1  0.4920310000000  0.6645270000000  0.3364730000000 1.0
C      1  0.3566320000000  0.3428520000000  0.4316900000000 1.0
C      1  0.3573490000000  0.6654450000000  0.5960080000000 1.0
C      1  0.5079680000000  0.3354730000000  0.6635280000000 1.0
C      1  0.6433680000000  0.6571480000000  0.5683110000000 1.0
C      1  0.6426500000000  0.3345560000000  0.4039920000000 1.0
C      1  0.3849900000000  0.5720010000000  0.7061560000000 1.0
C      1  0.6157770000000  0.4237750000000  0.6832230000000 1.0
C      1  0.7286050000000  0.5737040000000  0.4897560000000 1.0
C      1  0.6150100000000  0.4279990000000  0.2938430000000 1.0
C      1  0.3842230000000  0.5762250000000  0.3167770000000 1.0
C      1  0.2713950000000  0.4262960000000  0.5102440000000 1.0
C      1  0.5551750000000  0.2315110000000  0.5011920000000 1.0
C      1  0.5285950000000  0.7688330000000  0.4532730000000 1.0
C      1  0.4736420000000  0.2313540000000  0.4533310000000 1.0
C      1  0.4448250000000  0.7684890000000  0.4988090000000 1.0
C      1  0.4714040000000  0.2311670000000  0.5467270000000 1.0
C      1  0.5263580000000  0.7686450000000  0.5466690000000 1.0
END
