TITL C-2158988-7926-216 -0.00450482130455607 3375 -373.666063994163 0 0 60 (C2) n - 1
REM
REM in /scratch/bkarasulu/868
REM
REM
REM
REM
REM
REM ./C.cell (a2850807a9bf4ad07a5b6933b78d9264)
REM AIRSS Version 0.9.1 bugfix July 2018 build 013d7b7c2542+ Fri, 06 Jul 2018 19:26:36 +0100
REM compiler GCC version 9.2.1 20190827 (Red Hat 9.2.1-1)
REM options -cpp -mtune=generic -march=x86-64 -g -O0 -fpre-include=/usr/include/finclude/math-vector-fortran.h
REM seed -1253344011 -336766335 897399981 1026488842 649498523 -1940082492 -1638103173 -1102750103 -776017637 2106864469 1795198058 -633430801 103176246 1597956646 -1354110187 -349189604 -787730612 -1881730834 1985383453 -1773064367 589874292 609706314 -1539670764 31620667 -1220126078 1124498403 516010406 2090323747 1094411970 1949721922 -681616453 -1910932232 -1938404956
REM
CELL 1.54180   15.00000   15.00000   15.00000   90.00000   90.00000   90.00000
LATT -1
SFAC C  
C      1  0.4173340000000  0.2821570000000  0.5114760000000 1.0
C      1  0.4180670000000  0.3341700000000  0.6550070000000 1.0
C      1  0.4279120000000  0.4828760000000  0.7140460000000 1.0
C      1  0.4266720000000  0.5793520000000  0.6981350000000 1.0
C      1  0.4160650000000  0.6984590000000  0.5839420000000 1.0
C      1  0.4173340000000  0.7178430000000  0.4885240000000 1.0
C      1  0.4180670000000  0.6658300000000  0.3449930000000 1.0
C      1  0.4279120000000  0.5171240000000  0.2859540000000 1.0
C      1  0.4266720000000  0.4206480000000  0.3018650000000 1.0
C      1  0.4160650000000  0.3015410000000  0.4160580000000 1.0
C      1  0.5559850000000  0.5441990000000  0.2430170000000 1.0
C      1  0.5534650000000  0.3819030000000  0.2668520000000 1.0
C      1  0.5397770000000  0.2638990000000  0.3743220000000 1.0
C      1  0.5388560000000  0.2294980000000  0.5429010000000 1.0
C      1  0.5429840000000  0.3069480000000  0.6872670000000 1.0
C      1  0.5559850000000  0.4558010000000  0.7569830000000 1.0
C      1  0.5534640000000  0.6180970000000  0.7331480000000 1.0
C      1  0.5397770000000  0.7361010000000  0.6256780000000 1.0
C      1  0.5388560000000  0.7705020000000  0.4570990000000 1.0
C      1  0.5429840000000  0.6930520000000  0.3127330000000 1.0
C      1  0.4553810000000  0.2452820000000  0.3505960000000 1.0
C      1  0.4574420000000  0.1958970000000  0.5390330000000 1.0
C      1  0.4614130000000  0.2984720000000  0.7265060000000 1.0
C      1  0.4748270000000  0.4538730000000  0.7953640000000 1.0
C      1  0.4715390000000  0.6304980000000  0.7673790000000 1.0
C      1  0.4553810000000  0.7547180000000  0.6494040000000 1.0
C      1  0.4574420000000  0.8041030000000  0.4609670000000 1.0
C      1  0.4614130000000  0.7015280000000  0.2734940000000 1.0
C      1  0.4748270000000  0.5461270000000  0.2046360000000 1.0
C      1  0.4715390000000  0.3695020000000  0.2326210000000 1.0
C      1  0.5143380000000  0.3484320000000  0.4241220000000 1.0
C      1  0.5132730000000  0.3272810000000  0.5255450000000 1.0
C      1  0.5130410000000  0.3737300000000  0.6171640000000 1.0
C      1  0.5192450000000  0.4682120000000  0.6620670000000 1.0
C      1  0.5184440000000  0.5760420000000  0.6463070000000 1.0
C      1  0.5143380000000  0.6515680000000  0.5758780000000 1.0
C      1  0.5132730000000  0.6727190000000  0.4744550000000 1.0
C      1  0.5130410000000  0.6262700000000  0.3828360000000 1.0
C      1  0.5192450000000  0.5317880000000  0.3379330000000 1.0
C      1  0.5184440000000  0.4239580000000  0.3536930000000 1.0
C      1  0.3459390000000  0.4707240000000  0.6546990000000 1.0
C      1  0.3436160000000  0.5660520000000  0.6361500000000 1.0
C      1  0.3397490000000  0.6314740000000  0.5697910000000 1.0
C      1  0.3405070000000  0.6521310000000  0.4742180000000 1.0
C      1  0.3456840000000  0.6149990000000  0.3864780000000 1.0
C      1  0.3459390000000  0.5292760000000  0.3453010000000 1.0
C      1  0.3436160000000  0.4339480000000  0.3638500000000 1.0
C      1  0.3397490000000  0.3685260000000  0.4302090000000 1.0
C      1  0.3405070000000  0.3478690000000  0.5257820000000 1.0
C      1  0.3456840000000  0.3850010000000  0.6135220000000 1.0
C      1  0.7060250000000  0.6313430000000  0.5576750000000 1.0
C      1  0.6996900000000  0.6431800000000  0.4724300000000 1.0
C      1  0.7071250000000  0.6039260000000  0.3958500000000 1.0
C      1  0.7187280000000  0.5208530000000  0.3748940000000 1.0
C      1  0.7168790000000  0.4372990000000  0.3907550000000 1.0
C      1  0.7060250000000  0.3686560000000  0.4423250000000 1.0
C      1  0.6996900000000  0.3568200000000  0.5275700000000 1.0
C      1  0.7071250000000  0.3960740000000  0.6041500000000 1.0
C      1  0.7187280000000  0.4791460000000  0.6251060000000 1.0
C      1  0.7168790000000  0.5627010000000  0.6092450000000 1.0
END
