TITL C-2159252-5904-402 -0.00183710707504048 3375 -396.217248591866 0 0 60 (C3) n - 1
REM
REM in /scratch/bkarasulu/870
REM
REM
REM
REM
REM
REM ./C.cell (a2850807a9bf4ad07a5b6933b78d9264)
REM AIRSS Version 0.9.1 bugfix July 2018 build 013d7b7c2542+ Fri, 06 Jul 2018 19:26:36 +0100
REM compiler GCC version 9.2.1 20190827 (Red Hat 9.2.1-1)
REM options -cpp -mtune=generic -march=x86-64 -g -O0 -fpre-include=/usr/include/finclude/math-vector-fortran.h
REM seed -1558177311 1259640855 -1842585376 -512646714 612556740 1237596278 1690221017 100886503 891320599 1699036991 -1513842358 -204453237 271796125 534898923 -984570352 -1427479149 2019533338 1350408330 -1020014546 -1807263301 132237482 2096804188 31202273 1616224848 -68400422 792469169 1332916083 -1224647557 2144032551 1193194572 -1986072987 -438988348 -1546263703
REM
CELL 1.54180   15.00000   15.00000   15.00000   90.00000   90.00000   90.00000
LATT -1
SFAC C  
C      1  0.3544690000000  0.3953470000000  0.5069970000000 1.0
C      1  0.5788270000000  0.3953470000000  0.6225330000000 1.0
C      1  0.5667050000000  0.3953480000000  0.3704670000000 1.0
C      1  0.3710400000000  0.5259540000000  0.2859330000000 1.0
C      1  0.3790940000000  0.5259510000000  0.7187170000000 1.0
C      1  0.7498680000000  0.5259550000000  0.4953500000000 1.0
C      1  0.4715050000000  0.2532610000000  0.3790970000000 1.0
C      1  0.4095450000000  0.2532590000000  0.5851270000000 1.0
C      1  0.6189530000000  0.2532600000000  0.5357710000000 1.0
C      1  0.4861230000000  0.6686970000000  0.6795180000000 1.0
C      1  0.6624020000000  0.6687000000000  0.4222600000000 1.0
C      1  0.3514720000000  0.6686980000000  0.3982260000000 1.0
C      1  0.6666330000000  0.4379700000000  0.5954710000000 1.0
C      1  0.4993660000000  0.4379710000000  0.3079550000000 1.0
C      1  0.3340030000000  0.4379690000000  0.5965710000000 1.0
C      1  0.5464880000000  0.4319890000000  0.4654790000000 1.0
C      1  0.4468610000000  0.4319880000000  0.4770000000000 1.0
C      1  0.5066530000000  0.4319880000000  0.5575190000000 1.0
C      1  0.7152830000000  0.5882660000000  0.5545390000000 1.0
C      1  0.4395910000000  0.5882660000000  0.2862900000000 1.0
C      1  0.3451270000000  0.5882630000000  0.6591720000000 1.0
C      1  0.5690500000000  0.2938610000000  0.6082310000000 1.0
C      1  0.5592080000000  0.2938630000000  0.3860850000000 1.0
C      1  0.3717440000000  0.2938610000000  0.5056810000000 1.0
C      1  0.5855860000000  0.5222540000000  0.4686970000000 1.0
C      1  0.4300970000000  0.5222540000000  0.4415320000000 1.0
C      1  0.4843160000000  0.5222530000000  0.5897720000000 1.0
C      1  0.6532320000000  0.5311460000000  0.6175210000000 1.0
C      1  0.5251600000000  0.5311480000000  0.3085360000000 1.0
C      1  0.3216080000000  0.5311450000000  0.5739420000000 1.0
C      1  0.6161620000000  0.2473090000000  0.4505410000000 1.0
C      1  0.3990890000000  0.2473080000000  0.4241290000000 1.0
C      1  0.4847520000000  0.2473070000000  0.6253250000000 1.0
C      1  0.5525300000000  0.4556270000000  0.7031530000000 1.0
C      1  0.6496720000000  0.4556300000000  0.3529310000000 1.0
C      1  0.2977990000000  0.4556280000000  0.4439150000000 1.0
C      1  0.3347480000000  0.6865860000000  0.4887800000000 1.0
C      1  0.5729060000000  0.6865860000000  0.6487240000000 1.0
C      1  0.5923420000000  0.6865890000000  0.3625010000000 1.0
C      1  0.4014090000000  0.6621000000000  0.6412780000000 1.0
C      1  0.6716430000000  0.6621030000000  0.5147450000000 1.0
C      1  0.4269450000000  0.6621020000000  0.3439810000000 1.0
C      1  0.5158880000000  0.5597230000000  0.4098980000000 1.0
C      1  0.4140250000000  0.5597220000000  0.5312920000000 1.0
C      1  0.5700870000000  0.5597230000000  0.5588110000000 1.0
C      1  0.5091210000000  0.6590510000000  0.3910610000000 1.0
C      1  0.4010940000000  0.6590490000000  0.5465720000000 1.0
C      1  0.5897830000000  0.6590500000000  0.5623710000000 1.0
C      1  0.7204380000000  0.4411550000000  0.5178750000000 1.0
C      1  0.4052630000000  0.4411540000000  0.3001580000000 1.0
C      1  0.3743010000000  0.4411520000000  0.6819650000000 1.0
C      1  0.6049060000000  0.5335380000000  0.7049880000000 1.0
C      1  0.6250710000000  0.5335410000000  0.3066550000000 1.0
C      1  0.2700210000000  0.5335380000000  0.4883580000000 1.0
C      1  0.5588240000000  0.6186960000000  0.7124600000000 1.0
C      1  0.6545810000000  0.6186990000000  0.3428280000000 1.0
C      1  0.2865920000000  0.6186970000000  0.4447170000000 1.0
C      1  0.3558830000000  0.4874690000000  0.3712450000000 1.0
C      1  0.4605530000000  0.4874660000000  0.6891870000000 1.0
C      1  0.6835640000000  0.4874690000000  0.4395690000000 1.0
END
