TITL C-2158984-8299-401 -0.0020457393772668 3375 -407.052410082114 0 0 60 (C1) n - 1
REM
REM in /scratch/bkarasulu/869
REM
REM
REM
REM
REM
REM ./C.cell (a2850807a9bf4ad07a5b6933b78d9264)
REM AIRSS Version 0.9.1 bugfix July 2018 build 013d7b7c2542+ Fri, 06 Jul 2018 19:26:36 +0100
REM compiler GCC version 9.2.1 20190827 (Red Hat 9.2.1-1)
REM options -cpp -mtune=generic -march=x86-64 -g -O0 -fpre-include=/usr/include/finclude/math-vector-fortran.h
REM seed -449792798 -561029125 1129837683 1893435562 1388372534 -274193483 -458814225 -1392969192 1406813078 954125125 -2146527304 -652129083 2100239439 1562015964 -258355241 577286040 1474582701 -1523786707 -783917386 1389661824 -358147156 -218604448 702519494 17291070 -1233953356 -271127394 1204541812 240169197 -2083872092 -1876658048 2112238087 1479095125 1943260190
REM
CELL 1.54180   15.00000   15.00000   15.00000   90.00000   90.00000   90.00000
LATT -1
SFAC C  
C      1  0.6862770000000  0.4077350000000  0.3883280000000 1.0
C      1  0.3444360000000  0.6759170000000  0.4564700000000 1.0
C      1  0.4638220000000  0.3933310000000  0.6817470000000 1.0
C      1  0.6955240000000  0.5587830000000  0.5757590000000 1.0
C      1  0.3205020000000  0.5310070000000  0.4056140000000 1.0
C      1  0.3160410000000  0.4520780000000  0.5799940000000 1.0
C      1  0.3691800000000  0.3027430000000  0.5426120000000 1.0
C      1  0.6012470000000  0.2625100000000  0.4481610000000 1.0
C      1  0.6361620000000  0.7026960000000  0.5333820000000 1.0
C      1  0.4541860000000  0.5982560000000  0.3423450000000 1.0
C      1  0.4968580000000  0.6524380000000  0.6947110000000 1.0
C      1  0.5301690000000  0.4327030000000  0.3261550000000 1.0
C      1  0.6771680000000  0.3278020000000  0.4368250000000 1.0
C      1  0.4340240000000  0.4777590000000  0.7001960000000 1.0
C      1  0.4235770000000  0.6735630000000  0.4112260000000 1.0
C      1  0.7101200000000  0.6412370000000  0.5385480000000 1.0
C      1  0.2969360000000  0.3702690000000  0.5389150000000 1.0
C      1  0.2811050000000  0.6004610000000  0.4559810000000 1.0
C      1  0.3807070000000  0.5416750000000  0.3199070000000 1.0
C      1  0.6205880000000  0.4531670000000  0.3252900000000 1.0
C      1  0.6200040000000  0.5338170000000  0.6310770000000 1.0
C      1  0.4481010000000  0.3260550000000  0.5991430000000 1.0
C      1  0.4858250000000  0.7189590000000  0.6244700000000 1.0
C      1  0.5232110000000  0.3011050000000  0.4259730000000 1.0
C      1  0.3042960000000  0.4359550000000  0.3793090000000 1.0
C      1  0.3663500000000  0.2986710000000  0.4410400000000 1.0
C      1  0.4475030000000  0.3834860000000  0.3190490000000 1.0
C      1  0.2933270000000  0.5364760000000  0.6206190000000 1.0
C      1  0.7055060000000  0.5632810000000  0.3908730000000 1.0
C      1  0.6905080000000  0.4084600000000  0.5783190000000 1.0
C      1  0.3349540000000  0.6838290000000  0.5542470000000 1.0
C      1  0.6502920000000  0.7068010000000  0.4336830000000 1.0
C      1  0.6093840000000  0.2713940000000  0.5492900000000 1.0
C      1  0.4003440000000  0.6402380000000  0.7004680000000 1.0
C      1  0.5591240000000  0.6147980000000  0.3253080000000 1.0
C      1  0.5599280000000  0.3761090000000  0.6700470000000 1.0
C      1  0.2975130000000  0.3654600000000  0.4394930000000 1.0
C      1  0.3752350000000  0.4431240000000  0.3130750000000 1.0
C      1  0.4407310000000  0.3081580000000  0.3811150000000 1.0
C      1  0.2807460000000  0.6035070000000  0.5563510000000 1.0
C      1  0.6844960000000  0.3278750000000  0.5335940000000 1.0
C      1  0.7205720000000  0.6426280000000  0.4387370000000 1.0
C      1  0.3665660000000  0.5529140000000  0.6877480000000 1.0
C      1  0.6259530000000  0.4383330000000  0.6425410000000 1.0
C      1  0.6336440000000  0.5510470000000  0.3268070000000 1.0
C      1  0.3908340000000  0.7046960000000  0.6258460000000 1.0
C      1  0.5461850000000  0.2980920000000  0.6112910000000 1.0
C      1  0.5730930000000  0.6816050000000  0.3919060000000 1.0
C      1  0.5332690000000  0.3960040000000  0.4775360000000 1.0
C      1  0.5441240000000  0.6739940000000  0.5543230000000 1.0
C      1  0.5077680000000  0.6589960000000  0.4612470000000 1.0
C      1  0.4569490000000  0.5268260000000  0.6187650000000 1.0
C      1  0.5380080000000  0.5864060000000  0.6264690000000 1.0
C      1  0.4079670000000  0.4771140000000  0.5468530000000 1.0
C      1  0.4858750000000  0.5522590000000  0.4342670000000 1.0
C      1  0.7261500000000  0.4814790000000  0.5303400000000 1.0
C      1  0.7275270000000  0.4804640000000  0.4351980000000 1.0
C      1  0.5372740000000  0.4701360000000  0.4206630000000 1.0
C      1  0.4022210000000  0.5242010000000  0.4678050000000 1.0
C      1  0.4600140000000  0.3991150000000  0.5329490000000 1.0
END
