TITL C-2159255-4746-1175 -0.0013788515991852 3375 -404.859193973394 0 0 60 (C1) n - 1
REM
REM in /scratch/bkarasulu/871
REM
REM
REM
REM
REM
REM ./C.cell (a2850807a9bf4ad07a5b6933b78d9264)
REM AIRSS Version 0.9.1 bugfix July 2018 build 013d7b7c2542+ Fri, 06 Jul 2018 19:26:36 +0100
REM compiler GCC version 9.2.1 20190827 (Red Hat 9.2.1-1)
REM options -cpp -mtune=generic -march=x86-64 -g -O0 -fpre-include=/usr/include/finclude/math-vector-fortran.h
REM seed -1240816552 1654430373 -944199304 -263179639 855914225 1185207147 -211522042 2077797548 1821777477 1272258262 169740954 -2016141725 966057389 -1733517457 249680536 -1622595138 -604529685 95695328 -1195447723 -469915914 345723425 -1795927631 -1155369448 1717415614 -1014768044 -808795561 423817012 1923230463 -345797825 -337810856 328075385 -457747412 -520473304
REM
CELL 1.54180   15.00000   15.00000   15.00000   90.00000   90.00000   90.00000
LATT -1
SFAC C  
C      1  0.5038020000000  0.4688230000000  0.6010350000000 1.0
C      1  0.5030450000000  0.6019110000000  0.4744150000000 1.0
C      1  0.5050180000000  0.4177780000000  0.4155120000000 1.0
C      1  0.5373920000000  0.6658630000000  0.6362580000000 1.0
C      1  0.5381310000000  0.5438030000000  0.2867550000000 1.0
C      1  0.5382550000000  0.2966760000000  0.5850510000000 1.0
C      1  0.4956270000000  0.5309930000000  0.6748210000000 1.0
C      1  0.4949890000000  0.6413020000000  0.3864810000000 1.0
C      1  0.4976430000000  0.3251580000000  0.4478660000000 1.0
C      1  0.4948720000000  0.6941770000000  0.5016940000000 1.0
C      1  0.4955560000000  0.4162080000000  0.3172780000000 1.0
C      1  0.4951610000000  0.4019500000000  0.6704090000000 1.0
C      1  0.4116810000000  0.5761490000000  0.6710040000000 1.0
C      1  0.4111690000000  0.6166730000000  0.3478340000000 1.0
C      1  0.4133170000000  0.3085750000000  0.4875010000000 1.0
C      1  0.6554300000000  0.6326990000000  0.3726990000000 1.0
C      1  0.6537190000000  0.3217130000000  0.4550800000000 1.0
C      1  0.6541380000000  0.5448590000000  0.6762790000000 1.0
C      1  0.3488160000000  0.6259730000000  0.4977820000000 1.0
C      1  0.3507840000000  0.4340290000000  0.3870890000000 1.0
C      1  0.3495200000000  0.4374700000000  0.6104240000000 1.0
C      1  0.4096860000000  0.4517300000000  0.3045440000000 1.0
C      1  0.4104320000000  0.3659090000000  0.6480910000000 1.0
C      1  0.4106670000000  0.6905800000000  0.5446300000000 1.0
C      1  0.4392430000000  0.5413730000000  0.2960420000000 1.0
C      1  0.4395080000000  0.3067420000000  0.5789920000000 1.0
C      1  0.4394410000000  0.6572460000000  0.6292120000000 1.0
C      1  0.6758460000000  0.4390860000000  0.5708660000000 1.0
C      1  0.6746260000000  0.5894030000000  0.5158180000000 1.0
C      1  0.6784540000000  0.4670630000000  0.4117300000000 1.0
C      1  0.6654940000000  0.4630220000000  0.7201090000000 1.0
C      1  0.6665740000000  0.7100470000000  0.4253370000000 1.0
C      1  0.6436440000000  0.3344280000000  0.3636190000000 1.0
C      1  0.2794210000000  0.3924900000000  0.5614470000000 1.0
C      1  0.2793860000000  0.6050300000000  0.5608510000000 1.0
C      1  0.2800470000000  0.4979960000000  0.3767990000000 1.0
C      1  0.5714920000000  0.3453850000000  0.6600320000000 1.0
C      1  0.5706600000000  0.7102150000000  0.5578230000000 1.0
C      1  0.5738520000000  0.4551570000000  0.2823030000000 1.0
C      1  0.6994480000000  0.5327860000000  0.5911060000000 1.0
C      1  0.6984060000000  0.5620930000000  0.4247750000000 1.0
C      1  0.7021190000000  0.4016800000000  0.4839330000000 1.0
C      1  0.5814430000000  0.4671710000000  0.5458710000000 1.0
C      1  0.5813850000000  0.5533800000000  0.4971830000000 1.0
C      1  0.5822640000000  0.4672470000000  0.4479130000000 1.0
C      1  0.6545600000000  0.3944580000000  0.6594610000000 1.0
C      1  0.6532710000000  0.6878760000000  0.5133500000000 1.0
C      1  0.6526640000000  0.4187840000000  0.3277870000000 1.0
C      1  0.4254890000000  0.4635340000000  0.4488900000000 1.0
C      1  0.4245900000000  0.4721990000000  0.5476050000000 1.0
C      1  0.4235570000000  0.5537600000000  0.4946960000000 1.0
C      1  0.3310220000000  0.6176020000000  0.3993010000000 1.0
C      1  0.3357940000000  0.3532190000000  0.4495500000000 1.0
C      1  0.3312660000000  0.5284200000000  0.6499130000000 1.0
C      1  0.2485920000000  0.5750930000000  0.6344230000000 1.0
C      1  0.2508450000000  0.5772170000000  0.3655310000000 1.0
C      1  0.2528600000000  0.3443860000000  0.4962510000000 1.0
C      1  0.5705220000000  0.5894160000000  0.6807520000000 1.0
C      1  0.5707520000000  0.6191400000000  0.3327720000000 1.0
C      1  0.5726130000000  0.2948550000000  0.4974260000000 1.0
END
