TITL C-2159255-4746-702 -0.00370136766708844 3375 -381.650115182352 0 0 60 (S12) n - 1
REM
REM in /scratch/bkarasulu/871
REM
REM
REM
REM
REM
REM ./C.cell (a2850807a9bf4ad07a5b6933b78d9264)
REM AIRSS Version 0.9.1 bugfix July 2018 build 013d7b7c2542+ Fri, 06 Jul 2018 19:26:36 +0100
REM compiler GCC version 9.2.1 20190827 (Red Hat 9.2.1-1)
REM options -cpp -mtune=generic -march=x86-64 -g -O0 -fpre-include=/usr/include/finclude/math-vector-fortran.h
REM seed -1757399187 -1494765669 1794754908 -2025494926 618469280 -1421577347 765771204 1562766772 -1735744963 -1730269009 1301428901 -418263818 -353882386 -1604200057 -1704979013 923238604 -1028639400 1565088729 -1585673805 317057644 2045021103 32960648 -847083896 -1485625297 2061848360 -831961820 780634484 -1280077555 -1572065404 959376707 1242559482 -1220772147 1279635908
REM
CELL 1.54180   15.00000   15.00000   15.00000   90.00000   90.00000   90.00000
LATT -1
SFAC C  
C      1  0.2268500000000  0.4782570000000  0.5476920000000 1.0
C      1  0.2743210000000  0.3446040000000  0.4523050000000 1.0
C      1  0.3822570000000  0.2525770000000  0.5476920000000 1.0
C      1  0.5217430000000  0.2268500000000  0.4523080000000 1.0
C      1  0.6553960000000  0.2743210000000  0.5476950000000 1.0
C      1  0.7474230000000  0.3822570000000  0.4523080000000 1.0
C      1  0.7731500000000  0.5217430000000  0.5476920000000 1.0
C      1  0.7256790000000  0.6553960000000  0.4523050000000 1.0
C      1  0.6177430000000  0.7474230000000  0.5476920000000 1.0
C      1  0.4782570000000  0.7731500000000  0.4523080000000 1.0
C      1  0.3446040000000  0.7256790000000  0.5476950000000 1.0
C      1  0.2525770000000  0.6177430000000  0.4523080000000 1.0
C      1  0.7286360000000  0.4457810000000  0.5817670000000 1.0
C      1  0.7251100000000  0.5673470000000  0.4182370000000 1.0
C      1  0.6612740000000  0.6708900000000  0.5817650000000 1.0
C      1  0.5542190000000  0.7286360000000  0.4182330000000 1.0
C      1  0.4326530000000  0.7251100000000  0.5817630000000 1.0
C      1  0.3291100000000  0.6612740000000  0.4182350000000 1.0
C      1  0.2713640000000  0.5542190000000  0.5817670000000 1.0
C      1  0.2748900000000  0.4326530000000  0.4182370000000 1.0
C      1  0.3387260000000  0.3291100000000  0.5817650000000 1.0
C      1  0.4457810000000  0.2713640000000  0.4182330000000 1.0
C      1  0.5673470000000  0.2748900000000  0.5817630000000 1.0
C      1  0.6708900000000  0.3387260000000  0.4182350000000 1.0
C      1  0.3487730000000  0.4840200000000  0.4642460000000 1.0
C      1  0.3770210000000  0.4105460000000  0.5357590000000 1.0
C      1  0.4382230000000  0.3610390000000  0.4642440000000 1.0
C      1  0.5159800000000  0.3487730000000  0.5357540000000 1.0
C      1  0.5894540000000  0.3770210000000  0.4642410000000 1.0
C      1  0.6389610000000  0.4382230000000  0.5357560000000 1.0
C      1  0.6512270000000  0.5159800000000  0.4642460000000 1.0
C      1  0.6229790000000  0.5894540000000  0.5357590000000 1.0
C      1  0.5617770000000  0.6389610000000  0.4642440000000 1.0
C      1  0.4840200000000  0.6512270000000  0.5357540000000 1.0
C      1  0.4105460000000  0.6229790000000  0.4642410000000 1.0
C      1  0.3610390000000  0.5617770000000  0.5357560000000 1.0
C      1  0.7353100000000  0.6244850000000  0.5440710000000 1.0
C      1  0.6415380000000  0.7254570000000  0.4559260000000 1.0
C      1  0.5098510000000  0.7660340000000  0.5440710000000 1.0
C      1  0.3755150000000  0.7353100000000  0.4559290000000 1.0
C      1  0.2745430000000  0.6415380000000  0.5440740000000 1.0
C      1  0.2339660000000  0.5098510000000  0.4559290000000 1.0
C      1  0.2646900000000  0.3755150000000  0.5440710000000 1.0
C      1  0.3584620000000  0.2745430000000  0.4559260000000 1.0
C      1  0.4901490000000  0.2339660000000  0.5440710000000 1.0
C      1  0.6244850000000  0.2646900000000  0.4559290000000 1.0
C      1  0.7254570000000  0.3584620000000  0.5440740000000 1.0
C      1  0.7660340000000  0.4901490000000  0.4559290000000 1.0
C      1  0.4520730000000  0.5757830000000  0.3895090000000 1.0
C      1  0.4206000000000  0.5416680000000  0.6104900000000 1.0
C      1  0.4104050000000  0.4963850000000  0.3895100000000 1.0
C      1  0.4242170000000  0.4520730000000  0.6104910000000 1.0
C      1  0.4583310000000  0.4206000000000  0.3895100000000 1.0
C      1  0.5036150000000  0.4104050000000  0.6104900000000 1.0
C      1  0.5479270000000  0.4242170000000  0.3895090000000 1.0
C      1  0.5794000000000  0.4583310000000  0.6104900000000 1.0
C      1  0.5895950000000  0.5036150000000  0.3895100000000 1.0
C      1  0.5757840000000  0.5479270000000  0.6104910000000 1.0
C      1  0.5416680000000  0.5794000000000  0.3895100000000 1.0
C      1  0.4963850000000  0.5895950000000  0.6104900000000 1.0
END
