TITL C-2159255-4746-236 -0.00618814270440578 3375 -416.902114578119 0 0 60 (C4v) n - 1
REM
REM in /scratch/bkarasulu/871
REM
REM
REM
REM
REM
REM ./C.cell (a2850807a9bf4ad07a5b6933b78d9264)
REM AIRSS Version 0.9.1 bugfix July 2018 build 013d7b7c2542+ Fri, 06 Jul 2018 19:26:36 +0100
REM compiler GCC version 9.2.1 20190827 (Red Hat 9.2.1-1)
REM options -cpp -mtune=generic -march=x86-64 -g -O0 -fpre-include=/usr/include/finclude/math-vector-fortran.h
REM seed 173921978 -792936061 969218073 -1119389372 1836196595 250047081 -1019161819 -1923714331 -872417367 59467978 112268007 -280075422 -111923494 1823853488 -438654302 1393539704 -1087254684 430669468 1583428237 -1212476575 -1246396477 -1668000920 107270201 -2143073046 -299821749 -145309419 -1789815829 1830236207 131518112 1263828802 -2059611341 -1220366242 -74397828
REM
CELL 1.54180   15.00000   15.00000   15.00000   90.00000   90.00000   90.00000
LATT -1
SFAC C  
C      1  0.3203200000000  0.3672630000000  0.4481050000000 1.0
C      1  0.3186200000000  0.3672630000000  0.5455970000000 1.0
C      1  0.3702970000000  0.3807260000000  0.6252550000000 1.0
C      1  0.4481050000000  0.3672630000000  0.6796800000000 1.0
C      1  0.5455970000000  0.3672630000000  0.6813800000000 1.0
C      1  0.6252550000000  0.3807260000000  0.6297030000000 1.0
C      1  0.6796800000000  0.3672630000000  0.5518950000000 1.0
C      1  0.6813800000000  0.3672630000000  0.4544030000000 1.0
C      1  0.6297030000000  0.3807260000000  0.3747450000000 1.0
C      1  0.5518950000000  0.3672630000000  0.3203200000000 1.0
C      1  0.4544030000000  0.3672630000000  0.3186200000000 1.0
C      1  0.3747450000000  0.3807260000000  0.3702970000000 1.0
C      1  0.7630250000000  0.4219180000000  0.5750720000000 1.0
C      1  0.7654850000000  0.4219170000000  0.4341470000000 1.0
C      1  0.6821460000000  0.4516120000000  0.3241010000000 1.0
C      1  0.5750720000000  0.4219180000000  0.2369750000000 1.0
C      1  0.4341470000000  0.4219170000000  0.2345150000000 1.0
C      1  0.3241010000000  0.4516130000000  0.3178540000000 1.0
C      1  0.2369750000000  0.4219180000000  0.4249280000000 1.0
C      1  0.2345150000000  0.4219180000000  0.5658530000000 1.0
C      1  0.3178540000000  0.4516130000000  0.6758990000000 1.0
C      1  0.4249280000000  0.4219180000000  0.7630250000000 1.0
C      1  0.5658530000000  0.4219180000000  0.7654850000000 1.0
C      1  0.6758990000000  0.4516120000000  0.6821460000000 1.0
C      1  0.4207280000000  0.5778640000000  0.2635880000000 1.0
C      1  0.2664980000000  0.5778630000000  0.4125300000000 1.0
C      1  0.2221740000000  0.5602960000000  0.4951530000000 1.0
C      1  0.2635880000000  0.5778640000000  0.5792720000000 1.0
C      1  0.4125300000000  0.5778630000000  0.7335020000000 1.0
C      1  0.4951530000000  0.5602960000000  0.7778260000000 1.0
C      1  0.5792720000000  0.5778640000000  0.7364120000000 1.0
C      1  0.7335020000000  0.5778630000000  0.5874700000000 1.0
C      1  0.7778260000000  0.5602960000000  0.5048470000000 1.0
C      1  0.7364120000000  0.5778630000000  0.4207280000000 1.0
C      1  0.5874700000000  0.5778630000000  0.2664980000000 1.0
C      1  0.5048470000000  0.5602960000000  0.2221740000000 1.0
C      1  0.6511160000000  0.6306400000000  0.5860700000000 1.0
C      1  0.6291880000000  0.6635080000000  0.5022540000000 1.0
C      1  0.6540270000000  0.6306400000000  0.4192530000000 1.0
C      1  0.5860700000000  0.6306400000000  0.3488840000000 1.0
C      1  0.5022540000000  0.6635080000000  0.3708120000000 1.0
C      1  0.4192540000000  0.6306400000000  0.3459730000000 1.0
C      1  0.3488840000000  0.6306400000000  0.4139300000000 1.0
C      1  0.3708120000000  0.6635080000000  0.4977460000000 1.0
C      1  0.3459730000000  0.6306400000000  0.5807460000000 1.0
C      1  0.4139300000000  0.6306400000000  0.6511160000000 1.0
C      1  0.4977460000000  0.6635080000000  0.6291880000000 1.0
C      1  0.5807470000000  0.6306400000000  0.6540270000000 1.0
C      1  0.2546200000000  0.4920270000000  0.6254250000000 1.0
C      1  0.3660930000000  0.4920270000000  0.7408550000000 1.0
C      1  0.4946780000000  0.4644350000000  0.8050530000000 1.0
C      1  0.6254250000000  0.4920270000000  0.7453800000000 1.0
C      1  0.7408550000000  0.4920270000000  0.6339070000000 1.0
C      1  0.8050530000000  0.4644350000000  0.5053220000000 1.0
C      1  0.7453800000000  0.4920270000000  0.3745750000000 1.0
C      1  0.6339070000000  0.4920270000000  0.2591450000000 1.0
C      1  0.5053220000000  0.4644350000000  0.1949470000000 1.0
C      1  0.3745750000000  0.4920270000000  0.2546200000000 1.0
C      1  0.2591450000000  0.4920270000000  0.3660930000000 1.0
C      1  0.1949470000000  0.4644350000000  0.4946780000000 1.0
END
