TITL C-2159255-4746-110 -0.00288478763679919 3375 -406.696768307732 0 0 60 (C1) n - 1
REM
REM in /scratch/bkarasulu/871
REM
REM
REM
REM
REM
REM ./C.cell (a2850807a9bf4ad07a5b6933b78d9264)
REM AIRSS Version 0.9.1 bugfix July 2018 build 013d7b7c2542+ Fri, 06 Jul 2018 19:26:36 +0100
REM compiler GCC version 9.2.1 20190827 (Red Hat 9.2.1-1)
REM options -cpp -mtune=generic -march=x86-64 -g -O0 -fpre-include=/usr/include/finclude/math-vector-fortran.h
REM seed 2006225547 -1756346107 -80447646 686325510 -563318345 1068806380 -988631352 -1971082067 -1966726453 -1753484815 -631556771 -1928031059 -851431179 -1152649984 1921371827 -895542414 675611683 1354913738 1368244179 -2016807912 -816509927 -1676922054 452971031 -2114749822 1779291224 1039963141 -801198156 -1553424831 -568608613 1337792445 261648589 1813104821 -117293390
REM
CELL 1.54180   15.00000   15.00000   15.00000   90.00000   90.00000   90.00000
LATT -1
SFAC C  
C      1  0.5064100000000  0.5141930000000  0.2802860000000 1.0
C      1  0.6768930000000  0.5396640000000  0.3851370000000 1.0
C      1  0.7004130000000  0.5710610000000  0.5312710000000 1.0
C      1  0.5805390000000  0.5320710000000  0.6753600000000 1.0
C      1  0.4273000000000  0.5548330000000  0.6820710000000 1.0
C      1  0.3019800000000  0.5450120000000  0.5548360000000 1.0
C      1  0.3371200000000  0.5390120000000  0.3733920000000 1.0
C      1  0.5913860000000  0.7236210000000  0.5145740000000 1.0
C      1  0.5456490000000  0.6791260000000  0.5857600000000 1.0
C      1  0.4662170000000  0.7342690000000  0.5736110000000 1.0
C      1  0.4066780000000  0.6814220000000  0.5227360000000 1.0
C      1  0.4266570000000  0.6824330000000  0.4295820000000 1.0
C      1  0.5014980000000  0.7350430000000  0.4087740000000 1.0
C      1  0.5796530000000  0.6811310000000  0.4293960000000 1.0
C      1  0.5006300000000  0.4416760000000  0.4090310000000 1.0
C      1  0.6037430000000  0.4171200000000  0.3965530000000 1.0
C      1  0.6031230000000  0.4460590000000  0.5005020000000 1.0
C      1  0.6480280000000  0.3916250000000  0.6388250000000 1.0
C      1  0.4521980000000  0.4406030000000  0.5717720000000 1.0
C      1  0.3566150000000  0.4010350000000  0.5533310000000 1.0
C      1  0.3147050000000  0.4103850000000  0.4641200000000 1.0
C      1  0.5040540000000  0.5129870000000  0.7260940000000 1.0
C      1  0.3631740000000  0.4874070000000  0.6951360000000 1.0
C      1  0.2307480000000  0.5446080000000  0.4991700000000 1.0
C      1  0.3488730000000  0.5074640000000  0.2881390000000 1.0
C      1  0.5900790000000  0.4987520000000  0.2540970000000 1.0
C      1  0.7374780000000  0.5203950000000  0.4552140000000 1.0
C      1  0.7282490000000  0.5134910000000  0.5998170000000 1.0
C      1  0.4147530000000  0.5831400000000  0.4172880000000 1.0
C      1  0.5022450000000  0.5384990000000  0.3854640000000 1.0
C      1  0.5881000000000  0.5820530000000  0.4222950000000 1.0
C      1  0.6045910000000  0.5464520000000  0.5146980000000 1.0
C      1  0.5489250000000  0.5801710000000  0.5921060000000 1.0
C      1  0.4550630000000  0.5428800000000  0.5870990000000 1.0
C      1  0.3902160000000  0.5837290000000  0.5263740000000 1.0
C      1  0.6114600000000  0.3160520000000  0.4060880000000 1.0
C      1  0.6715700000000  0.3850270000000  0.5403160000000 1.0
C      1  0.5710670000000  0.3487210000000  0.6634800000000 1.0
C      1  0.4776260000000  0.3832760000000  0.6575300000000 1.0
C      1  0.3807910000000  0.2996250000000  0.5647730000000 1.0
C      1  0.3532840000000  0.3626510000000  0.3961470000000 1.0
C      1  0.4370570000000  0.3921350000000  0.3499090000000 1.0
C      1  0.2791460000000  0.4947720000000  0.4385680000000 1.0
C      1  0.4264150000000  0.4614210000000  0.2743810000000 1.0
C      1  0.6450330000000  0.4752180000000  0.3249830000000 1.0
C      1  0.7460650000000  0.4512110000000  0.5241330000000 1.0
C      1  0.6602370000000  0.4833960000000  0.6580040000000 1.0
C      1  0.4427340000000  0.4375250000000  0.7292100000000 1.0
C      1  0.3164750000000  0.4671460000000  0.6162300000000 1.0
C      1  0.3629150000000  0.2428760000000  0.4948240000000 1.0
C      1  0.3862340000000  0.2739280000000  0.4127660000000 1.0
C      1  0.4653970000000  0.2915380000000  0.3570630000000 1.0
C      1  0.5501570000000  0.2633780000000  0.3631000000000 1.0
C      1  0.6459150000000  0.2981290000000  0.4950080000000 1.0
C      1  0.5491060000000  0.2677260000000  0.6142510000000 1.0
C      1  0.4551330000000  0.2922070000000  0.6206500000000 1.0
C      1  0.5102210000000  0.4183920000000  0.5032600000000 1.0
C      1  0.6118100000000  0.2366460000000  0.5541520000000 1.0
C      1  0.5113360000000  0.7919520000000  0.4974160000000 1.0
C      1  0.5050760000000  0.8783200000000  0.4969610000000 1.0
END
