TITL C-2158984-8299-222 -0.00363392202910784 3375 -376.127204871818 0 0 60 (Th) n - 1
REM
REM in /scratch/bkarasulu/869
REM
REM
REM
REM
REM
REM ./C.cell (a2850807a9bf4ad07a5b6933b78d9264)
REM AIRSS Version 0.9.1 bugfix July 2018 build 013d7b7c2542+ Fri, 06 Jul 2018 19:26:36 +0100
REM compiler GCC version 9.2.1 20190827 (Red Hat 9.2.1-1)
REM options -cpp -mtune=generic -march=x86-64 -g -O0 -fpre-include=/usr/include/finclude/math-vector-fortran.h
REM seed 1459635131 1301123574 1091712036 159415437 -1268730563 1047104643 1046574168 1556221360 -1054080049 704593244 341931384 1980882858 1112473460 -1753638296 846277603 1970624973 -213443870 -527013478 1997776997 -782633373 -618500481 575960221 -1671890769 698462017 -1762800906 1095865167 -700882906 2133424915 1351878741 1634960760 -262814058 1255727018 -638317139
REM
CELL 1.54180   15.00000   15.00000   15.00000   90.00000   90.00000   90.00000
LATT -1
SFAC C  
C      1  0.4318380000000  0.4510500000000  0.7355200000000 1.0
C      1  0.4510500000000  0.7355200000000  0.4318380000000 1.0
C      1  0.7355200000000  0.4318380000000  0.4510500000000 1.0
C      1  0.4318380000000  0.5489500000000  0.2644800000000 1.0
C      1  0.5681620000000  0.4510500000000  0.2644800000000 1.0
C      1  0.5681620000000  0.5489500000000  0.7355200000000 1.0
C      1  0.4510500000000  0.2644800000000  0.5681620000000 1.0
C      1  0.5489500000000  0.7355200000000  0.5681620000000 1.0
C      1  0.5489500000000  0.2644800000000  0.4318380000000 1.0
C      1  0.7355200000000  0.5681620000000  0.5489500000000 1.0
C      1  0.2644800000000  0.4318380000000  0.5489500000000 1.0
C      1  0.2644800000000  0.5681620000000  0.4510500000000 1.0
C      1  0.5681620000000  0.4510500000000  0.7355200000000 1.0
C      1  0.5489500000000  0.7355200000000  0.4318380000000 1.0
C      1  0.2644800000000  0.4318380000000  0.4510500000000 1.0
C      1  0.5681620000000  0.5489500000000  0.2644800000000 1.0
C      1  0.4318380000000  0.4510500000000  0.2644800000000 1.0
C      1  0.4318380000000  0.5489500000000  0.7355200000000 1.0
C      1  0.5489500000000  0.2644800000000  0.5681620000000 1.0
C      1  0.4510500000000  0.7355200000000  0.5681620000000 1.0
C      1  0.4510500000000  0.2644800000000  0.4318380000000 1.0
C      1  0.2644800000000  0.5681620000000  0.5489500000000 1.0
C      1  0.7355200000000  0.4318380000000  0.5489500000000 1.0
C      1  0.7355200000000  0.5681620000000  0.4510500000000 1.0
C      1  0.6388450000000  0.5935410000000  0.4463830000000 1.0
C      1  0.5935410000000  0.4463830000000  0.6388450000000 1.0
C      1  0.4463830000000  0.6388450000000  0.5935410000000 1.0
C      1  0.6388450000000  0.4064590000000  0.5536170000000 1.0
C      1  0.3611550000000  0.5935410000000  0.5536170000000 1.0
C      1  0.3611550000000  0.4064590000000  0.4463830000000 1.0
C      1  0.5935410000000  0.5536170000000  0.3611550000000 1.0
C      1  0.4064590000000  0.4463830000000  0.3611550000000 1.0
C      1  0.4064590000000  0.5536170000000  0.6388450000000 1.0
C      1  0.4463830000000  0.3611550000000  0.4064590000000 1.0
C      1  0.5536170000000  0.6388450000000  0.4064590000000 1.0
C      1  0.5536170000000  0.3611550000000  0.5935410000000 1.0
C      1  0.3611550000000  0.5935410000000  0.4463830000000 1.0
C      1  0.4064590000000  0.4463830000000  0.6388450000000 1.0
C      1  0.5536170000000  0.6388450000000  0.5935410000000 1.0
C      1  0.3611550000000  0.4064590000000  0.5536170000000 1.0
C      1  0.6388450000000  0.5935410000000  0.5536170000000 1.0
C      1  0.6388450000000  0.4064590000000  0.4463830000000 1.0
C      1  0.4064590000000  0.5536170000000  0.3611550000000 1.0
C      1  0.5935410000000  0.4463830000000  0.3611550000000 1.0
C      1  0.5935410000000  0.5536170000000  0.6388450000000 1.0
C      1  0.5536170000000  0.3611550000000  0.4064590000000 1.0
C      1  0.4463830000000  0.6388450000000  0.4064590000000 1.0
C      1  0.4463830000000  0.3611550000000  0.5935410000000 1.0
C      1  0.5000000000000  0.5966370000000  0.2250450000000 1.0
C      1  0.5000000000000  0.4033630000000  0.7749550000000 1.0
C      1  0.5966370000000  0.2250450000000  0.5000000000000 1.0
C      1  0.4033630000000  0.7749550000000  0.5000000000000 1.0
C      1  0.5000000000000  0.5966370000000  0.7749550000000 1.0
C      1  0.5966370000000  0.7749550000000  0.5000000000000 1.0
C      1  0.7749550000000  0.5000000000000  0.5966370000000 1.0
C      1  0.5000000000000  0.4033630000000  0.2250450000000 1.0
C      1  0.4033630000000  0.2250450000000  0.5000000000000 1.0
C      1  0.7749550000000  0.5000000000000  0.4033630000000 1.0
C      1  0.2250450000000  0.5000000000000  0.4033630000000 1.0
C      1  0.2250450000000  0.5000000000000  0.5966370000000 1.0
END
