TITL C-2159255-4746-1089 -0.00422292664320858 3375 -389.486658603424 0 0 60 (Td) n - 1
REM
REM in /scratch/bkarasulu/871
REM
REM
REM
REM
REM
REM ./C.cell (a2850807a9bf4ad07a5b6933b78d9264)
REM AIRSS Version 0.9.1 bugfix July 2018 build 013d7b7c2542+ Fri, 06 Jul 2018 19:26:36 +0100
REM compiler GCC version 9.2.1 20190827 (Red Hat 9.2.1-1)
REM options -cpp -mtune=generic -march=x86-64 -g -O0 -fpre-include=/usr/include/finclude/math-vector-fortran.h
REM seed -261722411 -468808341 603898993 -985087684 -1713135772 2084720186 -280099300 1021748603 -1745908905 -1460550456 316789398 -592295817 -164143615 -626496606 1598037517 587082422 1905112132 -1717572422 1006918894 -1090554730 1315761084 -1428619064 1854445081 1838341790 314044607 -456904429 -1481454800 -1834628865 1940263226 826684537 -583910762 1523162978 1620728512
REM
CELL 1.54180   15.00000   15.00000   15.00000   90.00000   90.00000   90.00000
LATT -1
SFAC C  
C      1  0.5735890000000  0.6420340000000  0.5005360000000 1.0
C      1  0.6420340000000  0.5005360000000  0.5735890000000 1.0
C      1  0.5005360000000  0.5735890000000  0.6420340000000 1.0
C      1  0.4264110000000  0.3579660000000  0.5005360000000 1.0
C      1  0.5735890000000  0.3579660000000  0.4994640000000 1.0
C      1  0.4264110000000  0.6420340000000  0.4994640000000 1.0
C      1  0.3579660000000  0.4994640000000  0.5735890000000 1.0
C      1  0.6420340000000  0.4994640000000  0.4264110000000 1.0
C      1  0.3579660000000  0.5005360000000  0.4264110000000 1.0
C      1  0.4994640000000  0.4264110000000  0.6420340000000 1.0
C      1  0.5005360000000  0.4264110000000  0.3579660000000 1.0
C      1  0.4994640000000  0.5735890000000  0.3579660000000 1.0
C      1  0.6420340000000  0.5735890000000  0.5005360000000 1.0
C      1  0.5005360000000  0.6420340000000  0.5735890000000 1.0
C      1  0.5735890000000  0.5005360000000  0.6420340000000 1.0
C      1  0.3579660000000  0.4264110000000  0.5005360000000 1.0
C      1  0.3579660000000  0.5735890000000  0.4994640000000 1.0
C      1  0.6420340000000  0.4264110000000  0.4994640000000 1.0
C      1  0.4994640000000  0.3579660000000  0.5735890000000 1.0
C      1  0.4994640000000  0.6420340000000  0.4264110000000 1.0
C      1  0.5005360000000  0.3579660000000  0.4264110000000 1.0
C      1  0.4264110000000  0.4994640000000  0.6420340000000 1.0
C      1  0.4264110000000  0.5005360000000  0.3579660000000 1.0
C      1  0.5735890000000  0.4994640000000  0.3579660000000 1.0
C      1  0.4886680000000  0.2575900000000  0.4171990000000 1.0
C      1  0.2575900000000  0.4171990000000  0.4886680000000 1.0
C      1  0.4171990000000  0.4886680000000  0.2575900000000 1.0
C      1  0.5113320000000  0.7424100000000  0.4171990000000 1.0
C      1  0.4886680000000  0.7424100000000  0.5828010000000 1.0
C      1  0.5113320000000  0.2575900000000  0.5828010000000 1.0
C      1  0.7424100000000  0.5828010000000  0.4886680000000 1.0
C      1  0.2575900000000  0.5828010000000  0.5113320000000 1.0
C      1  0.7424100000000  0.4171990000000  0.5113320000000 1.0
C      1  0.5828010000000  0.5113320000000  0.2575900000000 1.0
C      1  0.4171990000000  0.5113320000000  0.7424100000000 1.0
C      1  0.5828010000000  0.4886680000000  0.7424100000000 1.0
C      1  0.2575900000000  0.4886680000000  0.4171990000000 1.0
C      1  0.4171990000000  0.2575900000000  0.4886680000000 1.0
C      1  0.4886680000000  0.4171990000000  0.2575900000000 1.0
C      1  0.7424100000000  0.5113320000000  0.4171990000000 1.0
C      1  0.7424100000000  0.4886680000000  0.5828010000000 1.0
C      1  0.2575900000000  0.5113320000000  0.5828010000000 1.0
C      1  0.5828010000000  0.7424100000000  0.4886680000000 1.0
C      1  0.5828010000000  0.2575900000000  0.5113320000000 1.0
C      1  0.4171990000000  0.7424100000000  0.5113320000000 1.0
C      1  0.5113320000000  0.5828010000000  0.2575900000000 1.0
C      1  0.5113320000000  0.4171990000000  0.7424100000000 1.0
C      1  0.4886680000000  0.5828010000000  0.7424100000000 1.0
C      1  0.4309160000000  0.4309160000000  0.7889890000000 1.0
C      1  0.4309160000000  0.7889890000000  0.4309160000000 1.0
C      1  0.5690840000000  0.2110110000000  0.4309160000000 1.0
C      1  0.7889890000000  0.4309160000000  0.4309160000000 1.0
C      1  0.5690840000000  0.5690840000000  0.7889890000000 1.0
C      1  0.4309160000000  0.5690840000000  0.2110110000000 1.0
C      1  0.5690840000000  0.4309160000000  0.2110110000000 1.0
C      1  0.4309160000000  0.2110110000000  0.5690840000000 1.0
C      1  0.5690840000000  0.7889890000000  0.5690840000000 1.0
C      1  0.2110110000000  0.5690840000000  0.4309160000000 1.0
C      1  0.7889890000000  0.5690840000000  0.5690840000000 1.0
C      1  0.2110110000000  0.4309160000000  0.5690840000000 1.0
END
