TITL C-2159252-5904-98 -0.00305143940608406 3375 -432.849037428813 0 0 60 (S10) n - 1
REM
REM in /scratch/bkarasulu/870
REM
REM
REM
REM
REM
REM ./C.cell (a2850807a9bf4ad07a5b6933b78d9264)
REM AIRSS Version 0.9.1 bugfix July 2018 build 013d7b7c2542+ Fri, 06 Jul 2018 19:26:36 +0100
REM compiler GCC version 9.2.1 20190827 (Red Hat 9.2.1-1)
REM options -cpp -mtune=generic -march=x86-64 -g -O0 -fpre-include=/usr/include/finclude/math-vector-fortran.h
REM seed 128330323 1600748294 720003534 737486617 710112775 1189287814 698927862 -1553739797 -2085787090 -343298147 -1368439161 683084845 -400470519 -1572948361 -245865418 1188467877 -1242403938 1326011229 1906453967 -987145994 -379959063 2118198574 -2144386373 762158053 -511200240 1247868737 -1650782859 596447096 -317517505 714058419 523460939 468782403 -1784610502
REM
CELL 1.54180   15.00000   15.00000   15.00000   90.00000   90.00000   90.00000
LATT -1
SFAC C  
C      1  0.3818700000000  0.6474740000000  0.3340550000000 1.0
C      1  0.3818700000000  0.7033980000000  0.5889750000000 1.0
C      1  0.3818690000000  0.4782330000000  0.7209360000000 1.0
C      1  0.3818680000000  0.2831500000000  0.5475710000000 1.0
C      1  0.3818690000000  0.3877490000000  0.3084650000000 1.0
C      1  0.3818700000000  0.6474740000000  0.6659450000000 1.0
C      1  0.3818700000000  0.7033980000000  0.4110250000000 1.0
C      1  0.3818690000000  0.4782330000000  0.2790640000000 1.0
C      1  0.3818680000000  0.2831500000000  0.4524290000000 1.0
C      1  0.3818690000000  0.3877490000000  0.6915350000000 1.0
C      1  0.6181300000000  0.3525260000000  0.3340540000000 1.0
C      1  0.6181310000000  0.6122510000000  0.3084650000000 1.0
C      1  0.6181320000000  0.7168510000000  0.5475710000000 1.0
C      1  0.6181310000000  0.5217670000000  0.7209360000000 1.0
C      1  0.6181300000000  0.2966020000000  0.5889750000000 1.0
C      1  0.6181300000000  0.3525260000000  0.6659460000000 1.0
C      1  0.6181310000000  0.6122510000000  0.6915350000000 1.0
C      1  0.6181320000000  0.7168510000000  0.4524290000000 1.0
C      1  0.6181310000000  0.5217670000000  0.2790640000000 1.0
C      1  0.6181300000000  0.2966020000000  0.4110250000000 1.0
C      1  0.3126450000000  0.5025890000000  0.6548750000000 1.0
C      1  0.3126450000000  0.3535040000000  0.5503200000000 1.0
C      1  0.3126450000000  0.4068740000000  0.3762250000000 1.0
C      1  0.3126460000000  0.5889410000000  0.3731820000000 1.0
C      1  0.3126460000000  0.6480970000000  0.5453980000000 1.0
C      1  0.3126450000000  0.5025890000000  0.3451250000000 1.0
C      1  0.3126450000000  0.3535040000000  0.4496800000000 1.0
C      1  0.3126450000000  0.4068740000000  0.6237750000000 1.0
C      1  0.3126460000000  0.5889410000000  0.6268180000000 1.0
C      1  0.3126460000000  0.6480970000000  0.4546020000000 1.0
C      1  0.4597580000000  0.2825190000000  0.5982460000000 1.0
C      1  0.4597580000000  0.3393580000000  0.3235250000000 1.0
C      1  0.4597590000000  0.6181970000000  0.2926860000000 1.0
C      1  0.4597590000000  0.7336960000000  0.5483490000000 1.0
C      1  0.4597590000000  0.5262320000000  0.7371970000000 1.0
C      1  0.4597580000000  0.2825190000000  0.4017540000000 1.0
C      1  0.4597580000000  0.3393580000000  0.6764750000000 1.0
C      1  0.4597590000000  0.6181970000000  0.7073140000000 1.0
C      1  0.4597590000000  0.7336960000000  0.4516510000000 1.0
C      1  0.4597590000000  0.5262320000000  0.2628030000000 1.0
C      1  0.6873550000000  0.4974110000000  0.3451250000000 1.0
C      1  0.6873550000000  0.6464960000000  0.4496800000000 1.0
C      1  0.6873550000000  0.5931260000000  0.6237750000000 1.0
C      1  0.6873540000000  0.4110590000000  0.6268180000000 1.0
C      1  0.6873540000000  0.3519030000000  0.4546020000000 1.0
C      1  0.6873550000000  0.4974110000000  0.6548750000000 1.0
C      1  0.6873550000000  0.6464960000000  0.5503200000000 1.0
C      1  0.6873550000000  0.5931260000000  0.3762250000000 1.0
C      1  0.6873540000000  0.4110590000000  0.3731820000000 1.0
C      1  0.6873540000000  0.3519030000000  0.5453980000000 1.0
C      1  0.5402410000000  0.4737670000000  0.7371970000000 1.0
C      1  0.5402410000000  0.2663040000000  0.5483490000000 1.0
C      1  0.5402410000000  0.3818030000000  0.2926860000000 1.0
C      1  0.5402420000000  0.6606420000000  0.3235240000000 1.0
C      1  0.5402420000000  0.7174810000000  0.5982460000000 1.0
C      1  0.5402410000000  0.4737670000000  0.2628030000000 1.0
C      1  0.5402410000000  0.2663040000000  0.4516510000000 1.0
C      1  0.5402410000000  0.3818030000000  0.7073140000000 1.0
C      1  0.5402420000000  0.6606420000000  0.6764760000000 1.0
C      1  0.5402420000000  0.7174810000000  0.4017540000000 1.0
END
