TITL C-2158988-7926-71 -0.00204915467694029 3375 -408.386563718977 0 0 60 (D3) n - 1
REM
REM in /scratch/bkarasulu/868
REM
REM
REM
REM
REM
REM ./C.cell (a2850807a9bf4ad07a5b6933b78d9264)
REM AIRSS Version 0.9.1 bugfix July 2018 build 013d7b7c2542+ Fri, 06 Jul 2018 19:26:36 +0100
REM compiler GCC version 9.2.1 20190827 (Red Hat 9.2.1-1)
REM options -cpp -mtune=generic -march=x86-64 -g -O0 -fpre-include=/usr/include/finclude/math-vector-fortran.h
REM seed 1964665568 -1057380636 -930892756 -1447324913 821837140 9685454 729875055 -1390183843 972387231 901166185 1294777217 1918572974 1439958454 -1224671588 707823961 1824327343 410385879 1635075876 -33255762 1112829879 1448430149 -1771551484 -1610368464 123445321 -2140316915 -1835261814 1653583670 1097344331 -2081314773 -1449198269 1741953076 1870232193 1047809210
REM
CELL 1.54180   15.00000   15.00000   15.00000   90.00000   90.00000   90.00000
LATT -1
SFAC C  
C      1  0.7311760000000  0.5481620000000  0.6124760000000 1.0
C      1  0.2870040000000  0.5481650000000  0.6439640000000 1.0
C      1  0.4818210000000  0.5481640000000  0.2435550000000 1.0
C      1  0.2688240000000  0.4518380000000  0.6124760000000 1.0
C      1  0.7129960000000  0.4518350000000  0.6439640000000 1.0
C      1  0.5181790000000  0.4518360000000  0.2435550000000 1.0
C      1  0.5665170000000  0.3170160000000  0.6321010000000 1.0
C      1  0.3523380000000  0.3170180000000  0.4915560000000 1.0
C      1  0.5811420000000  0.3170160000000  0.3763450000000 1.0
C      1  0.4334830000000  0.6829840000000  0.6321010000000 1.0
C      1  0.6476620000000  0.6829820000000  0.4915560000000 1.0
C      1  0.4188580000000  0.6829840000000  0.3763450000000 1.0
C      1  0.4739510000000  0.3100870000000  0.5983590000000 1.0
C      1  0.4278410000000  0.3100880000000  0.4282630000000 1.0
C      1  0.5982030000000  0.3100860000000  0.4733790000000 1.0
C      1  0.5260490000000  0.6899130000000  0.5983590000000 1.0
C      1  0.5721590000000  0.6899120000000  0.4282630000000 1.0
C      1  0.4017970000000  0.6899140000000  0.4733790000000 1.0
C      1  0.6010240000000  0.4581470000000  0.2853920000000 1.0
C      1  0.6353430000000  0.4581470000000  0.6947940000000 1.0
C      1  0.2636290000000  0.4581500000000  0.5198120000000 1.0
C      1  0.3989760000000  0.5418530000000  0.2853920000000 1.0
C      1  0.3646570000000  0.5418530000000  0.6947940000000 1.0
C      1  0.7363710000000  0.5418500000000  0.5198120000000 1.0
C      1  0.3808200000000  0.4519150000000  0.4163780000000 1.0
C      1  0.6320080000000  0.4519130000000  0.4385980000000 1.0
C      1  0.4871710000000  0.4519140000000  0.6450250000000 1.0
C      1  0.6191800000000  0.5480850000000  0.4163780000000 1.0
C      1  0.3679920000000  0.5480870000000  0.4385980000000 1.0
C      1  0.5128290000000  0.5480860000000  0.6450250000000 1.0
C      1  0.3797840000000  0.3202810000000  0.5870340000000 1.0
C      1  0.4847330000000  0.3202800000000  0.3523740000000 1.0
C      1  0.6354800000000  0.3202780000000  0.5605920000000 1.0
C      1  0.6202160000000  0.6797190000000  0.5870340000000 1.0
C      1  0.5152670000000  0.6797200000000  0.3523740000000 1.0
C      1  0.3645200000000  0.6797220000000  0.5605920000000 1.0
C      1  0.6029410000000  0.5497230000000  0.6844730000000 1.0
C      1  0.2887720000000  0.5497250000000  0.4969120000000 1.0
C      1  0.6082850000000  0.5497220000000  0.3186150000000 1.0
C      1  0.3970590000000  0.4502770000000  0.6844730000000 1.0
C      1  0.7112280000000  0.4502750000000  0.4969120000000 1.0
C      1  0.3917150000000  0.4502780000000  0.3186150000000 1.0
C      1  0.5585880000000  0.4016860000000  0.4896020000000 1.0
C      1  0.4797110000000  0.4016870000000  0.5559400000000 1.0
C      1  0.4616990000000  0.4016870000000  0.4544600000000 1.0
C      1  0.4414120000000  0.5983140000000  0.4896020000000 1.0
C      1  0.5202890000000  0.5983130000000  0.5559400000000 1.0
C      1  0.5383010000000  0.5983130000000  0.4544600000000 1.0
C      1  0.6256380000000  0.3972660000000  0.3532610000000 1.0
C      1  0.5642590000000  0.3972660000000  0.6821790000000 1.0
C      1  0.3100990000000  0.3972680000000  0.4645620000000 1.0
C      1  0.3743620000000  0.6027340000000  0.3532610000000 1.0
C      1  0.4357410000000  0.6027340000000  0.6821790000000 1.0
C      1  0.6899010000000  0.6027320000000  0.4645620000000 1.0
C      1  0.6638390000000  0.6088510000000  0.6425550000000 1.0
C      1  0.2946250000000  0.6088540000000  0.5706100000000 1.0
C      1  0.5415380000000  0.6088530000000  0.2868340000000 1.0
C      1  0.3361610000000  0.3911490000000  0.6425550000000 1.0
C      1  0.7053750000000  0.3911460000000  0.5706100000000 1.0
C      1  0.4584620000000  0.3911470000000  0.2868340000000 1.0
END
