TITL C-2159252-5904-269 -0.00472552196130295 3375 -402.470592243606 0 0 60 (C3h) n - 1
REM
REM in /scratch/bkarasulu/870
REM
REM
REM
REM
REM
REM ./C.cell (a2850807a9bf4ad07a5b6933b78d9264)
REM AIRSS Version 0.9.1 bugfix July 2018 build 013d7b7c2542+ Fri, 06 Jul 2018 19:26:36 +0100
REM compiler GCC version 9.2.1 20190827 (Red Hat 9.2.1-1)
REM options -cpp -mtune=generic -march=x86-64 -g -O0 -fpre-include=/usr/include/finclude/math-vector-fortran.h
REM seed 1969130881 -570957247 1103823716 -1995125847 -949962199 1174927081 55373938 -1039732562 -586173563 2073196165 1058900058 -1743167626 -1480764934 -807342534 -51825469 1930892717 -2045186776 1189654360 -331905818 607033552 -1810516618 297827756 -1123821057 -161734618 -653090929 -1160100181 1549252845 -1573052037 706340056 910974712 -441010905 -1227384974 1541124925
REM
CELL 1.54180   15.00000   15.00000   15.00000   90.00000   90.00000   90.00000
LATT -1
SFAC C  
C      1  0.5504480000000  0.5998580000000  0.5548110000000 1.0
C      1  0.4273090000000  0.5998580000000  0.5162830000000 1.0
C      1  0.5222440000000  0.5998590000000  0.4289070000000 1.0
C      1  0.5504480000000  0.4001420000000  0.5548110000000 1.0
C      1  0.4273090000000  0.4001420000000  0.5162830000000 1.0
C      1  0.5222440000000  0.4001410000000  0.4289070000000 1.0
C      1  0.6929100000000  0.5485030000000  0.3850220000000 1.0
C      1  0.5031190000000  0.5485030000000  0.7245550000000 1.0
C      1  0.3039710000000  0.5485030000000  0.3904250000000 1.0
C      1  0.6929100000000  0.4514970000000  0.3850220000000 1.0
C      1  0.5031190000000  0.4514970000000  0.7245550000000 1.0
C      1  0.3039710000000  0.4514970000000  0.3904250000000 1.0
C      1  0.4519990000000  0.4542680000000  0.2931050000000 1.0
C      1  0.7031780000000  0.4542680000000  0.5618780000000 1.0
C      1  0.3448230000000  0.4542680000000  0.6450170000000 1.0
C      1  0.4519990000000  0.5457320000000  0.2931050000000 1.0
C      1  0.7031780000000  0.5457320000000  0.5618780000000 1.0
C      1  0.3448230000000  0.5457320000000  0.6450170000000 1.0
C      1  0.6024230000000  0.5467570000000  0.7032210000000 1.0
C      1  0.2727930000000  0.5467570000000  0.4870910000000 1.0
C      1  0.6247820000000  0.5467570000000  0.3096890000000 1.0
C      1  0.6024230000000  0.4532430000000  0.7032210000000 1.0
C      1  0.2727930000000  0.4532430000000  0.4870910000000 1.0
C      1  0.6247820000000  0.4532430000000  0.3096890000000 1.0
C      1  0.6811570000000  0.4184170000000  0.4716530000000 1.0
C      1  0.4339720000000  0.4184180000000  0.6710600000000 1.0
C      1  0.3848720000000  0.4184170000000  0.3572880000000 1.0
C      1  0.6811570000000  0.5815830000000  0.4716530000000 1.0
C      1  0.4339720000000  0.5815820000000  0.6710600000000 1.0
C      1  0.3848720000000  0.5815830000000  0.3572880000000 1.0
C      1  0.5972900000000  0.1613310000000  0.6120310000000 1.0
C      1  0.3543330000000  0.1613310000000  0.5282410000000 1.0
C      1  0.5483760000000  0.1613310000000  0.3597280000000 1.0
C      1  0.5972900000000  0.8386690000000  0.6120310000000 1.0
C      1  0.3543330000000  0.8386690000000  0.5282410000000 1.0
C      1  0.5483760000000  0.8386690000000  0.3597280000000 1.0
C      1  0.5392650000000  0.3348130000000  0.3613550000000 1.0
C      1  0.6004380000000  0.3348130000000  0.6033270000000 1.0
C      1  0.3602970000000  0.3348130000000  0.5353170000000 1.0
C      1  0.5392650000000  0.6651870000000  0.3613550000000 1.0
C      1  0.6004380000000  0.6651870000000  0.6033270000000 1.0
C      1  0.3602970000000  0.6651870000000  0.5353170000000 1.0
C      1  0.4378930000000  0.5563860000000  0.4338780000000 1.0
C      1  0.5883170000000  0.5563860000000  0.4792750000000 1.0
C      1  0.4737900000000  0.5563870000000  0.5868470000000 1.0
C      1  0.4378930000000  0.4436140000000  0.4338780000000 1.0
C      1  0.5883170000000  0.4436140000000  0.4792750000000 1.0
C      1  0.4737900000000  0.4436130000000  0.5868470000000 1.0
C      1  0.3075110000000  0.4100170000000  0.5644980000000 1.0
C      1  0.5403870000000  0.4100170000000  0.3010510000000 1.0
C      1  0.6521010000000  0.4100170000000  0.6344500000000 1.0
C      1  0.3075110000000  0.5899830000000  0.5644980000000 1.0
C      1  0.5403870000000  0.5899830000000  0.3010510000000 1.0
C      1  0.6521010000000  0.5899830000000  0.6344500000000 1.0
C      1  0.6030110000000  0.2471120000000  0.6119980000000 1.0
C      1  0.3515010000000  0.2471120000000  0.5332100000000 1.0
C      1  0.5454880000000  0.2471120000000  0.3547910000000 1.0
C      1  0.6030110000000  0.7528880000000  0.6119980000000 1.0
C      1  0.3515010000000  0.7528880000000  0.5332100000000 1.0
C      1  0.5454880000000  0.7528880000000  0.3547910000000 1.0
END
