TITL C-2159252-5904-192 -0.00362070654921264 3375 -367.690509932928 0 0 60 (Oh) n - 1
REM
REM in /scratch/bkarasulu/870
REM
REM
REM
REM
REM
REM ./C.cell (a2850807a9bf4ad07a5b6933b78d9264)
REM AIRSS Version 0.9.1 bugfix July 2018 build 013d7b7c2542+ Fri, 06 Jul 2018 19:26:36 +0100
REM compiler GCC version 9.2.1 20190827 (Red Hat 9.2.1-1)
REM options -cpp -mtune=generic -march=x86-64 -g -O0 -fpre-include=/usr/include/finclude/math-vector-fortran.h
REM seed -6109506 627364286 -753441857 1856622107 -1654996770 -2102413788 -1820542100 -853706383 -48997242 -553213671 -539342414 -919629317 -477557168 -928060532 -1330306704 1856121799 923245857 164561687 -607757440 -1309861632 1383226019 235407894 549697364 545320699 324437132 -1874320892 -1504111815 1650978874 -414682817 -2130622558 2036208573 855165931 -736326705
REM
CELL 1.54180   15.00000   15.00000   15.00000   90.00000   90.00000   90.00000
LATT -1
SFAC C  
C      1  0.3166580000000  0.4261000000000  0.4261000000000 1.0
C      1  0.4261000000000  0.3166580000000  0.4261000000000 1.0
C      1  0.4261000000000  0.4261000000000  0.3166580000000 1.0
C      1  0.3166580000000  0.5739000000000  0.5739000000000 1.0
C      1  0.6833420000000  0.5739000000000  0.4261000000000 1.0
C      1  0.6833420000000  0.4261000000000  0.5739000000000 1.0
C      1  0.4261000000000  0.6833420000000  0.5739000000000 1.0
C      1  0.5739000000000  0.6833420000000  0.4261000000000 1.0
C      1  0.5739000000000  0.3166580000000  0.5739000000000 1.0
C      1  0.4261000000000  0.5739000000000  0.6833420000000 1.0
C      1  0.5739000000000  0.5739000000000  0.3166580000000 1.0
C      1  0.5739000000000  0.4261000000000  0.6833420000000 1.0
C      1  0.6833420000000  0.4261000000000  0.4261000000000 1.0
C      1  0.5739000000000  0.3166580000000  0.4261000000000 1.0
C      1  0.5739000000000  0.4261000000000  0.3166580000000 1.0
C      1  0.6833420000000  0.5739000000000  0.5739000000000 1.0
C      1  0.3166580000000  0.5739000000000  0.4261000000000 1.0
C      1  0.3166580000000  0.4261000000000  0.5739000000000 1.0
C      1  0.5739000000000  0.6833420000000  0.5739000000000 1.0
C      1  0.4261000000000  0.6833420000000  0.4261000000000 1.0
C      1  0.4261000000000  0.3166580000000  0.5739000000000 1.0
C      1  0.5739000000000  0.5739000000000  0.6833420000000 1.0
C      1  0.4261000000000  0.5739000000000  0.3166580000000 1.0
C      1  0.4261000000000  0.4261000000000  0.6833420000000 1.0
C      1  0.5482480000000  0.2270360000000  0.4517520000000 1.0
C      1  0.4517520000000  0.5482480000000  0.2270360000000 1.0
C      1  0.2270360000000  0.4517520000000  0.5482480000000 1.0
C      1  0.5482480000000  0.7729640000000  0.5482480000000 1.0
C      1  0.4517520000000  0.7729640000000  0.4517520000000 1.0
C      1  0.4517520000000  0.2270360000000  0.5482480000000 1.0
C      1  0.4517520000000  0.4517520000000  0.7729640000000 1.0
C      1  0.5482480000000  0.4517520000000  0.2270360000000 1.0
C      1  0.5482480000000  0.5482480000000  0.7729640000000 1.0
C      1  0.2270360000000  0.5482480000000  0.4517520000000 1.0
C      1  0.7729640000000  0.5482480000000  0.5482480000000 1.0
C      1  0.7729640000000  0.4517520000000  0.4517520000000 1.0
C      1  0.4517520000000  0.2270360000000  0.4517520000000 1.0
C      1  0.5482470000000  0.5482480000000  0.2270360000000 1.0
C      1  0.7729640000000  0.4517520000000  0.5482480000000 1.0
C      1  0.4517520000000  0.7729640000000  0.5482470000000 1.0
C      1  0.5482480000000  0.7729640000000  0.4517530000000 1.0
C      1  0.5482480000000  0.2270360000000  0.5482480000000 1.0
C      1  0.5482480000000  0.4517520000000  0.7729640000000 1.0
C      1  0.4517520000000  0.4517520000000  0.2270360000000 1.0
C      1  0.4517520000000  0.5482480000000  0.7729640000000 1.0
C      1  0.7729640000000  0.5482480000000  0.4517520000000 1.0
C      1  0.2270360000000  0.5482480000000  0.5482480000000 1.0
C      1  0.2270360000000  0.4517530000000  0.4517520000000 1.0
C      1  0.3693160000000  0.6306840000000  0.5000000000000 1.0
C      1  0.5000000000000  0.3693160000000  0.6306840000000 1.0
C      1  0.6306840000000  0.5000000000000  0.3693160000000 1.0
C      1  0.3693160000000  0.3693160000000  0.5000000000000 1.0
C      1  0.6306840000000  0.3693160000000  0.5000000000000 1.0
C      1  0.6306840000000  0.6306840000000  0.5000000000000 1.0
C      1  0.5000000000000  0.6306840000000  0.3693160000000 1.0
C      1  0.5000000000000  0.6306840000000  0.6306840000000 1.0
C      1  0.5000000000000  0.3693160000000  0.3693160000000 1.0
C      1  0.6306840000000  0.5000000000000  0.6306840000000 1.0
C      1  0.3693160000000  0.5000000000000  0.3693160000000 1.0
C      1  0.3693160000000  0.5000000000000  0.6306840000000 1.0
END
