TITL C-2159255-4746-1101 -0.00179725923959023 3375 -386.431430811771 0 0 60 (D5h) n - 1
REM
REM in /scratch/bkarasulu/871
REM
REM
REM
REM
REM
REM ./C.cell (a2850807a9bf4ad07a5b6933b78d9264)
REM AIRSS Version 0.9.1 bugfix July 2018 build 013d7b7c2542+ Fri, 06 Jul 2018 19:26:36 +0100
REM compiler GCC version 9.2.1 20190827 (Red Hat 9.2.1-1)
REM options -cpp -mtune=generic -march=x86-64 -g -O0 -fpre-include=/usr/include/finclude/math-vector-fortran.h
REM seed 1446389729 -23796504 45457084 -1529796406 -1878571468 -210185125 1174027702 97875081 72655360 1330048499 912860743 -235678746 260614052 1262969848 -2052395833 -2070408207 481603872 -1676888859 374417188 1485492134 1108826380 209199017 214319948 1837881934 458701920 1220259798 1966597041 -1886045542 -1231400594 1712832834 2048509787 -155477479 -2040986
REM
CELL 1.54180   15.00000   15.00000   15.00000   90.00000   90.00000   90.00000
LATT -1
SFAC C  
C      1  0.3247030000000  0.5000000000000  0.3396310000000 1.0
C      1  0.5983510000000  0.5000000000000  0.2837250000000 1.0
C      1  0.7360820000000  0.5000000000000  0.5267050000000 1.0
C      1  0.5475550000000  0.5000000000000  0.7327790000000 1.0
C      1  0.2933100000000  0.5000000000000  0.6171610000000 1.0
C      1  0.6752970000000  0.5000000000000  0.3396310000000 1.0
C      1  0.4016490000000  0.5000000000000  0.2837250000000 1.0
C      1  0.2639180000000  0.5000000000000  0.5267050000000 1.0
C      1  0.4524450000000  0.5000000000000  0.7327790000000 1.0
C      1  0.7066900000000  0.5000000000000  0.6171610000000 1.0
C      1  0.3954340000000  0.3453610000000  0.6439240000000 1.0
C      1  0.3308070000000  0.3453610000000  0.4450260000000 1.0
C      1  0.5000010000000  0.3453610000000  0.3221000000000 1.0
C      1  0.6691940000000  0.3453620000000  0.4450280000000 1.0
C      1  0.6045650000000  0.3453610000000  0.6439250000000 1.0
C      1  0.6045660000000  0.6546390000000  0.6439240000000 1.0
C      1  0.6691930000000  0.6546390000000  0.4450260000000 1.0
C      1  0.4999990000000  0.6546390000000  0.3221000000000 1.0
C      1  0.3308060000000  0.6546380000000  0.4450280000000 1.0
C      1  0.3954350000000  0.6546390000000  0.6439250000000 1.0
C      1  0.7267740000000  0.5830690000000  0.4748950000000 1.0
C      1  0.5939520000000  0.5830690000000  0.7079160000000 1.0
C      1  0.3312940000000  0.5830690000000  0.6536040000000 1.0
C      1  0.3017800000000  0.5830690000000  0.3870180000000 1.0
C      1  0.5462000000000  0.5830690000000  0.2765670000000 1.0
C      1  0.2732260000000  0.4169310000000  0.4748950000000 1.0
C      1  0.4060480000000  0.4169310000000  0.7079160000000 1.0
C      1  0.6687060000000  0.4169310000000  0.6536040000000 1.0
C      1  0.6982200000000  0.4169310000000  0.3870180000000 1.0
C      1  0.4538000000000  0.4169310000000  0.2765670000000 1.0
C      1  0.2732250000000  0.5830680000000  0.4748960000000 1.0
C      1  0.4537990000000  0.5830690000000  0.2765660000000 1.0
C      1  0.6982200000000  0.5830690000000  0.3870170000000 1.0
C      1  0.6687060000000  0.5830690000000  0.6536040000000 1.0
C      1  0.4060480000000  0.5830690000000  0.7079170000000 1.0
C      1  0.7267750000000  0.4169320000000  0.4748960000000 1.0
C      1  0.5462010000000  0.4169310000000  0.2765660000000 1.0
C      1  0.3017800000000  0.4169310000000  0.3870170000000 1.0
C      1  0.3312940000000  0.4169310000000  0.6536040000000 1.0
C      1  0.5939520000000  0.4169310000000  0.7079170000000 1.0
C      1  0.4523230000000  0.4503000000000  0.4343770000000 1.0
C      1  0.5476770000000  0.4503000000000  0.4343770000000 1.0
C      1  0.5771430000000  0.4503000000000  0.5250650000000 1.0
C      1  0.5000000000000  0.4503000000000  0.5811130000000 1.0
C      1  0.4228570000000  0.4503000000000  0.5250650000000 1.0
C      1  0.5476770000000  0.5497000000000  0.4343770000000 1.0
C      1  0.4523230000000  0.5497000000000  0.4343770000000 1.0
C      1  0.4228570000000  0.5497000000000  0.5250650000000 1.0
C      1  0.5000000000000  0.5497000000000  0.5811130000000 1.0
C      1  0.5771430000000  0.5497000000000  0.5250650000000 1.0
C      1  0.4503900000000  0.3032560000000  0.5682820000000 1.0
C      1  0.4197290000000  0.3032560000000  0.4739180000000 1.0
C      1  0.5000010000000  0.3032560000000  0.4155980000000 1.0
C      1  0.5802720000000  0.3032560000000  0.4739190000000 1.0
C      1  0.5496100000000  0.3032560000000  0.5682830000000 1.0
C      1  0.5496100000000  0.6967440000000  0.5682820000000 1.0
C      1  0.5802710000000  0.6967440000000  0.4739180000000 1.0
C      1  0.4999990000000  0.6967440000000  0.4155980000000 1.0
C      1  0.4197280000000  0.6967440000000  0.4739190000000 1.0
C      1  0.4503900000000  0.6967440000000  0.5682830000000 1.0
END
