TITL C-2158984-8299-621 -0.00225374896363252 3375 -400.895709036207 0 0 60 (C5) n - 1
REM
REM in /scratch/bkarasulu/869
REM
REM
REM
REM
REM
REM ./C.cell (a2850807a9bf4ad07a5b6933b78d9264)
REM AIRSS Version 0.9.1 bugfix July 2018 build 013d7b7c2542+ Fri, 06 Jul 2018 19:26:36 +0100
REM compiler GCC version 9.2.1 20190827 (Red Hat 9.2.1-1)
REM options -cpp -mtune=generic -march=x86-64 -g -O0 -fpre-include=/usr/include/finclude/math-vector-fortran.h
REM seed 147494485 -573294846 -370585626 1171731994 -614638433 2049318268 -958929035 759542995 983980621 -237140323 987628658 86497473 -1167282892 -38268957 -758610686 -699625895 -2026468211 368653991 -1622772402 -822317385 985512734 -1154843877 1365993015 2063773843 112161023 -313759629 1719528504 -1159083293 -1175906689 -1339977918 -145136980 -1786563533 -1908341979
REM
CELL 1.54180   15.00000   15.00000   15.00000   90.00000   90.00000   90.00000
LATT -1
SFAC C  
C      1  0.6791790000000  0.5469060000000  0.6349220000000 1.0
C      1  0.5107590000000  0.6849040000000  0.6349210000000 1.0
C      1  0.3274710000000  0.5673720000000  0.6349210000000 1.0
C      1  0.3826120000000  0.3567360000000  0.6349210000000 1.0
C      1  0.5999790000000  0.3440870000000  0.6349220000000 1.0
C      1  0.4472180000000  0.4322730000000  0.6355600000000 1.0
C      1  0.5481020000000  0.4288740000000  0.6355610000000 1.0
C      1  0.5825110000000  0.5237690000000  0.6355600000000 1.0
C      1  0.5028920000000  0.5858190000000  0.6355580000000 1.0
C      1  0.4192760000000  0.5292700000000  0.6355570000000 1.0
C      1  0.7794310000000  0.4557720000000  0.4941070000000 1.0
C      1  0.6284080000000  0.7520830000000  0.4941090000000 1.0
C      1  0.2999380000000  0.7000240000000  0.4941080000000 1.0
C      1  0.2479390000000  0.3715430000000  0.4941070000000 1.0
C      1  0.5442810000000  0.2205770000000  0.4941080000000 1.0
C      1  0.5801890000000  0.4648640000000  0.3482990000000 1.0
C      1  0.5581950000000  0.5654050000000  0.3482980000000 1.0
C      1  0.4557780000000  0.5755570000000  0.3482980000000 1.0
C      1  0.4144750000000  0.4812900000000  0.3482990000000 1.0
C      1  0.4913650000000  0.4128770000000  0.3482990000000 1.0
C      1  0.4576890000000  0.4314640000000  0.5250350000000 1.0
C      1  0.5521060000000  0.4385810000000  0.5250350000000 1.0
C      1  0.5745140000000  0.5305760000000  0.5250350000000 1.0
C      1  0.4939460000000  0.5803160000000  0.5250340000000 1.0
C      1  0.4217430000000  0.5190610000000  0.5250350000000 1.0
C      1  0.4809160000000  0.6743700000000  0.4786900000000 1.0
C      1  0.3282660000000  0.5357340000000  0.4786910000000 1.0
C      1  0.4129460000000  0.3477130000000  0.4786920000000 1.0
C      1  0.6179320000000  0.3701480000000  0.4786930000000 1.0
C      1  0.6599390000000  0.5720330000000  0.4786920000000 1.0
C      1  0.4807850000000  0.3352460000000  0.4064220000000 1.0
C      1  0.6507520000000  0.4308130000000  0.4064220000000 1.0
C      1  0.6123850000000  0.6219920000000  0.4064210000000 1.0
C      1  0.4187070000000  0.6445810000000  0.4064200000000 1.0
C      1  0.3373740000000  0.4673640000000  0.4064210000000 1.0
C      1  0.4953400000000  0.2395890000000  0.5734940000000 1.0
C      1  0.7462250000000  0.4151020000000  0.5734940000000 1.0
C      1  0.6568300000000  0.7079360000000  0.5734940000000 1.0
C      1  0.3507070000000  0.7134130000000  0.5734930000000 1.0
C      1  0.2508950000000  0.4239640000000  0.5734930000000 1.0
C      1  0.3245220000000  0.3819250000000  0.4484760000000 1.0
C      1  0.5580710000000  0.2966220000000  0.4484770000000 1.0
C      1  0.7113680000000  0.4923820000000  0.4484750000000 1.0
C      1  0.5725600000000  0.6986670000000  0.4484730000000 1.0
C      1  0.3334790000000  0.6304010000000  0.4484740000000 1.0
C      1  0.7401690000000  0.4808680000000  0.6444940000000 1.0
C      1  0.5924130000000  0.7225000000000  0.6444950000000 1.0
C      1  0.3169510000000  0.6566470000000  0.6444940000000 1.0
C      1  0.2944550000000  0.3743190000000  0.6444920000000 1.0
C      1  0.5560170000000  0.2656770000000  0.6444920000000 1.0
C      1  0.6719500000000  0.3582640000000  0.5644840000000 1.0
C      1  0.6879350000000  0.6197340000000  0.5644820000000 1.0
C      1  0.4442040000000  0.7157380000000  0.5644810000000 1.0
C      1  0.2775780000000  0.5136020000000  0.5644820000000 1.0
C      1  0.4183330000000  0.2926670000000  0.5644830000000 1.0
C      1  0.4916810000000  0.4160940000000  0.2460210000000 1.0
C      1  0.5772270000000  0.4661580000000  0.2460210000000 1.0
C      1  0.5560480000000  0.5629870000000  0.2460200000000 1.0
C      1  0.4574130000000  0.5727670000000  0.2460200000000 1.0
C      1  0.4176330000000  0.4819820000000  0.2460210000000 1.0
END
