TITL C-2158984-8299-1161 -0.00179259284530231 3375 -412.708652778901 0 0 60 (C1) n - 1
REM
REM in /scratch/bkarasulu/869
REM
REM
REM
REM
REM
REM ./C.cell (a2850807a9bf4ad07a5b6933b78d9264)
REM AIRSS Version 0.9.1 bugfix July 2018 build 013d7b7c2542+ Fri, 06 Jul 2018 19:26:36 +0100
REM compiler GCC version 9.2.1 20190827 (Red Hat 9.2.1-1)
REM options -cpp -mtune=generic -march=x86-64 -g -O0 -fpre-include=/usr/include/finclude/math-vector-fortran.h
REM seed 468332649 -1925537591 1549749882 1121121813 -27432702 -583327129 1619941916 539928750 -119088262 1123352561 1449454507 -42672364 -340421826 -1388140486 -936379478 278112234 -707411667 -886786850 1335355753 1772010865 -1781720487 58214874 597434787 372965684 -2034094453 -714208987 1968001090 1808453668 253515866 234253246 -73482934 -2061902452 -105263327
REM
CELL 1.54180   15.00000   15.00000   15.00000   90.00000   90.00000   90.00000
LATT -1
SFAC C  
C      1  0.5992860000000  0.6479280000000  0.7018830000000 1.0
C      1  0.5040000000000  0.5284140000000  0.6889070000000 1.0
C      1  0.3647230000000  0.2948880000000  0.4756060000000 1.0
C      1  0.7056780000000  0.5592180000000  0.3439240000000 1.0
C      1  0.4440180000000  0.7202860000000  0.4974520000000 1.0
C      1  0.3739440000000  0.6211040000000  0.5909380000000 1.0
C      1  0.3161010000000  0.5541260000000  0.4147920000000 1.0
C      1  0.5005100000000  0.3465200000000  0.4038320000000 1.0
C      1  0.6392460000000  0.5458760000000  0.5195480000000 1.0
C      1  0.6828790000000  0.3899420000000  0.5114310000000 1.0
C      1  0.5594180000000  0.4571620000000  0.7135740000000 1.0
C      1  0.3336050000000  0.5320990000000  0.5880850000000 1.0
C      1  0.4985720000000  0.4293610000000  0.5526580000000 1.0
C      1  0.3322330000000  0.6458090000000  0.4216700000000 1.0
C      1  0.2779320000000  0.4203450000000  0.4931420000000 1.0
C      1  0.3297910000000  0.2990880000000  0.5684360000000 1.0
C      1  0.5045170000000  0.5418410000000  0.4496660000000 1.0
C      1  0.6672950000000  0.5380820000000  0.6145660000000 1.0
C      1  0.6676340000000  0.3131310000000  0.3809880000000 1.0
C      1  0.2987460000000  0.5116430000000  0.4980700000000 1.0
C      1  0.5816130000000  0.4342950000000  0.3080740000000 1.0
C      1  0.6604130000000  0.6310960000000  0.6376140000000 1.0
C      1  0.6416760000000  0.4585480000000  0.6592220000000 1.0
C      1  0.3176350000000  0.3652620000000  0.4272790000000 1.0
C      1  0.5095440000000  0.6820140000000  0.5578700000000 1.0
C      1  0.4897850000000  0.4479340000000  0.2881980000000 1.0
C      1  0.4901860000000  0.6080720000000  0.3156310000000 1.0
C      1  0.4512280000000  0.2259830000000  0.6238840000000 1.0
C      1  0.4596200000000  0.2853050000000  0.4703600000000 1.0
C      1  0.4398310000000  0.5276860000000  0.2968670000000 1.0
C      1  0.5475110000000  0.3511620000000  0.6045980000000 1.0
C      1  0.7139900000000  0.3247030000000  0.4538810000000 1.0
C      1  0.5945260000000  0.7317580000000  0.5295910000000 1.0
C      1  0.6301420000000  0.4648660000000  0.4646390000000 1.0
C      1  0.3406760000000  0.4432920000000  0.6349900000000 1.0
C      1  0.3651810000000  0.6723230000000  0.5081000000000 1.0
C      1  0.6258180000000  0.5047390000000  0.3608100000000 1.0
C      1  0.3560090000000  0.5034380000000  0.3431000000000 1.0
C      1  0.4519750000000  0.6582060000000  0.6362490000000 1.0
C      1  0.6973600000000  0.6199400000000  0.4881540000000 1.0
C      1  0.4510070000000  0.6922330000000  0.3399670000000 1.0
C      1  0.5248530000000  0.4443770000000  0.4623980000000 1.0
C      1  0.3951000000000  0.2953050000000  0.6354200000000 1.0
C      1  0.6738010000000  0.6850900000000  0.5547600000000 1.0
C      1  0.3560150000000  0.4085430000000  0.3543980000000 1.0
C      1  0.6418660000000  0.3850510000000  0.5995390000000 1.0
C      1  0.5007790000000  0.2714200000000  0.5621640000000 1.0
C      1  0.5395380000000  0.5781170000000  0.5317630000000 1.0
C      1  0.5687650000000  0.7663510000000  0.4484670000000 1.0
C      1  0.2923320000000  0.3837420000000  0.5786660000000 1.0
C      1  0.5525290000000  0.5742130000000  0.3770250000000 1.0
C      1  0.7380000000000  0.6105670000000  0.4048710000000 1.0
C      1  0.3599140000000  0.6908790000000  0.3459080000000 1.0
C      1  0.5885970000000  0.3469320000000  0.3516060000000 1.0
C      1  0.4843790000000  0.7473490000000  0.4154070000000 1.0
C      1  0.5019600000000  0.5135450000000  0.5946950000000 1.0
C      1  0.4090690000000  0.3837760000000  0.6776120000000 1.0
C      1  0.5095970000000  0.6211370000000  0.7042350000000 1.0
C      1  0.5052490000000  0.3858990000000  0.6913720000000 1.0
C      1  0.4418010000000  0.3779850000000  0.3314500000000 1.0
END
