TITL C-2159252-5904-385 -0.0021676846084956 3375 -409.453248663335 0 0 60 (C5) n - 1
REM
REM in /scratch/bkarasulu/870
REM
REM
REM
REM
REM
REM ./C.cell (a2850807a9bf4ad07a5b6933b78d9264)
REM AIRSS Version 0.9.1 bugfix July 2018 build 013d7b7c2542+ Fri, 06 Jul 2018 19:26:36 +0100
REM compiler GCC version 9.2.1 20190827 (Red Hat 9.2.1-1)
REM options -cpp -mtune=generic -march=x86-64 -g -O0 -fpre-include=/usr/include/finclude/math-vector-fortran.h
REM seed -1128798534 -658864514 1635536617 230707519 -1409069738 364108045 -112350214 -1623042741 -1734619218 385154654 339949393 966923337 -1972060098 -1158564831 1890883734 383259234 1389631558 1798870378 486043283 -1888852803 1627462325 -449856992 1002253632 1388081536 418868149 -737963314 371737480 -2084255347 2039810272 -2049318593 1797308485 -480458097 -2115846634
REM
CELL 1.54180   15.00000   15.00000   15.00000   90.00000   90.00000   90.00000
LATT -1
SFAC C  
C      1  0.6774940000000  0.5322390000000  0.3833790000000 1.0
C      1  0.5855080000000  0.3411530000000  0.3833810000000 1.0
C      1  0.3753530000000  0.3695870000000  0.3833810000000 1.0
C      1  0.3374520000000  0.5782460000000  0.3833790000000 1.0
C      1  0.5241870000000  0.6787710000000  0.3833790000000 1.0
C      1  0.5325220000000  0.2738270000000  0.3507290000000 1.0
C      1  0.2949480000000  0.3991750000000  0.3507280000000 1.0
C      1  0.3407450000000  0.6638570000000  0.3507220000000 1.0
C      1  0.6066240000000  0.7020930000000  0.3507210000000 1.0
C      1  0.7251520000000  0.4610430000000  0.3507220000000 1.0
C      1  0.5464830000000  0.4314930000000  0.5193770000000 1.0
C      1  0.4492090000000  0.4346210000000  0.5193770000000 1.0
C      1  0.4221250000000  0.5281020000000  0.5193770000000 1.0
C      1  0.5026620000000  0.5827470000000  0.5193770000000 1.0
C      1  0.5795190000000  0.5230390000000  0.5193770000000 1.0
C      1  0.6871300000000  0.3487690000000  0.5099260000000 1.0
C      1  0.4139970000000  0.2752940000000  0.5099280000000 1.0
C      1  0.2597140000000  0.5123590000000  0.5099290000000 1.0
C      1  0.4375030000000  0.7323460000000  0.5099280000000 1.0
C      1  0.7016580000000  0.6312370000000  0.5099250000000 1.0
C      1  0.4993030000000  0.6774760000000  0.5704510000000 1.0
C      1  0.6685730000000  0.5555070000000  0.5704500000000 1.0
C      1  0.6048820000000  0.3568320000000  0.5704510000000 1.0
C      1  0.3962490000000  0.3560090000000  0.5704520000000 1.0
C      1  0.3309960000000  0.5541800000000  0.5704520000000 1.0
C      1  0.3403320000000  0.4845990000000  0.6417560000000 1.0
C      1  0.4360130000000  0.6470960000000  0.6417550000000 1.0
C      1  0.6201220000000  0.6063120000000  0.6417550000000 1.0
C      1  0.6382290000000  0.4186110000000  0.6417550000000 1.0
C      1  0.4653090000000  0.3433870000000  0.6417560000000 1.0
C      1  0.7098760000000  0.6206210000000  0.4149730000000 1.0
C      1  0.6795720000000  0.3376690000000  0.4149740000000 1.0
C      1  0.4011070000000  0.2790510000000  0.4149760000000 1.0
C      1  0.2593050000000  0.5257760000000  0.4149760000000 1.0
C      1  0.4501390000000  0.7368810000000  0.4149750000000 1.0
C      1  0.3725350000000  0.7421050000000  0.3602210000000 1.0
C      1  0.6908670000000  0.6960410000000  0.3602190000000 1.0
C      1  0.7454280000000  0.3790540000000  0.3602190000000 1.0
C      1  0.4608150000000  0.2292010000000  0.3602240000000 1.0
C      1  0.2303490000000  0.4535860000000  0.3602250000000 1.0
C      1  0.4656800000000  0.5725590000000  0.6867170000000 1.0
C      1  0.5584020000000  0.5550640000000  0.6867160000000 1.0
C      1  0.5704160000000  0.4614740000000  0.6867160000000 1.0
C      1  0.4851190000000  0.4211260000000  0.6867170000000 1.0
C      1  0.4203880000000  0.4897810000000  0.6867170000000 1.0
C      1  0.4212210000000  0.5359760000000  0.4148440000000 1.0
C      1  0.5098710000000  0.5860400000000  0.4148440000000 1.0
C      1  0.5848780000000  0.5171980000000  0.4148440000000 1.0
C      1  0.5425850000000  0.4245890000000  0.4148440000000 1.0
C      1  0.4414400000000  0.4361950000000  0.4148450000000 1.0
C      1  0.4885960000000  0.2336650000000  0.5476310000000 1.0
C      1  0.2431760000000  0.4285470000000  0.5476330000000 1.0
C      1  0.3526830000000  0.7221740000000  0.5476310000000 1.0
C      1  0.6657750000000  0.7087640000000  0.5476280000000 1.0
C      1  0.7497750000000  0.4068530000000  0.5476270000000 1.0
C      1  0.5352330000000  0.2923340000000  0.5999980000000 1.0
C      1  0.3133850000000  0.4023210000000  0.5999990000000 1.0
C      1  0.3494350000000  0.6472980000000  0.5999990000000 1.0
C      1  0.5935610000000  0.6887150000000  0.5999970000000 1.0
C      1  0.7083900000000  0.4693360000000  0.5999970000000 1.0
END
