TITL C-2159252-5904-461 -0.00157631905500899 3375 -407.685515043824 0 0 60 (C1) n - 1
REM
REM in /scratch/bkarasulu/870
REM
REM
REM
REM
REM
REM ./C.cell (a2850807a9bf4ad07a5b6933b78d9264)
REM AIRSS Version 0.9.1 bugfix July 2018 build 013d7b7c2542+ Fri, 06 Jul 2018 19:26:36 +0100
REM compiler GCC version 9.2.1 20190827 (Red Hat 9.2.1-1)
REM options -cpp -mtune=generic -march=x86-64 -g -O0 -fpre-include=/usr/include/finclude/math-vector-fortran.h
REM seed -617422139 176602263 224872608 34968288 865886646 1196234499 -1203513214 1649945917 -774775151 -1308260397 786434767 1502562654 1079349027 782418909 1557947015 -1478114487 614970843 -646664406 1329971278 582892631 889691338 594622458 87353292 -110889636 77904878 -1452569081 1353129438 -1751372078 1002484606 1160602107 -163541536 1170606058 486856770
REM
CELL 1.54180   15.00000   15.00000   15.00000   90.00000   90.00000   90.00000
LATT -1
SFAC C  
C      1  0.5081680000000  0.3642270000000  0.6915520000000 1.0
C      1  0.6050160000000  0.6955730000000  0.4504110000000 1.0
C      1  0.4002140000000  0.4142430000000  0.3386870000000 1.0
C      1  0.4711730000000  0.5752530000000  0.3394400000000 1.0
C      1  0.5313520000000  0.3534230000000  0.5947410000000 1.0
C      1  0.3733960000000  0.6781430000000  0.3450700000000 1.0
C      1  0.4420510000000  0.7274700000000  0.3834420000000 1.0
C      1  0.6274100000000  0.4779950000000  0.6598210000000 1.0
C      1  0.6086440000000  0.5765010000000  0.6651370000000 1.0
C      1  0.6021010000000  0.5621200000000  0.3146780000000 1.0
C      1  0.2955940000000  0.6101830000000  0.5673080000000 1.0
C      1  0.5232700000000  0.5786470000000  0.5093950000000 1.0
C      1  0.4932810000000  0.5303710000000  0.5950830000000 1.0
C      1  0.5622260000000  0.4882500000000  0.4910090000000 1.0
C      1  0.4220620000000  0.6975200000000  0.6026170000000 1.0
C      1  0.2670800000000  0.4860520000000  0.3700300000000 1.0
C      1  0.5294010000000  0.4996570000000  0.3117940000000 1.0
C      1  0.5722300000000  0.6792220000000  0.5421370000000 1.0
C      1  0.4832840000000  0.4384120000000  0.4620420000000 1.0
C      1  0.4584220000000  0.3501540000000  0.5252710000000 1.0
C      1  0.5251160000000  0.2710280000000  0.4038200000000 1.0
C      1  0.6951780000000  0.4418110000000  0.5981360000000 1.0
C      1  0.6855360000000  0.3222490000000  0.4770440000000 1.0
C      1  0.3830710000000  0.5872480000000  0.3071320000000 1.0
C      1  0.5433380000000  0.6390870000000  0.3203850000000 1.0
C      1  0.5413320000000  0.7080450000000  0.3811760000000 1.0
C      1  0.3192850000000  0.3848090000000  0.4786440000000 1.0
C      1  0.6596870000000  0.4749080000000  0.4401320000000 1.0
C      1  0.4997880000000  0.4210640000000  0.3525440000000 1.0
C      1  0.6194990000000  0.2502230000000  0.4972290000000 1.0
C      1  0.5065570000000  0.5727160000000  0.6832770000000 1.0
C      1  0.4483730000000  0.5859580000000  0.4453240000000 1.0
C      1  0.4301710000000  0.4209580000000  0.7011040000000 1.0
C      1  0.5586120000000  0.4530270000000  0.5829710000000 1.0
C      1  0.3529040000000  0.6840100000000  0.5328330000000 1.0
C      1  0.4244200000000  0.6317540000000  0.6697780000000 1.0
C      1  0.4904000000000  0.4899490000000  0.7304710000000 1.0
C      1  0.6970380000000  0.5926050000000  0.5296900000000 1.0
C      1  0.2840590000000  0.4761060000000  0.4633120000000 1.0
C      1  0.3957910000000  0.6708060000000  0.4454090000000 1.0
C      1  0.6478370000000  0.3817270000000  0.4134050000000 1.0
C      1  0.6101930000000  0.2973970000000  0.5820300000000 1.0
C      1  0.3716400000000  0.3504750000000  0.4051610000000 1.0
C      1  0.6880600000000  0.3539930000000  0.5688620000000 1.0
C      1  0.3679860000000  0.3694930000000  0.5571280000000 1.0
C      1  0.5771210000000  0.2015040000000  0.4373180000000 1.0
C      1  0.5038770000000  0.7282350000000  0.5788690000000 1.0
C      1  0.3741690000000  0.4309260000000  0.6269610000000 1.0
C      1  0.5672390000000  0.4344620000000  0.7233320000000 1.0
C      1  0.3545500000000  0.5788640000000  0.6343460000000 1.0
C      1  0.4012590000000  0.5091550000000  0.5791980000000 1.0
C      1  0.2530230000000  0.5390510000000  0.5277930000000 1.0
C      1  0.6407980000000  0.6294150000000  0.5954250000000 1.0
C      1  0.3454050000000  0.4975860000000  0.3261320000000 1.0
C      1  0.7113980000000  0.5003440000000  0.5235510000000 1.0
C      1  0.4418000000000  0.2969100000000  0.4444520000000 1.0
C      1  0.6642300000000  0.5555460000000  0.3837440000000 1.0
C      1  0.6723510000000  0.6283950000000  0.4428320000000 1.0
C      1  0.4042140000000  0.5034850000000  0.4773500000000 1.0
C      1  0.5663170000000  0.3512590000000  0.3720380000000 1.0
END
