TITL C-2158988-7926-856 -0.00160038233662369 3375 -403.365715457129 0 0 60 (C1) n - 1
REM
REM in /scratch/bkarasulu/868
REM
REM
REM
REM
REM
REM ./C.cell (a2850807a9bf4ad07a5b6933b78d9264)
REM AIRSS Version 0.9.1 bugfix July 2018 build 013d7b7c2542+ Fri, 06 Jul 2018 19:26:36 +0100
REM compiler GCC version 9.2.1 20190827 (Red Hat 9.2.1-1)
REM options -cpp -mtune=generic -march=x86-64 -g -O0 -fpre-include=/usr/include/finclude/math-vector-fortran.h
REM seed -2105077812 1079661178 1974978060 1943425972 -198313795 1380047543 262712775 161538862 -931251345 -1333054979 951172148 1373872228 1560246626 -1651225078 916797906 -2029920284 1523100730 -210144644 -2066812959 1370988629 1266578288 -1008839546 -512560675 2141945343 2066281387 1409859588 285369201 -1491748431 1957370145 -669337685 679563049 -1581608402 1875277746
REM
CELL 1.54180   15.00000   15.00000   15.00000   90.00000   90.00000   90.00000
LATT -1
SFAC C  
C      1  0.3825570000000  0.5538780000000  0.6853730000000 1.0
C      1  0.5391560000000  0.7089030000000  0.3806460000000 1.0
C      1  0.7158570000000  0.3727390000000  0.5843770000000 1.0
C      1  0.6198510000000  0.5990880000000  0.2884690000000 1.0
C      1  0.6121320000000  0.4443520000000  0.6935960000000 1.0
C      1  0.3739640000000  0.4506550000000  0.3150580000000 1.0
C      1  0.4543190000000  0.6737460000000  0.6020950000000 1.0
C      1  0.4101700000000  0.3049810000000  0.3881730000000 1.0
C      1  0.5782010000000  0.2990800000000  0.6370660000000 1.0
C      1  0.2868500000000  0.3945340000000  0.4442200000000 1.0
C      1  0.3214420000000  0.6129530000000  0.5462120000000 1.0
C      1  0.6827170000000  0.6543230000000  0.4305090000000 1.0
C      1  0.6951920000000  0.6021980000000  0.3550650000000 1.0
C      1  0.3747610000000  0.6947060000000  0.5505870000000 1.0
C      1  0.5486860000000  0.3753720000000  0.6840110000000 1.0
C      1  0.3072910000000  0.5581550000000  0.6244200000000 1.0
C      1  0.6953140000000  0.4391650000000  0.6459280000000 1.0
C      1  0.3022930000000  0.4606480000000  0.3796830000000 1.0
C      1  0.6062020000000  0.7091950000000  0.4463640000000 1.0
C      1  0.3386330000000  0.3128800000000  0.4470340000000 1.0
C      1  0.6624090000000  0.2948400000000  0.5943190000000 1.0
C      1  0.4279340000000  0.3761110000000  0.3242490000000 1.0
C      1  0.5440170000000  0.6492530000000  0.3038290000000 1.0
C      1  0.4491960000000  0.6188000000000  0.6834580000000 1.0
C      1  0.4157820000000  0.5378060000000  0.3327460000000 1.0
C      1  0.5055250000000  0.3006030000000  0.4096320000000 1.0
C      1  0.3150140000000  0.4135010000000  0.5413660000000 1.0
C      1  0.5918280000000  0.5385970000000  0.6625810000000 1.0
C      1  0.6258750000000  0.5022960000000  0.3014360000000 1.0
C      1  0.3800660000000  0.4531900000000  0.6814750000000 1.0
C      1  0.4284220000000  0.3140640000000  0.5957230000000 1.0
C      1  0.4471050000000  0.6770960000000  0.4026840000000 1.0
C      1  0.5546110000000  0.6980510000000  0.6262680000000 1.0
C      1  0.6900270000000  0.3788890000000  0.4863800000000 1.0
C      1  0.6677990000000  0.6174500000000  0.5171400000000 1.0
C      1  0.2979240000000  0.6334530000000  0.4446440000000 1.0
C      1  0.3298660000000  0.5526900000000  0.4033700000000 1.0
C      1  0.3528580000000  0.3207840000000  0.5444030000000 1.0
C      1  0.5209650000000  0.3757130000000  0.3496260000000 1.0
C      1  0.6783190000000  0.5261830000000  0.6122550000000 1.0
C      1  0.3007970000000  0.4591550000000  0.6233220000000 1.0
C      1  0.7009190000000  0.5075250000000  0.3624450000000 1.0
C      1  0.6434200000000  0.2944690000000  0.4972840000000 1.0
C      1  0.3685260000000  0.7048510000000  0.4511860000000 1.0
C      1  0.5939110000000  0.6763810000000  0.5414070000000 1.0
C      1  0.4560500000000  0.3966570000000  0.6493230000000 1.0
C      1  0.5490900000000  0.6215610000000  0.6924660000000 1.0
C      1  0.4498760000000  0.6245370000000  0.3107500000000 1.0
C      1  0.4760170000000  0.4558630000000  0.5667670000000 1.0
C      1  0.6554670000000  0.4602050000000  0.4430500000000 1.0
C      1  0.5665380000000  0.4593220000000  0.3723410000000 1.0
C      1  0.5427900000000  0.5254910000000  0.5698100000000 1.0
C      1  0.5119690000000  0.6120090000000  0.5409450000000 1.0
C      1  0.6381150000000  0.5247020000000  0.5209870000000 1.0
C      1  0.3867170000000  0.5515370000000  0.4871980000000 1.0
C      1  0.5110020000000  0.2729450000000  0.5732600000000 1.0
C      1  0.4700500000000  0.5946150000000  0.4582630000000 1.0
C      1  0.5520570000000  0.2706080000000  0.4852110000000 1.0
C      1  0.4937200000000  0.5242580000000  0.3945930000000 1.0
C      1  0.4018370000000  0.4623830000000  0.5129190000000 1.0
END
