TITL C-2158988-7926-296 -0.00196865921941639 3375 -402.11003369744 0 0 60 (Cs) n - 1
REM
REM in /scratch/bkarasulu/868
REM
REM
REM
REM
REM
REM ./C.cell (a2850807a9bf4ad07a5b6933b78d9264)
REM AIRSS Version 0.9.1 bugfix July 2018 build 013d7b7c2542+ Fri, 06 Jul 2018 19:26:36 +0100
REM compiler GCC version 9.2.1 20190827 (Red Hat 9.2.1-1)
REM options -cpp -mtune=generic -march=x86-64 -g -O0 -fpre-include=/usr/include/finclude/math-vector-fortran.h
REM seed 683984480 153204891 1798466646 1899210297 -2038791499 1532103487 240445845 -612587775 -1491266477 -41048058 1771536978 1269737796 -117160636 -1742257748 -522213080 1620114114 240512971 419429385 1334696692 1027973291 -1611777125 -1927207579 -306604810 1945835946 -353195591 -770002471 -1956263025 1202639054 -801563763 892359549 -1444574392 1007825300 -1391968803
REM
CELL 1.54180   15.00000   15.00000   15.00000   90.00000   90.00000   90.00000
LATT -1
SFAC C  
C      1  0.5636440000000  0.4043100000000  0.3113070000000 1.0
C      1  0.5636440000000  0.5956900000000  0.3113070000000 1.0
C      1  0.7049320000000  0.4526250000000  0.4133830000000 1.0
C      1  0.7049320000000  0.5473750000000  0.4133830000000 1.0
C      1  0.3293960000000  0.6047630000000  0.3388070000000 1.0
C      1  0.3293960000000  0.3952370000000  0.3388070000000 1.0
C      1  0.3946830000000  0.6046070000000  0.5845100000000 1.0
C      1  0.3946830000000  0.3953930000000  0.5845100000000 1.0
C      1  0.6668610000000  0.6800640000000  0.4798980000000 1.0
C      1  0.6668610000000  0.3199360000000  0.4798980000000 1.0
C      1  0.4893410000000  0.4487340000000  0.5981480000000 1.0
C      1  0.4893410000000  0.5512660000000  0.5981480000000 1.0
C      1  0.4050700000000  0.6589170000000  0.6738020000000 1.0
C      1  0.4050700000000  0.3410830000000  0.6738020000000 1.0
C      1  0.5339890000000  0.4547290000000  0.4498420000000 1.0
C      1  0.5339890000000  0.5452710000000  0.4498420000000 1.0
C      1  0.4057590000000  0.5472540000000  0.3611970000000 1.0
C      1  0.4057590000000  0.4527460000000  0.3611970000000 1.0
C      1  0.4573290000000  0.3222960000000  0.4406260000000 1.0
C      1  0.4573290000000  0.6777040000000  0.4406260000000 1.0
C      1  0.3265120000000  0.4006840000000  0.4384600000000 1.0
C      1  0.3265120000000  0.5993160000000  0.4384600000000 1.0
C      1  0.5589420000000  0.4172140000000  0.5330140000000 1.0
C      1  0.5589420000000  0.5827860000000  0.5330140000000 1.0
C      1  0.2694710000000  0.5480330000000  0.4921220000000 1.0
C      1  0.2694710000000  0.4519670000000  0.4921220000000 1.0
C      1  0.5390840000000  0.4112790000000  0.6845830000000 1.0
C      1  0.5390840000000  0.5887210000000  0.6845830000000 1.0
C      1  0.3032860000000  0.3497150000000  0.2698920000000 1.0
C      1  0.3032860000000  0.6502850000000  0.2698920000000 1.0
C      1  0.4986870000000  0.3160780000000  0.6627530000000 1.0
C      1  0.4986870000000  0.6839220000000  0.6627530000000 1.0
C      1  0.5514040000000  0.4568660000000  0.2300820000000 1.0
C      1  0.5514040000000  0.5431340000000  0.2300820000000 1.0
C      1  0.4773930000000  0.5481020000000  0.7513340000000 1.0
C      1  0.4773930000000  0.4518980000000  0.7513340000000 1.0
C      1  0.3870220000000  0.6465000000000  0.4932270000000 1.0
C      1  0.3870220000000  0.3535000000000  0.4932270000000 1.0
C      1  0.7044310000000  0.5920690000000  0.4977960000000 1.0
C      1  0.7044310000000  0.4079310000000  0.4977960000000 1.0
C      1  0.6759120000000  0.3031730000000  0.3886720000000 1.0
C      1  0.6759120000000  0.6968270000000  0.3886720000000 1.0
C      1  0.5237170000000  0.2670310000000  0.5884930000000 1.0
C      1  0.5237170000000  0.7329690000000  0.5884930000000 1.0
C      1  0.6480280000000  0.4502650000000  0.5669280000000 1.0
C      1  0.6480280000000  0.5497350000000  0.5669280000000 1.0
C      1  0.5087690000000  0.2699220000000  0.4976860000000 1.0
C      1  0.5087690000000  0.7300780000000  0.4976860000000 1.0
C      1  0.6531900000000  0.6113560000000  0.3510240000000 1.0
C      1  0.6531900000000  0.3886440000000  0.3510240000000 1.0
C      1  0.6267330000000  0.4530030000000  0.6650650000000 1.0
C      1  0.6267330000000  0.5469970000000  0.6650650000000 1.0
C      1  0.4061090000000  0.6054480000000  0.7480260000000 1.0
C      1  0.4061090000000  0.3945520000000  0.7480260000000 1.0
C      1  0.3145400000000  0.4523050000000  0.5782530000000 1.0
C      1  0.3145400000000  0.5476950000000  0.5782530000000 1.0
C      1  0.5857840000000  0.6803140000000  0.5296720000000 1.0
C      1  0.5857840000000  0.3196860000000  0.5296720000000 1.0
C      1  0.4899810000000  0.4034360000000  0.3813970000000 1.0
C      1  0.4899810000000  0.5965640000000  0.3813970000000 1.0
END
