TITL C-2158988-7926-951 -0.00188656558432275 3375 -396.899458669739 0 0 60 (C5) n - 1
REM
REM in /scratch/bkarasulu/868
REM
REM
REM
REM
REM
REM ./C.cell (a2850807a9bf4ad07a5b6933b78d9264)
REM AIRSS Version 0.9.1 bugfix July 2018 build 013d7b7c2542+ Fri, 06 Jul 2018 19:26:36 +0100
REM compiler GCC version 9.2.1 20190827 (Red Hat 9.2.1-1)
REM options -cpp -mtune=generic -march=x86-64 -g -O0 -fpre-include=/usr/include/finclude/math-vector-fortran.h
REM seed 318952959 1047936861 -1137791874 -1548912969 2115710154 -952821079 -1433513844 -1725049229 -998750644 -726377531 446901213 706351214 -653823214 822180178 -1309097224 -1948390415 207935348 -1536275688 2123719338 -2074690141 -507035993 658100228 786060321 -338559209 912086073 -79443230 1523135045 -1855329467 1292242457 749710792 -263973003 196441026 2137918088
REM
CELL 1.54180   15.00000   15.00000   15.00000   90.00000   90.00000   90.00000
LATT -1
SFAC C  
C      1  0.4848210000000  0.4192020000000  0.7469860000000 1.0
C      1  0.5721530000000  0.4605980000000  0.7469860000000 1.0
C      1  0.5597710000000  0.5564480000000  0.7469850000000 1.0
C      1  0.4647860000000  0.5742900000000  0.7469850000000 1.0
C      1  0.4184650000000  0.4894680000000  0.7469850000000 1.0
C      1  0.6182730000000  0.6080440000000  0.6990760000000 1.0
C      1  0.4337930000000  0.6458740000000  0.6990760000000 1.0
C      1  0.3408070000000  0.4821130000000  0.6990770000000 1.0
C      1  0.4678200000000  0.3430720000000  0.6990790000000 1.0
C      1  0.6393030000000  0.4209030000000  0.6990780000000 1.0
C      1  0.4810580000000  0.6755060000000  0.4501750000000 1.0
C      1  0.3272310000000  0.5362190000000  0.4501760000000 1.0
C      1  0.4121650000000  0.3468790000000  0.4501770000000 1.0
C      1  0.6184840000000  0.3691470000000  0.4501770000000 1.0
C      1  0.6610630000000  0.5722490000000  0.4501760000000 1.0
C      1  0.2908850000000  0.5564200000000  0.5436620000000 1.0
C      1  0.3817220000000  0.3185560000000  0.5436650000000 1.0
C      1  0.6360130000000  0.3314420000000  0.5436650000000 1.0
C      1  0.7023400000000  0.5772700000000  0.5436630000000 1.0
C      1  0.4890380000000  0.7163160000000  0.5436620000000 1.0
C      1  0.6228870000000  0.6291030000000  0.6081430000000 1.0
C      1  0.4151920000000  0.6567680000000  0.6081430000000 1.0
C      1  0.3246980000000  0.4677880000000  0.6081440000000 1.0
C      1  0.4764660000000  0.3233250000000  0.6081450000000 1.0
C      1  0.6607560000000  0.4230230000000  0.6081450000000 1.0
C      1  0.4187640000000  0.5178330000000  0.2532640000000 1.0
C      1  0.4579350000000  0.4282480000000  0.2532650000000 1.0
C      1  0.5552390000000  0.4378190000000  0.2532650000000 1.0
C      1  0.5762060000000  0.5333190000000  0.2532640000000 1.0
C      1  0.4918590000000  0.5827700000000  0.2532640000000 1.0
C      1  0.3239430000000  0.6345760000000  0.5731790000000 1.0
C      1  0.3176060000000  0.3741470000000  0.5731800000000 1.0
C      1  0.5633310000000  0.2876420000000  0.5731810000000 1.0
C      1  0.7215350000000  0.4946110000000  0.5731810000000 1.0
C      1  0.5735840000000  0.7090290000000  0.5731790000000 1.0
C      1  0.5580700000000  0.5569940000000  0.5842510000000 1.0
C      1  0.4637410000000  0.5728410000000  0.5842500000000 1.0
C      1  0.4195210000000  0.4880250000000  0.5842510000000 1.0
C      1  0.4865200000000  0.4197600000000  0.5842520000000 1.0
C      1  0.5721480000000  0.4623850000000  0.5842520000000 1.0
C      1  0.6309560000000  0.6328490000000  0.3738400000000 1.0
C      1  0.4141200000000  0.6655990000000  0.3738400000000 1.0
C      1  0.3159660000000  0.4694950000000  0.3738410000000 1.0
C      1  0.4721420000000  0.3155450000000  0.3738430000000 1.0
C      1  0.6668160000000  0.4165050000000  0.3738420000000 1.0
C      1  0.5642820000000  0.3251110000000  0.3752750000000 1.0
C      1  0.6861930000000  0.5070920000000  0.3752740000000 1.0
C      1  0.5507910000000  0.6792710000000  0.3752720000000 1.0
C      1  0.3451990000000  0.6037020000000  0.3752720000000 1.0
C      1  0.3535370000000  0.3848200000000  0.3752740000000 1.0
C      1  0.6058870000000  0.3808480000000  0.3089680000000 1.0
C      1  0.6460400000000  0.5638830000000  0.3089670000000 1.0
C      1  0.4843710000000  0.6586320000000  0.3089660000000 1.0
C      1  0.3443010000000  0.5341540000000  0.3089660000000 1.0
C      1  0.4194030000000  0.3624740000000  0.3089680000000 1.0
C      1  0.5595220000000  0.4437490000000  0.4831770000000 1.0
C      1  0.5718920000000  0.5392260000000  0.4831760000000 1.0
C      1  0.4849100000000  0.5804950000000  0.4831760000000 1.0
C      1  0.4187820000000  0.5105220000000  0.4831770000000 1.0
C      1  0.4648950000000  0.4260090000000  0.4831770000000 1.0
END
