TITL C-2159255-4746-25 -0.00173548286260782 3375 -410.346099721674 0 0 60 (C1) n - 1
REM
REM in /scratch/bkarasulu/871
REM
REM
REM
REM
REM
REM ./C.cell (a2850807a9bf4ad07a5b6933b78d9264)
REM AIRSS Version 0.9.1 bugfix July 2018 build 013d7b7c2542+ Fri, 06 Jul 2018 19:26:36 +0100
REM compiler GCC version 9.2.1 20190827 (Red Hat 9.2.1-1)
REM options -cpp -mtune=generic -march=x86-64 -g -O0 -fpre-include=/usr/include/finclude/math-vector-fortran.h
REM seed 549667694 1605955710 1580835079 -1961004134 -372558154 1608535252 1083108700 1726479788 -1310359297 -1089037257 -2002591408 133428313 -1624668835 -673832479 483094317 -1981187605 -1644684807 1857466662 -38085196 -1309831130 -18711862 415096138 1080477016 -1171054683 -1819494800 1312134393 -1981624650 -765668417 1798596454 493474622 -1540936685 -1693474543 -1531242611
REM
CELL 1.54180   15.00000   15.00000   15.00000   90.00000   90.00000   90.00000
LATT -1
SFAC C  
C      1  0.5334530000000  0.3975300000000  0.4642420000000 1.0
C      1  0.5358980000000  0.5830050000000  0.4291810000000 1.0
C      1  0.5360520000000  0.5226200000000  0.6069940000000 1.0
C      1  0.2663590000000  0.5664140000000  0.4910460000000 1.0
C      1  0.2663420000000  0.4999300000000  0.5669180000000 1.0
C      1  0.2493740000000  0.3941260000000  0.4138610000000 1.0
C      1  0.6644360000000  0.5948330000000  0.6428160000000 1.0
C      1  0.6604750000000  0.3296400000000  0.5117250000000 1.0
C      1  0.6617480000000  0.5764680000000  0.3459930000000 1.0
C      1  0.5269450000000  0.6622770000000  0.3635830000000 1.0
C      1  0.5313570000000  0.5384420000000  0.7102950000000 1.0
C      1  0.5310640000000  0.2989370000000  0.4275820000000 1.0
C      1  0.4142870000000  0.5300680000000  0.3033940000000 1.0
C      1  0.4217030000000  0.6631370000000  0.6330400000000 1.0
C      1  0.4135010000000  0.3150570000000  0.5695010000000 1.0
C      1  0.6635850000000  0.4599800000000  0.6663880000000 1.0
C      1  0.6638160000000  0.3764510000000  0.3832740000000 1.0
C      1  0.6659600000000  0.6641940000000  0.4501410000000 1.0
C      1  0.2961710000000  0.6329820000000  0.5529870000000 1.0
C      1  0.2938560000000  0.4107460000000  0.5680980000000 1.0
C      1  0.2914160000000  0.4640800000000  0.3716920000000 1.0
C      1  0.3680640000000  0.4452970000000  0.3191140000000 1.0
C      1  0.3708810000000  0.6867650000000  0.5519530000000 1.0
C      1  0.3636060000000  0.3794270000000  0.6241520000000 1.0
C      1  0.7264070000000  0.4379150000000  0.4274350000000 1.0
C      1  0.7279250000000  0.5938440000000  0.4820300000000 1.0
C      1  0.7262310000000  0.4673960000000  0.5903050000000 1.0
C      1  0.5832190000000  0.6120130000000  0.5936630000000 1.0
C      1  0.5781960000000  0.3643090000000  0.5494230000000 1.0
C      1  0.5798850000000  0.5265740000000  0.3573780000000 1.0
C      1  0.4305160000000  0.3743070000000  0.3324560000000 1.0
C      1  0.4308530000000  0.7083100000000  0.4785690000000 1.0
C      1  0.4243310000000  0.4228930000000  0.6866240000000 1.0
C      1  0.5116210000000  0.6817470000000  0.6136260000000 1.0
C      1  0.5026890000000  0.3158600000000  0.5980550000000 1.0
C      1  0.5053300000000  0.5089050000000  0.2902680000000 1.0
C      1  0.5845400000000  0.6450060000000  0.4972710000000 1.0
C      1  0.5806550000000  0.4310720000000  0.6265220000000 1.0
C      1  0.5821120000000  0.4265160000000  0.3764210000000 1.0
C      1  0.5067440000000  0.3786750000000  0.6713230000000 1.0
C      1  0.5121820000000  0.4133050000000  0.3054980000000 1.0
C      1  0.5145710000000  0.7136030000000  0.5215320000000 1.0
C      1  0.4405850000000  0.5161400000000  0.7157650000000 1.0
C      1  0.4416180000000  0.3072820000000  0.4034480000000 1.0
C      1  0.4360200000000  0.6747290000000  0.3866150000000 1.0
C      1  0.7262790000000  0.5331240000000  0.4090940000000 1.0
C      1  0.7272760000000  0.5611240000000  0.5737560000000 1.0
C      1  0.7251050000000  0.4047860000000  0.5168720000000 1.0
C      1  0.3830770000000  0.5852730000000  0.6767930000000 1.0
C      1  0.3802210000000  0.3099230000000  0.4798880000000 1.0
C      1  0.3755870000000  0.6005880000000  0.3564400000000 1.0
C      1  0.6316320000000  0.6655710000000  0.3604910000000 1.0
C      1  0.6330180000000  0.5378930000000  0.7131430000000 1.0
C      1  0.6314480000000  0.2971570000000  0.4268250000000 1.0
C      1  0.4571040000000  0.5119600000000  0.5533950000000 1.0
C      1  0.4545960000000  0.4507870000000  0.4824720000000 1.0
C      1  0.4573960000000  0.5420640000000  0.4677430000000 1.0
C      1  0.2977600000000  0.5568440000000  0.4018460000000 1.0
C      1  0.3040090000000  0.5674330000000  0.6263580000000 1.0
C      1  0.2989120000000  0.3626650000000  0.4826900000000 1.0
END
