TITL C-2159255-4746-1443 -0.061318910457718 3375 -406.147136349245 0 0 60 (C1) n - 1
REM
REM in /scratch/bkarasulu/871
REM
REM
REM
REM
REM
REM ./C.cell (a2850807a9bf4ad07a5b6933b78d9264)
REM AIRSS Version 0.9.1 bugfix July 2018 build 013d7b7c2542+ Fri, 06 Jul 2018 19:26:36 +0100
REM compiler GCC version 9.2.1 20190827 (Red Hat 9.2.1-1)
REM options -cpp -mtune=generic -march=x86-64 -g -O0 -fpre-include=/usr/include/finclude/math-vector-fortran.h
REM seed -141150856 307477005 -90817904 1294084514 1612544646 -1047915414 1037845451 1153082733 -504391137 2014169213 874056035 17002133 221729193 493488346 1147110419 -1405830719 882563336 1638095544 2056084302 286644159 1258963663 -70727843 -41617729 -694842698 -1775736417 1243039583 421729978 1346364957 1895592053 -1892283015 1509594006 -1107920154 -1464247703
REM
CELL 1.54180   15.00000   15.00000   15.00000   90.00000   90.00000   90.00000
LATT -1
SFAC C  
C      1  0.3311390000000  0.5187500000000  0.5555870000000 1.0
C      1  0.4174100000000  0.4944410000000  0.6855920000000 1.0
C      1  0.5706560000000  0.5312010000000  0.6642950000000 1.0
C      1  0.7215110000000  0.4607020000000  0.4997800000000 1.0
C      1  0.6499980000000  0.5187600000000  0.3469190000000 1.0
C      1  0.5079900000000  0.5708700000000  0.3167730000000 1.0
C      1  0.3775440000000  0.5519400000000  0.4111740000000 1.0
C      1  0.6955640000000  0.4364520000000  0.3738200000000 1.0
C      1  0.5308730000000  0.4285100000000  0.2780750000000 1.0
C      1  0.4390560000000  0.4469490000000  0.3110380000000 1.0
C      1  0.3257390000000  0.4044550000000  0.4445580000000 1.0
C      1  0.3535570000000  0.3651920000000  0.5996800000000 1.0
C      1  0.5402690000000  0.3838790000000  0.6405530000000 1.0
C      1  0.6791730000000  0.3819740000000  0.5405950000000 1.0
C      1  0.4166190000000  0.2146730000000  0.5151040000000 1.0
C      1  0.5120840000000  0.2005080000000  0.4848990000000 1.0
C      1  0.5320650000000  0.1301610000000  0.4288230000000 1.0
C      1  0.4853980000000  0.0679677000000  0.3938990000000 1.0
C      1  0.3998730000000  0.0417195000000  0.3859030000000 1.0
C      1  0.3506670000000  0.0874078000000  0.4441140000000 1.0
C      1  0.3504050000000  0.1549900000000  0.4969670000000 1.0
C      1  0.4924150000000  0.5058320000000  0.5405480000000 1.0
C      1  0.5896390000000  0.5048420000000  0.5714570000000 1.0
C      1  0.6625390000000  0.5442810000000  0.5137260000000 1.0
C      1  0.6302530000000  0.5813630000000  0.4218960000000 1.0
C      1  0.5314260000000  0.5914460000000  0.4112610000000 1.0
C      1  0.4767580000000  0.5138780000000  0.4496430000000 1.0
C      1  0.4208320000000  0.5580900000000  0.5726300000000 1.0
C      1  0.6389890000000  0.3203890000000  0.4804000000000 1.0
C      1  0.6365380000000  0.3601210000000  0.3904830000000 1.0
C      1  0.5519860000000  0.3781390000000  0.3569420000000 1.0
C      1  0.4723830000000  0.4158300000000  0.4050710000000 1.0
C      1  0.4054150000000  0.3620280000000  0.4535270000000 1.0
C      1  0.4154400000000  0.3133860000000  0.5455290000000 1.0
C      1  0.5093000000000  0.3185090000000  0.5832530000000 1.0
C      1  0.4142700000000  0.7026040000000  0.4357730000000 1.0
C      1  0.2758600000000  0.6523370000000  0.5032340000000 1.0
C      1  0.3143570000000  0.6262170000000  0.6629350000000 1.0
C      1  0.4812850000000  0.6602140000000  0.6804480000000 1.0
C      1  0.6520340000000  0.6576080000000  0.6365850000000 1.0
C      1  0.7248950000000  0.6939090000000  0.4972830000000 1.0
C      1  0.5824130000000  0.7355630000000  0.4343360000000 1.0
C      1  0.5757150000000  0.5111990000000  0.2874690000000 1.0
C      1  0.4162870000000  0.5359800000000  0.3186010000000 1.0
C      1  0.3204700000000  0.4904900000000  0.4609580000000 1.0
C      1  0.3539060000000  0.4498840000000  0.6247570000000 1.0
C      1  0.5051980000000  0.4617190000000  0.6862210000000 1.0
C      1  0.6179680000000  0.4154280000000  0.5988750000000 1.0
C      1  0.7703220000000  0.4432800000000  0.4262610000000 1.0
C      1  0.6973020000000  0.6315870000000  0.5621790000000 1.0
C      1  0.6594030000000  0.6854970000000  0.4341150000000 1.0
C      1  0.5026580000000  0.6882340000000  0.4326720000000 1.0
C      1  0.3475840000000  0.6419360000000  0.4430360000000 1.0
C      1  0.2798970000000  0.6032450000000  0.5800450000000 1.0
C      1  0.4083030000000  0.5940110000000  0.6663250000000 1.0
C      1  0.5727800000000  0.6234300000000  0.6730050000000 1.0
C      1  0.4658100000000  0.8269180000000  0.6436850000000 1.0
C      1  0.4619860000000  0.9035460000000  0.6022640000000 1.0
C      1  0.5648070000000  0.2733760000000  0.5190990000000 1.0
C      1  0.4678600000000  0.7485330000000  0.6727480000000 1.0
END
