TITL C-2159255-4746-1348 -0.00190940238159538 3375 -409.053208112643 0 0 60 (C1) n - 1
REM
REM in /scratch/bkarasulu/871
REM
REM
REM
REM
REM
REM ./C.cell (a2850807a9bf4ad07a5b6933b78d9264)
REM AIRSS Version 0.9.1 bugfix July 2018 build 013d7b7c2542+ Fri, 06 Jul 2018 19:26:36 +0100
REM compiler GCC version 9.2.1 20190827 (Red Hat 9.2.1-1)
REM options -cpp -mtune=generic -march=x86-64 -g -O0 -fpre-include=/usr/include/finclude/math-vector-fortran.h
REM seed 1818752311 -378990383 -148283390 1717665987 -319541129 407337540 -818640951 -1167255437 -1719555874 2073381160 -1112367929 -1147635730 -988947484 1752293917 401561558 -2000716606 777427033 257778834 -75576690 -120151816 977290066 -898334845 1511788802 -1269413763 -1776751697 -1579668297 -71433670 -350585431 -406883976 -329460129 -1067087710 -945374592 1059378855
REM
CELL 1.54180   15.00000   15.00000   15.00000   90.00000   90.00000   90.00000
LATT -1
SFAC C  
C      1  0.4514900000000  0.5279300000000  0.7291250000000 1.0
C      1  0.6274500000000  0.5680890000000  0.5781980000000 1.0
C      1  0.4048250000000  0.3227460000000  0.3833830000000 1.0
C      1  0.4637630000000  0.5142030000000  0.2646720000000 1.0
C      1  0.3850520000000  0.2927740000000  0.4746200000000 1.0
C      1  0.3535060000000  0.3419950000000  0.5534060000000 1.0
C      1  0.5065780000000  0.6962900000000  0.5706530000000 1.0
C      1  0.5824640000000  0.4440410000000  0.6831420000000 1.0
C      1  0.3100630000000  0.4987180000000  0.4263290000000 1.0
C      1  0.3884730000000  0.3985700000000  0.3303010000000 1.0
C      1  0.5628270000000  0.4512660000000  0.4513040000000 1.0
C      1  0.6562410000000  0.5888990000000  0.3926310000000 1.0
C      1  0.4151720000000  0.3193190000000  0.6246310000000 1.0
C      1  0.2941960000000  0.5073150000000  0.5204610000000 1.0
C      1  0.3433500000000  0.4485660000000  0.6624320000000 1.0
C      1  0.3987590000000  0.7154860000000  0.4410960000000 1.0
C      1  0.4156230000000  0.3879820000000  0.6874550000000 1.0
C      1  0.4658160000000  0.4236410000000  0.2775750000000 1.0
C      1  0.6146670000000  0.6671290000000  0.4428050000000 1.0
C      1  0.7056300000000  0.5489230000000  0.4626980000000 1.0
C      1  0.6428330000000  0.4908180000000  0.5134710000000 1.0
C      1  0.4017140000000  0.5797240000000  0.3068720000000 1.0
C      1  0.4965160000000  0.3033270000000  0.3627380000000 1.0
C      1  0.4899420000000  0.4412550000000  0.7171940000000 1.0
C      1  0.6068620000000  0.2920670000000  0.4772150000000 1.0
C      1  0.4737920000000  0.7096550000000  0.3779140000000 1.0
C      1  0.6163850000000  0.5294920000000  0.3316870000000 1.0
C      1  0.5387770000000  0.3763700000000  0.3148800000000 1.0
C      1  0.6243580000000  0.3819230000000  0.6256770000000 1.0
C      1  0.5028630000000  0.6069270000000  0.7139090000000 1.0
C      1  0.3388710000000  0.5777290000000  0.3817640000000 1.0
C      1  0.5510180000000  0.6176570000000  0.5263670000000 1.0
C      1  0.5309370000000  0.2557300000000  0.4359640000000 1.0
C      1  0.6893430000000  0.6937290000000  0.5076710000000 1.0
C      1  0.6134060000000  0.5403160000000  0.6740090000000 1.0
C      1  0.4889080000000  0.2693340000000  0.5879140000000 1.0
C      1  0.7194630000000  0.3680330000000  0.4882220000000 1.0
C      1  0.4619290000000  0.2421680000000  0.5011760000000 1.0
C      1  0.6072350000000  0.4254220000000  0.3646120000000 1.0
C      1  0.5241200000000  0.7764600000000  0.5105380000000 1.0
C      1  0.4809400000000  0.5468300000000  0.5084180000000 1.0
C      1  0.3120720000000  0.4286960000000  0.5754200000000 1.0
C      1  0.5704230000000  0.3228470000000  0.5695800000000 1.0
C      1  0.3687950000000  0.5359870000000  0.6838620000000 1.0
C      1  0.5512540000000  0.7384520000000  0.4251190000000 1.0
C      1  0.3246130000000  0.5970290000000  0.5407810000000 1.0
C      1  0.6870420000000  0.4165410000000  0.5595840000000 1.0
C      1  0.4768310000000  0.6401360000000  0.3152940000000 1.0
C      1  0.3442380000000  0.6398890000000  0.4532280000000 1.0
C      1  0.3879110000000  0.4538700000000  0.4055900000000 1.0
C      1  0.5137330000000  0.3983910000000  0.5163360000000 1.0
C      1  0.7119390000000  0.6130970000000  0.5393820000000 1.0
C      1  0.3689490000000  0.6112890000000  0.6263940000000 1.0
C      1  0.4805900000000  0.5050070000000  0.4241490000000 1.0
C      1  0.4726960000000  0.4700170000000  0.5662820000000 1.0
C      1  0.5407750000000  0.5671590000000  0.2882050000000 1.0
C      1  0.6579550000000  0.3549850000000  0.4241570000000 1.0
C      1  0.4376740000000  0.7558690000000  0.5196030000000 1.0
C      1  0.5915070000000  0.6044350000000  0.7381850000000 1.0
C      1  0.4548480000000  0.6574550000000  0.6437200000000 1.0
END
