TITL C-2159252-5904-152 -0.00205353144248862 3375 -418.575624897126 0 0 60 (C1) n - 1
REM
REM in /scratch/bkarasulu/870
REM
REM
REM
REM
REM
REM ./C.cell (a2850807a9bf4ad07a5b6933b78d9264)
REM AIRSS Version 0.9.1 bugfix July 2018 build 013d7b7c2542+ Fri, 06 Jul 2018 19:26:36 +0100
REM compiler GCC version 9.2.1 20190827 (Red Hat 9.2.1-1)
REM options -cpp -mtune=generic -march=x86-64 -g -O0 -fpre-include=/usr/include/finclude/math-vector-fortran.h
REM seed -986384280 -1340582915 307837499 -848095037 -1795034792 -261143618 -1872775788 1355597891 -636739004 -165632104 -613606940 833866837 934825762 -1494390429 -956917620 -1970817368 44622670 1043829947 2106763756 -1917619600 1265922124 1982444053 928090005 1772004335 -1812918062 387235345 -1675501768 -1538391540 569906938 157381871 -1298761496 -985407210 -1014122713
REM
CELL 1.54180   15.00000   15.00000   15.00000   90.00000   90.00000   90.00000
LATT -1
SFAC C  
C      1  0.7186010000000  0.4614180000000  0.4547510000000 1.0
C      1  0.4428690000000  0.4574040000000  0.7022610000000 1.0
C      1  0.3526130000000  0.4640850000000  0.3346890000000 1.0
C      1  0.5566750000000  0.3385600000000  0.3177610000000 1.0
C      1  0.6284650000000  0.3260380000000  0.6307900000000 1.0
C      1  0.3239530000000  0.3377510000000  0.5345190000000 1.0
C      1  0.4540000000000  0.5992010000000  0.3328070000000 1.0
C      1  0.6736830000000  0.5850940000000  0.5578870000000 1.0
C      1  0.3891250000000  0.5846870000000  0.6145820000000 1.0
C      1  0.6265090000000  0.5424180000000  0.7006240000000 1.0
C      1  0.2759790000000  0.5563660000000  0.5029340000000 1.0
C      1  0.6018860000000  0.5601390000000  0.2958910000000 1.0
C      1  0.6686120000000  0.3250310000000  0.5392400000000 1.0
C      1  0.3816970000000  0.3283170000000  0.6154170000000 1.0
C      1  0.4571590000000  0.3316270000000  0.3271940000000 1.0
C      1  0.6702390000000  0.3966350000000  0.6773260000000 1.0
C      1  0.2682300000000  0.4116070000000  0.5494290000000 1.0
C      1  0.5712700000000  0.4149170000000  0.2655170000000 1.0
C      1  0.5226980000000  0.4085880000000  0.7149620000000 1.0
C      1  0.3036480000000  0.4181910000000  0.4004730000000 1.0
C      1  0.6805060000000  0.4236400000000  0.3751240000000 1.0
C      1  0.4183280000000  0.6059860000000  0.5221020000000 1.0
C      1  0.5124230000000  0.5847450000000  0.4930830000000 1.0
C      1  0.5771300000000  0.6162340000000  0.5617010000000 1.0
C      1  0.2588890000000  0.4665470000000  0.4719640000000 1.0
C      1  0.6392480000000  0.4715760000000  0.3016330000000 1.0
C      1  0.6076540000000  0.4510620000000  0.7256800000000 1.0
C      1  0.5081610000000  0.5521450000000  0.2725640000000 1.0
C      1  0.6978220000000  0.5367330000000  0.6319210000000 1.0
C      1  0.3031940000000  0.5489240000000  0.6011230000000 1.0
C      1  0.5349450000000  0.3244810000000  0.6638410000000 1.0
C      1  0.3395110000000  0.3348520000000  0.4365700000000 1.0
C      1  0.6327840000000  0.3365400000000  0.3822100000000 1.0
C      1  0.3624580000000  0.6836660000000  0.4949770000000 1.0
C      1  0.5149910000000  0.6451270000000  0.3969170000000 1.0
C      1  0.5679130000000  0.7125900000000  0.5822860000000 1.0
C      1  0.4188000000000  0.4153800000000  0.2889060000000 1.0
C      1  0.7220200000000  0.4070780000000  0.5319880000000 1.0
C      1  0.3676820000000  0.4107590000000  0.6671810000000 1.0
C      1  0.7233410000000  0.4475210000000  0.6183310000000 1.0
C      1  0.2973570000000  0.4596010000000  0.6256110000000 1.0
C      1  0.4909940000000  0.4624150000000  0.2499740000000 1.0
C      1  0.5072640000000  0.4800660000000  0.4925370000000 1.0
C      1  0.5427840000000  0.5809920000000  0.6543370000000 1.0
C      1  0.3656670000000  0.5472710000000  0.4636320000000 1.0
C      1  0.4229920000000  0.7518270000000  0.4888540000000 1.0
C      1  0.5017790000000  0.7355550000000  0.4365800000000 1.0
C      1  0.5107030000000  0.7590950000000  0.5250770000000 1.0
C      1  0.5969250000000  0.6380310000000  0.7180320000000 1.0
C      1  0.2820370000000  0.6461990000000  0.4569030000000 1.0
C      1  0.6083840000000  0.6280700000000  0.3608230000000 1.0
C      1  0.4602400000000  0.2847260000000  0.6300710000000 1.0
C      1  0.4044280000000  0.2911410000000  0.3886240000000 1.0
C      1  0.6420580000000  0.2897500000000  0.4599170000000 1.0
C      1  0.7081440000000  0.5573230000000  0.4734850000000 1.0
C      1  0.4532840000000  0.5487300000000  0.6728050000000 1.0
C      1  0.3664220000000  0.5610950000000  0.3604230000000 1.0
C      1  0.6777300000000  0.6168940000000  0.4145380000000 1.0
C      1  0.5977000000000  0.7134670000000  0.6722080000000 1.0
C      1  0.2873980000000  0.6240890000000  0.3664140000000 1.0
END
