TITL C-2159252-5904-203 -0.0035876038880146 3375 -412.128209148378 0 0 60 (Cs) n - 1
REM
REM in /scratch/bkarasulu/870
REM
REM
REM
REM
REM
REM ./C.cell (a2850807a9bf4ad07a5b6933b78d9264)
REM AIRSS Version 0.9.1 bugfix July 2018 build 013d7b7c2542+ Fri, 06 Jul 2018 19:26:36 +0100
REM compiler GCC version 9.2.1 20190827 (Red Hat 9.2.1-1)
REM options -cpp -mtune=generic -march=x86-64 -g -O0 -fpre-include=/usr/include/finclude/math-vector-fortran.h
REM seed -2122359966 -1094360106 308484971 615398850 48013068 1172160919 -1299764499 1125213781 1836897156 -1790690862 -1693218105 -2089970557 -736362765 717608817 -168812600 -200283826 -1485136382 180399504 -717255862 54540035 1266141310 -1645895208 675926993 33677889 -146310759 -1284743148 -1347810652 1741143304 271066407 -1138203226 447035029 1629029256 716771626
REM
CELL 1.54180   15.00000   15.00000   15.00000   90.00000   90.00000   90.00000
LATT -1
SFAC C  
C      1  0.3758430000000  0.6414170000000  0.4012660000000 1.0
C      1  0.3812310000000  0.6714400000000  0.4941120000000 1.0
C      1  0.3758480000000  0.6492730000000  0.5891400000000 1.0
C      1  0.3802720000000  0.5773870000000  0.6552200000000 1.0
C      1  0.3762710000000  0.4813430000000  0.6736740000000 1.0
C      1  0.3818750000000  0.3922510000000  0.6346550000000 1.0
C      1  0.3692940000000  0.3347060000000  0.5577000000000 1.0
C      1  0.3692910000000  0.3305730000000  0.4588560000000 1.0
C      1  0.3818680000000  0.3814930000000  0.3773660000000 1.0
C      1  0.3762610000000  0.4670170000000  0.3310460000000 1.0
C      1  0.3802630000000  0.5642660000000  0.3414180000000 1.0
C      1  0.5806400000000  0.4259430000000  0.7467600000000 1.0
C      1  0.5750030000000  0.2807110000000  0.5973850000000 1.0
C      1  0.5574480000000  0.2377550000000  0.5122410000000 1.0
C      1  0.5749990000000  0.2734530000000  0.4238060000000 1.0
C      1  0.5806280000000  0.4057080000000  0.2628300000000 1.0
C      1  0.5798020000000  0.5019010000000  0.2441180000000 1.0
C      1  0.5781100000000  0.6770170000000  0.3173690000000 1.0
C      1  0.5781980000000  0.7321020000000  0.3973080000000 1.0
C      1  0.5782030000000  0.7399730000000  0.5855040000000 1.0
C      1  0.5781190000000  0.6917520000000  0.6697630000000 1.0
C      1  0.5798150000000  0.5233620000000  0.7573760000000 1.0
C      1  0.4872290000000  0.5243600000000  0.2281310000000 1.0
C      1  0.4860380000000  0.6729980000000  0.2873480000000 1.0
C      1  0.4863730000000  0.7591300000000  0.4103530000000 1.0
C      1  0.4863770000000  0.7658170000000  0.5702530000000 1.0
C      1  0.4860480000000  0.6902540000000  0.7000180000000 1.0
C      1  0.4872420000000  0.5470770000000  0.7714360000000 1.0
C      1  0.4890440000000  0.3978540000000  0.7529540000000 1.0
C      1  0.4886690000000  0.2745050000000  0.6456500000000 1.0
C      1  0.4618010000000  0.2102340000000  0.5133940000000 1.0
C      1  0.4886630000000  0.2632400000000  0.3762320000000 1.0
C      1  0.4890310000000  0.3772010000000  0.2590070000000 1.0
C      1  0.6327650000000  0.5199560000000  0.3259630000000 1.0
C      1  0.6315170000000  0.6063750000000  0.3628470000000 1.0
C      1  0.6320920000000  0.6630740000000  0.4474990000000 1.0
C      1  0.6320940000000  0.6669940000000  0.5412480000000 1.0
C      1  0.6315240000000  0.6175610000000  0.6303380000000 1.0
C      1  0.6327740000000  0.5345220000000  0.6743070000000 1.0
C      1  0.6304490000000  0.4322820000000  0.6628760000000 1.0
C      1  0.6245800000000  0.3661410000000  0.5931920000000 1.0
C      1  0.6328120000000  0.3975140000000  0.5055590000000 1.0
C      1  0.6245750000000  0.3589350000000  0.4208520000000 1.0
C      1  0.6304400000000  0.4190280000000  0.3458890000000 1.0
C      1  0.4436690000000  0.5935140000000  0.2697290000000 1.0
C      1  0.4308020000000  0.7098630000000  0.3532320000000 1.0
C      1  0.4437490000000  0.7486560000000  0.4908820000000 1.0
C      1  0.4308080000000  0.7214900000000  0.6312900000000 1.0
C      1  0.4436810000000  0.6125180000000  0.7242140000000 1.0
C      1  0.4329460000000  0.4725830000000  0.7551200000000 1.0
C      1  0.4492450000000  0.3445300000000  0.6898750000000 1.0
C      1  0.4203300000000  0.2526320000000  0.5840080000000 1.0
C      1  0.4203260000000  0.2465900000000  0.4394880000000 1.0
C      1  0.4492350000000  0.3293290000000  0.3263200000000 1.0
C      1  0.4329340000000  0.4514890000000  0.2506130000000 1.0
C      1  0.3712120000000  0.4973250000000  0.5013870000000 1.0
C      1  0.7287210000000  0.5135430000000  0.5007050000000 1.0
C      1  0.4608690000000  0.4957300000000  0.5014560000000 1.0
C      1  0.6414090000000  0.4943990000000  0.5015080000000 1.0
C      1  0.5431040000000  0.5189070000000  0.5004870000000 1.0
END
