TITL C-2159252-5904-434 -0.0045999757448206 3375 -407.804626963811 0 0 60 (C2) n - 1
REM
REM in /scratch/bkarasulu/870
REM
REM
REM
REM
REM
REM ./C.cell (a2850807a9bf4ad07a5b6933b78d9264)
REM AIRSS Version 0.9.1 bugfix July 2018 build 013d7b7c2542+ Fri, 06 Jul 2018 19:26:36 +0100
REM compiler GCC version 9.2.1 20190827 (Red Hat 9.2.1-1)
REM options -cpp -mtune=generic -march=x86-64 -g -O0 -fpre-include=/usr/include/finclude/math-vector-fortran.h
REM seed -96237735 -762250984 -1159609726 1212182527 966667101 1845906371 1643960423 -748761874 2082293062 -412476351 1376226284 1533683928 -1418266944 -1247086650 1789846312 866096722 -1590814090 -1863826140 640093421 1366321738 -115647293 -945388917 1117808765 1193492633 -1013152625 -1270951165 -664543575 182316681 249124785 -315166119 391037795 255095465 50810089
REM
CELL 1.54180   15.00000   15.00000   15.00000   90.00000   90.00000   90.00000
LATT -1
SFAC C  
C      1  0.4291930000000  0.5932870000000  0.7273110000000 1.0
C      1  0.4280480000000  0.4254930000000  0.7498190000000 1.0
C      1  0.4106350000000  0.2785540000000  0.6743780000000 1.0
C      1  0.4173080000000  0.2201200000000  0.5165240000000 1.0
C      1  0.4064110000000  0.2628720000000  0.3545440000000 1.0
C      1  0.4291590000000  0.4067070000000  0.2726950000000 1.0
C      1  0.4280110000000  0.5745010000000  0.2501900000000 1.0
C      1  0.4106040000000  0.7214420000000  0.3256270000000 1.0
C      1  0.4172990000000  0.7798750000000  0.4834800000000 1.0
C      1  0.4064270000000  0.7371200000000  0.6454610000000 1.0
C      1  0.4132110000000  0.7620430000000  0.4001090000000 1.0
C      1  0.4107650000000  0.7708450000000  0.5683390000000 1.0
C      1  0.4153030000000  0.6706250000000  0.7012740000000 1.0
C      1  0.4631830000000  0.5063410000000  0.7156600000000 1.0
C      1  0.4156350000000  0.3462300000000  0.7288260000000 1.0
C      1  0.4132350000000  0.2379540000000  0.5998950000000 1.0
C      1  0.4107590000000  0.2291490000000  0.4316660000000 1.0
C      1  0.4152790000000  0.3293660000000  0.2987280000000 1.0
C      1  0.4631500000000  0.4936530000000  0.2843450000000 1.0
C      1  0.4156000000000  0.6537650000000  0.2711800000000 1.0
C      1  0.6573210000000  0.7133140000000  0.6223880000000 1.0
C      1  0.6797350000000  0.5994800000000  0.7473960000000 1.0
C      1  0.6802370000000  0.4324230000000  0.7683390000000 1.0
C      1  0.6648150000000  0.2860920000000  0.6840610000000 1.0
C      1  0.6877390000000  0.2245650000000  0.5295930000000 1.0
C      1  0.6573020000000  0.2866830000000  0.3776020000000 1.0
C      1  0.6797020000000  0.4005160000000  0.2525920000000 1.0
C      1  0.6801960000000  0.5675730000000  0.2316500000000 1.0
C      1  0.6647830000000  0.7139020000000  0.3159290000000 1.0
C      1  0.6877310000000  0.7754330000000  0.4703910000000 1.0
C      1  0.2527070000000  0.6517910000000  0.5024810000000 1.0
C      1  0.2437570000000  0.6035350000000  0.5744480000000 1.0
C      1  0.2447620000000  0.5301790000000  0.6175400000000 1.0
C      1  0.2514260000000  0.4449590000000  0.6332040000000 1.0
C      1  0.2494080000000  0.3773420000000  0.5793080000000 1.0
C      1  0.2527330000000  0.3482340000000  0.4975340000000 1.0
C      1  0.2437590000000  0.3964870000000  0.4255680000000 1.0
C      1  0.2447420000000  0.4698440000000  0.3824760000000 1.0
C      1  0.2513870000000  0.5550650000000  0.3668120000000 1.0
C      1  0.2493700000000  0.6226810000000  0.4207090000000 1.0
C      1  0.6411030000000  0.6259540000000  0.2944860000000 1.0
C      1  0.6773480000000  0.7580170000000  0.3868230000000 1.0
C      1  0.6762100000000  0.7593840000000  0.5554840000000 1.0
C      1  0.6379770000000  0.6362930000000  0.6716060000000 1.0
C      1  0.6866210000000  0.5177690000000  0.7746270000000 1.0
C      1  0.6411390000000  0.3740420000000  0.7055060000000 1.0
C      1  0.6773700000000  0.2419790000000  0.6131640000000 1.0
C      1  0.6762050000000  0.2406130000000  0.4445030000000 1.0
C      1  0.6379520000000  0.3637030000000  0.3283850000000 1.0
C      1  0.6865840000000  0.4822280000000  0.2253590000000 1.0
C      1  0.5803380000000  0.4223310000000  0.3783630000000 1.0
C      1  0.5355860000000  0.5013780000000  0.3440000000000 1.0
C      1  0.5863380000000  0.5827660000000  0.3629710000000 1.0
C      1  0.5855450000000  0.6042120000000  0.4530940000000 1.0
C      1  0.5714760000000  0.5913070000000  0.5331830000000 1.0
C      1  0.5803600000000  0.5776650000000  0.6216340000000 1.0
C      1  0.5356150000000  0.4986160000000  0.6560000000000 1.0
C      1  0.5863670000000  0.4172300000000  0.6370260000000 1.0
C      1  0.5855620000000  0.3957850000000  0.5469020000000 1.0
C      1  0.5714730000000  0.4086910000000  0.4668160000000 1.0
END
