TITL C-2158988-7926-70 -0.00360946602570285 3375 -421.100234889733 0 0 60 (D2d) n - 1
REM
REM in /scratch/bkarasulu/868
REM
REM
REM
REM
REM
REM ./C.cell (a2850807a9bf4ad07a5b6933b78d9264)
REM AIRSS Version 0.9.1 bugfix July 2018 build 013d7b7c2542+ Fri, 06 Jul 2018 19:26:36 +0100
REM compiler GCC version 9.2.1 20190827 (Red Hat 9.2.1-1)
REM options -cpp -mtune=generic -march=x86-64 -g -O0 -fpre-include=/usr/include/finclude/math-vector-fortran.h
REM seed 965797336 1810574313 -877638063 -883211217 922725794 228235723 287982717 -1138204277 -1359993986 1885299512 36183123 -806166435 447492768 -1015209447 -936943226 1330957455 1200351112 299436687 1066034103 -745465013 1699725800 -356401179 -1660168890 1617701887 1206707104 -479687456 1737196625 1904991145 2005110034 -1964056077 718093119 214992854 -98370177
REM
CELL 1.54180   15.00000   15.00000   15.00000   90.00000   90.00000   90.00000
LATT -1
SFAC C  
C      1  0.6109630000000  0.5617550000000  0.7229090000000 1.0
C      1  0.6109630000000  0.7076870000000  0.6018180000000 1.0
C      1  0.6142190000000  0.7347580000000  0.5082670000000 1.0
C      1  0.6130310000000  0.6932420000000  0.3396560000000 1.0
C      1  0.6142190000000  0.5351840000000  0.2677440000000 1.0
C      1  0.6109630000000  0.4382450000000  0.2770910000000 1.0
C      1  0.6109630000000  0.2923130000000  0.3981820000000 1.0
C      1  0.6142190000000  0.2652420000000  0.4917330000000 1.0
C      1  0.6130310000000  0.3067580000000  0.6603440000000 1.0
C      1  0.6142190000000  0.4648160000000  0.7322560000000 1.0
C      1  0.5229710000000  0.4088350000000  0.2602800000000 1.0
C      1  0.5229710000000  0.2812170000000  0.3661750000000 1.0
C      1  0.5273010000000  0.2372880000000  0.5145550000000 1.0
C      1  0.5209380000000  0.3023590000000  0.6639940000000 1.0
C      1  0.5273000000000  0.4372280000000  0.7555180000000 1.0
C      1  0.5229710000000  0.5911650000000  0.7397200000000 1.0
C      1  0.5229710000000  0.7187830000000  0.6338250000000 1.0
C      1  0.5273010000000  0.7627120000000  0.4854450000000 1.0
C      1  0.5209380000000  0.6976410000000  0.3360060000000 1.0
C      1  0.5273000000000  0.5627720000000  0.2444820000000 1.0
C      1  0.3368940000000  0.6502980000000  0.5437560000000 1.0
C      1  0.3375830000000  0.6397260000000  0.4440410000000 1.0
C      1  0.3375820000000  0.5807760000000  0.3729950000000 1.0
C      1  0.3368930000000  0.4847230000000  0.3442070000000 1.0
C      1  0.3415490000000  0.3955040000000  0.3740640000000 1.0
C      1  0.3368940000000  0.3497020000000  0.4562440000000 1.0
C      1  0.3375830000000  0.3602740000000  0.5559590000000 1.0
C      1  0.3375820000000  0.4192240000000  0.6270050000000 1.0
C      1  0.3368930000000  0.5152770000000  0.6557930000000 1.0
C      1  0.3415490000000  0.6044960000000  0.6259360000000 1.0
C      1  0.3890370000000  0.3981830000000  0.7076880000000 1.0
C      1  0.3857810000000  0.4917330000000  0.7347600000000 1.0
C      1  0.3869690000000  0.6603430000000  0.6932430000000 1.0
C      1  0.3857810000000  0.7322540000000  0.5351840000000 1.0
C      1  0.3890370000000  0.7229070000000  0.4382450000000 1.0
C      1  0.3890370000000  0.6018170000000  0.2923120000000 1.0
C      1  0.3857810000000  0.5082670000000  0.2652400000000 1.0
C      1  0.3869690000000  0.3396570000000  0.3067570000000 1.0
C      1  0.3857810000000  0.2677460000000  0.4648160000000 1.0
C      1  0.3890370000000  0.2770930000000  0.5617550000000 1.0
C      1  0.6624180000000  0.6270030000000  0.5807760000000 1.0
C      1  0.6631070000000  0.6557910000000  0.4847230000000 1.0
C      1  0.6584510000000  0.6259350000000  0.3955040000000 1.0
C      1  0.6631060000000  0.5437560000000  0.3497000000000 1.0
C      1  0.6624180000000  0.4440410000000  0.3602720000000 1.0
C      1  0.6624180000000  0.3729970000000  0.4192240000000 1.0
C      1  0.6631070000000  0.3442090000000  0.5152770000000 1.0
C      1  0.6584510000000  0.3740650000000  0.6044960000000 1.0
C      1  0.6631060000000  0.4562440000000  0.6503000000000 1.0
C      1  0.6624180000000  0.5559590000000  0.6397280000000 1.0
C      1  0.4770290000000  0.2602820000000  0.5911650000000 1.0
C      1  0.4770290000000  0.3661750000000  0.7187840000000 1.0
C      1  0.4726990000000  0.5145550000000  0.7627140000000 1.0
C      1  0.4790620000000  0.6639940000000  0.6976430000000 1.0
C      1  0.4727000000000  0.7555160000000  0.5627720000000 1.0
C      1  0.4770290000000  0.7397180000000  0.4088350000000 1.0
C      1  0.4770290000000  0.6338250000000  0.2812160000000 1.0
C      1  0.4726990000000  0.4854450000000  0.2372860000000 1.0
C      1  0.4790620000000  0.3360060000000  0.3023570000000 1.0
C      1  0.4727000000000  0.2444840000000  0.4372280000000 1.0
END
