TITL C-2158988-7926-275 -0.00168460419044292 3375 -396.954389944028 0 0 60 (C3i) n - 1
REM
REM in /scratch/bkarasulu/868
REM
REM
REM
REM
REM
REM ./C.cell (a2850807a9bf4ad07a5b6933b78d9264)
REM AIRSS Version 0.9.1 bugfix July 2018 build 013d7b7c2542+ Fri, 06 Jul 2018 19:26:36 +0100
REM compiler GCC version 9.2.1 20190827 (Red Hat 9.2.1-1)
REM options -cpp -mtune=generic -march=x86-64 -g -O0 -fpre-include=/usr/include/finclude/math-vector-fortran.h
REM seed -1808811617 -373453270 -833420682 -1809917201 -1436184623 -3394732 1616688785 -1737430277 265760926 1261999813 1647536585 1602093533 519907947 1192286441 636033868 -362342623 -1404100529 221382767 1257775274 -1642066484 -1440228628 894902873 2064899052 -999290721 2093677836 512013715 -811114730 -1939276972 266672244 125104487 2136555126 -321681916 -1604520628
REM
CELL 1.54180   15.00000   15.00000   15.00000   90.00000   90.00000   90.00000
LATT -1
SFAC C  
C      1  0.3962180000000  0.4294180000000  0.3348990000000 1.0
C      1  0.4089090000000  0.4294200000000  0.6724290000000 1.0
C      1  0.6948740000000  0.4294190000000  0.4926730000000 1.0
C      1  0.3962180000000  0.5705820000000  0.6651010000000 1.0
C      1  0.4089090000000  0.5705800000000  0.3275710000000 1.0
C      1  0.6948740000000  0.5705810000000  0.5073270000000 1.0
C      1  0.6037820000000  0.5705820000000  0.6651010000000 1.0
C      1  0.5910910000000  0.5705800000000  0.3275710000000 1.0
C      1  0.3051260000000  0.5705810000000  0.5073270000000 1.0
C      1  0.6037820000000  0.4294180000000  0.3348990000000 1.0
C      1  0.5910910000000  0.4294200000000  0.6724290000000 1.0
C      1  0.3051260000000  0.4294190000000  0.4926730000000 1.0
C      1  0.5495680000000  0.3425720000000  0.6638940000000 1.0
C      1  0.6171520000000  0.3425710000000  0.3751280000000 1.0
C      1  0.3332800000000  0.3425710000000  0.4609810000000 1.0
C      1  0.5495680000000  0.6574280000000  0.3361060000000 1.0
C      1  0.6171520000000  0.6574290000000  0.6248720000000 1.0
C      1  0.3332800000000  0.6574290000000  0.5390190000000 1.0
C      1  0.4504320000000  0.6574280000000  0.3361060000000 1.0
C      1  0.3828480000000  0.6574290000000  0.6248720000000 1.0
C      1  0.6667200000000  0.6574290000000  0.5390190000000 1.0
C      1  0.4504320000000  0.3425720000000  0.6638940000000 1.0
C      1  0.3828480000000  0.3425710000000  0.3751280000000 1.0
C      1  0.6667200000000  0.3425710000000  0.4609810000000 1.0
C      1  0.5475970000000  0.4479080000000  0.5832600000000 1.0
C      1  0.5483070000000  0.4479080000000  0.4171500000000 1.0
C      1  0.4040960000000  0.4479080000000  0.4995910000000 1.0
C      1  0.5475970000000  0.5520920000000  0.4167400000000 1.0
C      1  0.5483070000000  0.5520920000000  0.5828500000000 1.0
C      1  0.4040960000000  0.5520920000000  0.5004090000000 1.0
C      1  0.4524030000000  0.5520920000000  0.4167400000000 1.0
C      1  0.4516930000000  0.5520920000000  0.5828500000000 1.0
C      1  0.5959040000000  0.5520920000000  0.5004090000000 1.0
C      1  0.4524030000000  0.4479080000000  0.5832600000000 1.0
C      1  0.4516930000000  0.4479080000000  0.4171500000000 1.0
C      1  0.5959040000000  0.4479080000000  0.4995910000000 1.0
C      1  0.3307480000000  0.5052890000000  0.3504270000000 1.0
C      1  0.4550920000000  0.5052900000000  0.7213640000000 1.0
C      1  0.7141610000000  0.5052890000000  0.4282100000000 1.0
C      1  0.3307480000000  0.4947110000000  0.6495730000000 1.0
C      1  0.4550920000000  0.4947100000000  0.2786360000000 1.0
C      1  0.7141610000000  0.4947110000000  0.5717900000000 1.0
C      1  0.6692520000000  0.4947110000000  0.6495730000000 1.0
C      1  0.5449080000000  0.4947100000000  0.2786360000000 1.0
C      1  0.2858390000000  0.4947110000000  0.5717900000000 1.0
C      1  0.6692520000000  0.5052890000000  0.3504270000000 1.0
C      1  0.5449080000000  0.5052900000000  0.7213640000000 1.0
C      1  0.2858390000000  0.5052890000000  0.4282100000000 1.0
C      1  0.5466450000000  0.7140140000000  0.5834830000000 1.0
C      1  0.5489770000000  0.7140130000000  0.4178610000000 1.0
C      1  0.4043780000000  0.7140130000000  0.4986530000000 1.0
C      1  0.5466450000000  0.2859860000000  0.4165170000000 1.0
C      1  0.5489770000000  0.2859870000000  0.5821390000000 1.0
C      1  0.4043780000000  0.2859870000000  0.5013470000000 1.0
C      1  0.4533550000000  0.2859860000000  0.4165170000000 1.0
C      1  0.4510230000000  0.2859870000000  0.5821390000000 1.0
C      1  0.5956220000000  0.2859870000000  0.5013470000000 1.0
C      1  0.4533550000000  0.7140140000000  0.5834830000000 1.0
C      1  0.4510230000000  0.7140130000000  0.4178610000000 1.0
C      1  0.5956220000000  0.7140130000000  0.4986530000000 1.0
END
