TITL C-2158984-8299-794 -0.00236660662056766 3375 -390.777240050821 0 0 60 (D2) n - 1
REM
REM in /scratch/bkarasulu/869
REM
REM
REM
REM
REM
REM ./C.cell (a2850807a9bf4ad07a5b6933b78d9264)
REM AIRSS Version 0.9.1 bugfix July 2018 build 013d7b7c2542+ Fri, 06 Jul 2018 19:26:36 +0100
REM compiler GCC version 9.2.1 20190827 (Red Hat 9.2.1-1)
REM options -cpp -mtune=generic -march=x86-64 -g -O0 -fpre-include=/usr/include/finclude/math-vector-fortran.h
REM seed 1572695449 -249612608 1143487944 211344772 1350142338 -1762116470 -288327176 348764108 -1701250590 -1282822749 -913514584 1558525675 713094963 -1748154192 410182618 168507835 2004343695 -1325061305 -186752258 534380296 632487206 -1541083621 89612775 -347033147 -1660353242 806786668 1555690549 22646641 1228457423 1155405774 -1898271586 764953265 -1615085083
REM
CELL 1.54180   15.00000   15.00000   15.00000   90.00000   90.00000   90.00000
LATT -1
SFAC C  
C      1  0.4528990000000  0.3976740000000  0.4755840000000 1.0
C      1  0.5471010000000  0.6023260000000  0.4755840000000 1.0
C      1  0.4528990000000  0.6023260000000  0.5244160000000 1.0
C      1  0.5471010000000  0.3976740000000  0.5244160000000 1.0
C      1  0.3969810000000  0.5352060000000  0.3796990000000 1.0
C      1  0.6030190000000  0.4647940000000  0.3796990000000 1.0
C      1  0.3969810000000  0.4647940000000  0.6203010000000 1.0
C      1  0.6030190000000  0.5352060000000  0.6203010000000 1.0
C      1  0.2867970000000  0.5997520000000  0.5534050000000 1.0
C      1  0.7132030000000  0.4002480000000  0.5534050000000 1.0
C      1  0.2867970000000  0.4002480000000  0.4465950000000 1.0
C      1  0.7132030000000  0.5997520000000  0.4465950000000 1.0
C      1  0.2637840000000  0.5023510000000  0.5502510000000 1.0
C      1  0.7362160000000  0.4976490000000  0.5502510000000 1.0
C      1  0.2637840000000  0.4976490000000  0.4497490000000 1.0
C      1  0.7362160000000  0.5023510000000  0.4497490000000 1.0
C      1  0.4321690000000  0.6948140000000  0.4022060000000 1.0
C      1  0.5678310000000  0.3051860000000  0.4022060000000 1.0
C      1  0.4321690000000  0.3051860000000  0.5977940000000 1.0
C      1  0.5678310000000  0.6948140000000  0.5977940000000 1.0
C      1  0.5020130000000  0.6790040000000  0.3333110000000 1.0
C      1  0.4979870000000  0.3209960000000  0.3333110000000 1.0
C      1  0.5020130000000  0.3209960000000  0.6666890000000 1.0
C      1  0.4979870000000  0.6790040000000  0.6666890000000 1.0
C      1  0.6674950000000  0.6644460000000  0.4024050000000 1.0
C      1  0.3325050000000  0.3355540000000  0.4024050000000 1.0
C      1  0.6674950000000  0.3355540000000  0.5975950000000 1.0
C      1  0.3325050000000  0.6644460000000  0.5975950000000 1.0
C      1  0.4602650000000  0.4771600000000  0.4190530000000 1.0
C      1  0.5397350000000  0.5228400000000  0.4190530000000 1.0
C      1  0.4602650000000  0.5228400000000  0.5809470000000 1.0
C      1  0.5397350000000  0.4771600000000  0.5809470000000 1.0
C      1  0.2992950000000  0.5887840000000  0.4572010000000 1.0
C      1  0.7007050000000  0.4112160000000  0.4572010000000 1.0
C      1  0.2992950000000  0.4112160000000  0.5427990000000 1.0
C      1  0.7007050000000  0.5887840000000  0.5427990000000 1.0
C      1  0.3935370000000  0.3873900000000  0.5603060000000 1.0
C      1  0.6064630000000  0.6126100000000  0.5603060000000 1.0
C      1  0.3935370000000  0.6126100000000  0.4396940000000 1.0
C      1  0.6064630000000  0.3873900000000  0.4396940000000 1.0
C      1  0.6268620000000  0.4510120000000  0.2903630000000 1.0
C      1  0.3731380000000  0.5489880000000  0.2903630000000 1.0
C      1  0.6268620000000  0.5489880000000  0.7096370000000 1.0
C      1  0.3731380000000  0.4510120000000  0.7096370000000 1.0
C      1  0.4099410000000  0.3976230000000  0.7643220000000 1.0
C      1  0.5900590000000  0.6023770000000  0.7643220000000 1.0
C      1  0.4099410000000  0.6023770000000  0.2356780000000 1.0
C      1  0.5900590000000  0.3976230000000  0.2356780000000 1.0
C      1  0.4973980000000  0.2587170000000  0.4559100000000 1.0
C      1  0.5026020000000  0.7412830000000  0.4559100000000 1.0
C      1  0.4973980000000  0.7412830000000  0.5440900000000 1.0
C      1  0.5026020000000  0.2587170000000  0.5440900000000 1.0
C      1  0.4263110000000  0.3180760000000  0.4086180000000 1.0
C      1  0.5736890000000  0.6819240000000  0.4086180000000 1.0
C      1  0.4263110000000  0.6819240000000  0.5913820000000 1.0
C      1  0.5736890000000  0.3180760000000  0.5913820000000 1.0
C      1  0.5223630000000  0.6585390000000  0.7501110000000 1.0
C      1  0.4776370000000  0.3414610000000  0.7501110000000 1.0
C      1  0.5223630000000  0.3414610000000  0.2498890000000 1.0
C      1  0.4776370000000  0.6585390000000  0.2498890000000 1.0
END
