TITL C-2158984-8299-664 -0.00220562349499553 3375 -412.568920349647 0 0 60 (C1) n - 1
REM
REM in /scratch/bkarasulu/869
REM
REM
REM
REM
REM
REM ./C.cell (a2850807a9bf4ad07a5b6933b78d9264)
REM AIRSS Version 0.9.1 bugfix July 2018 build 013d7b7c2542+ Fri, 06 Jul 2018 19:26:36 +0100
REM compiler GCC version 9.2.1 20190827 (Red Hat 9.2.1-1)
REM options -cpp -mtune=generic -march=x86-64 -g -O0 -fpre-include=/usr/include/finclude/math-vector-fortran.h
REM seed -1607751307 -291360197 -332475045 1266978802 382964764 -3963432 295300361 1090966391 1469816681 -1383296162 1980453463 33856443 -84588344 448009476 -361502850 -1594520894 -1606822658 -280360086 1764726439 -1666089752 917837793 -627086281 -1755154840 -467850358 612459825 -1107608059 -721392944 1954243843 -1601304826 38211757 -472414365 1695245038 -552317153
REM
CELL 1.54180   15.00000   15.00000   15.00000   90.00000   90.00000   90.00000
LATT -1
SFAC C  
C      1  0.5811660000000  0.7463690000000  0.5053400000000 1.0
C      1  0.5851180000000  0.3711400000000  0.7053780000000 1.0
C      1  0.5840610000000  0.3840120000000  0.2963430000000 1.0
C      1  0.3533100000000  0.4224960000000  0.3689000000000 1.0
C      1  0.3491740000000  0.6642800000000  0.4980060000000 1.0
C      1  0.3699600000000  0.4208290000000  0.6089800000000 1.0
C      1  0.2360960000000  0.5003850000000  0.5591390000000 1.0
C      1  0.2346770000000  0.4487540000000  0.4795250000000 1.0
C      1  0.2391100000000  0.5429060000000  0.4744600000000 1.0
C      1  0.3748930000000  0.5705900000000  0.6220740000000 1.0
C      1  0.3651380000000  0.3477660000000  0.5009770000000 1.0
C      1  0.3586120000000  0.5889180000000  0.3656010000000 1.0
C      1  0.5154540000000  0.6807920000000  0.6710200000000 1.0
C      1  0.5163710000000  0.2445410000000  0.5715900000000 1.0
C      1  0.5137950000000  0.5613240000000  0.2619120000000 1.0
C      1  0.5155900000000  0.4309450000000  0.5117250000000 1.0
C      1  0.5305510000000  0.5211840000000  0.4747830000000 1.0
C      1  0.5381750000000  0.5737530000000  0.5522050000000 1.0
C      1  0.5054580000000  0.6404580000000  0.3150590000000 1.0
C      1  0.5108040000000  0.5922480000000  0.7029760000000 1.0
C      1  0.5125000000000  0.2699020000000  0.4800080000000 1.0
C      1  0.6510170000000  0.6036950000000  0.6611320000000 1.0
C      1  0.6394690000000  0.3096470000000  0.5208460000000 1.0
C      1  0.6386620000000  0.5772710000000  0.3410070000000 1.0
C      1  0.6748970000000  0.4736500000000  0.5571300000000 1.0
C      1  0.6773310000000  0.4591800000000  0.4617270000000 1.0
C      1  0.6859210000000  0.5485000000000  0.4940360000000 1.0
C      1  0.3708470000000  0.6581970000000  0.5903790000000 1.0
C      1  0.3674500000000  0.3286090000000  0.5912560000000 1.0
C      1  0.3703010000000  0.5055370000000  0.3239610000000 1.0
C      1  0.6068810000000  0.6917070000000  0.6491910000000 1.0
C      1  0.6113530000000  0.2588830000000  0.5989500000000 1.0
C      1  0.6070550000000  0.5325270000000  0.2620440000000 1.0
C      1  0.4560220000000  0.3493570000000  0.4602450000000 1.0
C      1  0.4272830000000  0.6561670000000  0.3650460000000 1.0
C      1  0.4683890000000  0.5418060000000  0.6296630000000 1.0
C      1  0.6370170000000  0.5620550000000  0.5762590000000 1.0
C      1  0.6178940000000  0.4031910000000  0.5234100000000 1.0
C      1  0.6226450000000  0.5272250000000  0.4219790000000 1.0
C      1  0.4225630000000  0.7016300000000  0.4508820000000 1.0
C      1  0.4671610000000  0.4437430000000  0.6110710000000 1.0
C      1  0.4327620000000  0.3728470000000  0.3670870000000 1.0
C      1  0.5986710000000  0.2796890000000  0.4353050000000 1.0
C      1  0.5923620000000  0.6635010000000  0.3534930000000 1.0
C      1  0.5970790000000  0.5472780000000  0.7214880000000 1.0
C      1  0.6285690000000  0.7508160000000  0.5856140000000 1.0
C      1  0.6304410000000  0.2924820000000  0.6818320000000 1.0
C      1  0.6304540000000  0.4472090000000  0.2460930000000 1.0
C      1  0.3065190000000  0.5992400000000  0.4441570000000 1.0
C      1  0.3172370000000  0.4977650000000  0.6080660000000 1.0
C      1  0.3049220000000  0.3961110000000  0.4462540000000 1.0
C      1  0.4830910000000  0.7358510000000  0.5172470000000 1.0
C      1  0.4975270000000  0.3676010000000  0.6637690000000 1.0
C      1  0.4884200000000  0.4063370000000  0.3002900000000 1.0
C      1  0.6080920000000  0.7177560000000  0.4226280000000 1.0
C      1  0.6048220000000  0.4588350000000  0.7316830000000 1.0
C      1  0.6095670000000  0.3182630000000  0.3565900000000 1.0
C      1  0.4529030000000  0.7055710000000  0.6026550000000 1.0
C      1  0.4531270000000  0.2943880000000  0.6223910000000 1.0
C      1  0.4532590000000  0.4922930000000  0.2771440000000 1.0
END
