TITL C-2159252-5904-47 -0.00188268856978337 3375 -411.286523066721 0 0 60 (C1) n - 1
REM
REM in /scratch/bkarasulu/870
REM
REM
REM
REM
REM
REM ./C.cell (a2850807a9bf4ad07a5b6933b78d9264)
REM AIRSS Version 0.9.1 bugfix July 2018 build 013d7b7c2542+ Fri, 06 Jul 2018 19:26:36 +0100
REM compiler GCC version 9.2.1 20190827 (Red Hat 9.2.1-1)
REM options -cpp -mtune=generic -march=x86-64 -g -O0 -fpre-include=/usr/include/finclude/math-vector-fortran.h
REM seed 2090789973 1616433666 508476976 685713448 1023147721 -850293570 873690701 -1566932401 -271166605 -889990593 1733497132 1051097452 1038439706 -1047237035 75656894 -919574253 604919614 -90285265 262692281 1401942627 -1125322737 628728571 930478737 1783803614 -2130532682 146112501 1598655674 1665044223 995878371 1604251326 1996739486 1219658201 -1373792960
REM
CELL 1.54180   15.00000   15.00000   15.00000   90.00000   90.00000   90.00000
LATT -1
SFAC C  
C      1  0.2804360000000  0.4418850000000  0.6471410000000 1.0
C      1  0.5501670000000  0.4497150000000  0.7109640000000 1.0
C      1  0.7130680000000  0.4833400000000  0.6512390000000 1.0
C      1  0.7209010000000  0.4489130000000  0.4792260000000 1.0
C      1  0.5224390000000  0.4513590000000  0.2994230000000 1.0
C      1  0.3557110000000  0.4766590000000  0.3087110000000 1.0
C      1  0.2546790000000  0.3776330000000  0.4225820000000 1.0
C      1  0.6021310000000  0.6550940000000  0.6675750000000 1.0
C      1  0.6912720000000  0.6532040000000  0.5306540000000 1.0
C      1  0.6264060000000  0.6314950000000  0.3859430000000 1.0
C      1  0.4818290000000  0.6509050000000  0.3239710000000 1.0
C      1  0.3449260000000  0.6707090000000  0.3997740000000 1.0
C      1  0.3326420000000  0.6585540000000  0.5533780000000 1.0
C      1  0.4440310000000  0.6365260000000  0.6655730000000 1.0
C      1  0.5509200000000  0.2849360000000  0.5326040000000 1.0
C      1  0.6292690000000  0.3254860000000  0.4960440000000 1.0
C      1  0.5172370000000  0.3249700000000  0.3859810000000 1.0
C      1  0.4824110000000  0.2801590000000  0.4609270000000 1.0
C      1  0.3909930000000  0.3023770000000  0.4725750000000 1.0
C      1  0.3752530000000  0.3433340000000  0.5559710000000 1.0
C      1  0.5303190000000  0.3288430000000  0.6132570000000 1.0
C      1  0.4024000000000  0.5234840000000  0.3849240000000 1.0
C      1  0.3442110000000  0.5243680000000  0.4679010000000 1.0
C      1  0.4052850000000  0.5304630000000  0.5440940000000 1.0
C      1  0.5458150000000  0.5116460000000  0.6295960000000 1.0
C      1  0.6380110000000  0.5243330000000  0.5954780000000 1.0
C      1  0.6384260000000  0.5097050000000  0.4973980000000 1.0
C      1  0.5037110000000  0.5098220000000  0.3849200000000 1.0
C      1  0.7511080000000  0.5622160000000  0.6729390000000 1.0
C      1  0.7580000000000  0.5166690000000  0.4347810000000 1.0
C      1  0.5702360000000  0.5151790000000  0.2592190000000 1.0
C      1  0.3430270000000  0.5563730000000  0.2660230000000 1.0
C      1  0.2822600000000  0.4406200000000  0.4814080000000 1.0
C      1  0.3076290000000  0.5214520000000  0.6554940000000 1.0
C      1  0.5320330000000  0.5183530000000  0.7653580000000 1.0
C      1  0.5939880000000  0.3740760000000  0.6676900000000 1.0
C      1  0.6810540000000  0.3956330000000  0.6283020000000 1.0
C      1  0.6987740000000  0.3722340000000  0.5364070000000 1.0
C      1  0.4739070000000  0.3704000000000  0.3161850000000 1.0
C      1  0.3791300000000  0.3833890000000  0.3224150000000 1.0
C      1  0.3364570000000  0.3433430000000  0.3992430000000 1.0
C      1  0.2985720000000  0.3968650000000  0.5672910000000 1.0
C      1  0.4030170000000  0.7185240000000  0.5377900000000 1.0
C      1  0.4697940000000  0.7041410000000  0.6048520000000 1.0
C      1  0.5651080000000  0.7113750000000  0.6024470000000 1.0
C      1  0.6168370000000  0.7089180000000  0.5209940000000 1.0
C      1  0.5817750000000  0.6996030000000  0.4321120000000 1.0
C      1  0.4942390000000  0.7101330000000  0.3953640000000 1.0
C      1  0.4130370000000  0.7237880000000  0.4419520000000 1.0
C      1  0.5569030000000  0.5855620000000  0.3289000000000 1.0
C      1  0.3883280000000  0.6155990000000  0.3302400000000 1.0
C      1  0.3071330000000  0.6196360000000  0.4705930000000 1.0
C      1  0.3681640000000  0.5881040000000  0.6195410000000 1.0
C      1  0.5263080000000  0.5915800000000  0.6971960000000 1.0
C      1  0.6831380000000  0.6155540000000  0.6242230000000 1.0
C      1  0.6891640000000  0.5879010000000  0.4506810000000 1.0
C      1  0.5471640000000  0.4730530000000  0.4685950000000 1.0
C      1  0.4861500000000  0.4776410000000  0.5525230000000 1.0
C      1  0.4538170000000  0.3816770000000  0.5926310000000 1.0
C      1  0.5831050000000  0.3752370000000  0.4310600000000 1.0
END
