TITL C-2158984-8299-473 -0.00137370336506399 3375 -395.493597736189 0 0 60 (C3) n - 1
REM
REM in /scratch/bkarasulu/869
REM
REM
REM
REM
REM
REM ./C.cell (a2850807a9bf4ad07a5b6933b78d9264)
REM AIRSS Version 0.9.1 bugfix July 2018 build 013d7b7c2542+ Fri, 06 Jul 2018 19:26:36 +0100
REM compiler GCC version 9.2.1 20190827 (Red Hat 9.2.1-1)
REM options -cpp -mtune=generic -march=x86-64 -g -O0 -fpre-include=/usr/include/finclude/math-vector-fortran.h
REM seed 395209250 -2132893175 187829449 810098350 333008651 2144860583 -270926073 245136577 1411578688 -632456756 -2139703466 156305383 -2069330021 455789205 514356873 550718684 1293835381 -1003267211 2071592769 359186072 88195688 964308475 -1101220871 -956383268 489722070 934698108 1293229355 719668564 1918111112 -2142976324 -1998967798 -731997634 1823905048
REM
CELL 1.54180   15.00000   15.00000   15.00000   90.00000   90.00000   90.00000
LATT -1
SFAC C  
C      1  0.5618160000000  0.4066840000000  0.6640760000000 1.0
C      1  0.5499060000000  0.6001900000000  0.6640780000000 1.0
C      1  0.3882780000000  0.4931210000000  0.6640770000000 1.0
C      1  0.6638350000000  0.3544000000000  0.3997510000000 1.0
C      1  0.5441760000000  0.7146870000000  0.3997550000000 1.0
C      1  0.2919880000000  0.4309160000000  0.3997520000000 1.0
C      1  0.3926200000000  0.3394920000000  0.6003170000000 1.0
C      1  0.6926930000000  0.4872590000000  0.6003180000000 1.0
C      1  0.4146870000000  0.6732470000000  0.6003200000000 1.0
C      1  0.6475630000000  0.4016310000000  0.6261890000000 1.0
C      1  0.5114090000000  0.6769770000000  0.6261910000000 1.0
C      1  0.3410280000000  0.4213900000000  0.6261890000000 1.0
C      1  0.3574750000000  0.4041590000000  0.3380590000000 1.0
C      1  0.6542650000000  0.4244930000000  0.3380590000000 1.0
C      1  0.4882600000000  0.6713530000000  0.3380620000000 1.0
C      1  0.6273060000000  0.5809450000000  0.7093070000000 1.0
C      1  0.3662450000000  0.5697730000000  0.7093080000000 1.0
C      1  0.5064510000000  0.3492730000000  0.7093040000000 1.0
C      1  0.6302380000000  0.5386380000000  0.5389710000000 1.0
C      1  0.4014190000000  0.5934710000000  0.5389710000000 1.0
C      1  0.4683420000000  0.3678910000000  0.5389690000000 1.0
C      1  0.3691660000000  0.6520990000000  0.6795340000000 1.0
C      1  0.4336960000000  0.3106390000000  0.6795290000000 1.0
C      1  0.6971430000000  0.5372550000000  0.6795320000000 1.0
C      1  0.5148630000000  0.3337780000000  0.3480750000000 1.0
C      1  0.6365220000000  0.5959850000000  0.3480770000000 1.0
C      1  0.3486140000000  0.5702410000000  0.3480780000000 1.0
C      1  0.7077530000000  0.3733050000000  0.4827790000000 1.0
C      1  0.5058460000000  0.7432680000000  0.4827830000000 1.0
C      1  0.2864010000000  0.3834290000000  0.4827790000000 1.0
C      1  0.6857540000000  0.5154560000000  0.3638960000000 1.0
C      1  0.3937390000000  0.6531410000000  0.3638980000000 1.0
C      1  0.4205080000000  0.3314060000000  0.3638940000000 1.0
C      1  0.7445920000000  0.4602210000000  0.5105600000000 1.0
C      1  0.4121550000000  0.7317130000000  0.5105630000000 1.0
C      1  0.3432540000000  0.3080670000000  0.5105580000000 1.0
C      1  0.5391450000000  0.4610560000000  0.4207790000000 1.0
C      1  0.5141540000000  0.5533740000000  0.4207800000000 1.0
C      1  0.4467000000000  0.4855720000000  0.4207790000000 1.0
C      1  0.5866900000000  0.4488430000000  0.5036630000000 1.0
C      1  0.5009590000000  0.6006550000000  0.5036650000000 1.0
C      1  0.4123510000000  0.4505030000000  0.5036630000000 1.0
C      1  0.5768950000000  0.3060490000000  0.4136010000000 1.0
C      1  0.6295190000000  0.6635690000000  0.4136030000000 1.0
C      1  0.2935840000000  0.5303840000000  0.4136030000000 1.0
C      1  0.6344070000000  0.6364910000000  0.5033980000000 1.0
C      1  0.3145900000000  0.5481550000000  0.5033980000000 1.0
C      1  0.5510000000000  0.3153540000000  0.5033960000000 1.0
C      1  0.5410850000000  0.5928160000000  0.3347190000000 1.0
C      1  0.3990770000000  0.4891750000000  0.3347180000000 1.0
C      1  0.5598380000000  0.4180130000000  0.3347170000000 1.0
C      1  0.3109890000000  0.4537920000000  0.5403720000000 1.0
C      1  0.6345220000000  0.3594170000000  0.5403710000000 1.0
C      1  0.5544880000000  0.6867920000000  0.5403740000000 1.0
C      1  0.4415180000000  0.5096560000000  0.5833060000000 1.0
C      1  0.5208770000000  0.4445250000000  0.5833060000000 1.0
C      1  0.5376040000000  0.5458170000000  0.5833060000000 1.0
C      1  0.3928960000000  0.2866560000000  0.4386400000000 1.0
C      1  0.7383150000000  0.5139170000000  0.4386410000000 1.0
C      1  0.3687920000000  0.6994290000000  0.4386440000000 1.0
END
