TITL C-2158988-7926-733 -0.00206150616728505 3375 -411.555887984831 0 0 60 (C1) n - 1
REM
REM in /scratch/bkarasulu/868
REM
REM
REM
REM
REM
REM ./C.cell (a2850807a9bf4ad07a5b6933b78d9264)
REM AIRSS Version 0.9.1 bugfix July 2018 build 013d7b7c2542+ Fri, 06 Jul 2018 19:26:36 +0100
REM compiler GCC version 9.2.1 20190827 (Red Hat 9.2.1-1)
REM options -cpp -mtune=generic -march=x86-64 -g -O0 -fpre-include=/usr/include/finclude/math-vector-fortran.h
REM seed 1485666476 -2131460792 811840477 1649702155 1115074873 -679745592 -1233547922 -1657912408 1841531305 166145406 426053735 1809922622 490067272 519297602 1478698508 1338749337 -75720315 1180297952 234470097 1642627908 -1554653826 868077153 -1916819985 1965303405 -1106713461 151601966 1234066798 1019769269 -1261608613 139893021 1551148400 2081468067 -210618480
REM
CELL 1.54180   15.00000   15.00000   15.00000   90.00000   90.00000   90.00000
LATT -1
SFAC C  
C      1  0.3849340000000  0.4988210000000  0.4811310000000 1.0
C      1  0.3890060000000  0.6026880000000  0.4825950000000 1.0
C      1  0.4822170000000  0.6323990000000  0.4784310000000 1.0
C      1  0.6173590000000  0.5376430000000  0.4882730000000 1.0
C      1  0.6257400000000  0.4402920000000  0.4936970000000 1.0
C      1  0.5356820000000  0.3953880000000  0.4864790000000 1.0
C      1  0.4758650000000  0.4687230000000  0.4565320000000 1.0
C      1  0.6368510000000  0.5899970000000  0.4088060000000 1.0
C      1  0.6819900000000  0.4057050000000  0.4107160000000 1.0
C      1  0.5492960000000  0.3295770000000  0.4039290000000 1.0
C      1  0.4061020000000  0.3535310000000  0.3556550000000 1.0
C      1  0.3228340000000  0.4760060000000  0.3946470000000 1.0
C      1  0.3386630000000  0.6213930000000  0.3981850000000 1.0
C      1  0.5088480000000  0.6935090000000  0.4035730000000 1.0
C      1  0.2212840000000  0.5700890000000  0.4848370000000 1.0
C      1  0.3921100000000  0.7640410000000  0.4922170000000 1.0
C      1  0.6536920000000  0.7289430000000  0.4875300000000 1.0
C      1  0.7796600000000  0.4968820000000  0.5045140000000 1.0
C      1  0.6687180000000  0.2761320000000  0.5041770000000 1.0
C      1  0.4067510000000  0.2755770000000  0.4839770000000 1.0
C      1  0.3254870000000  0.3293310000000  0.4808060000000 1.0
C      1  0.6198240000000  0.6727830000000  0.5483130000000 1.0
C      1  0.7287210000000  0.5123010000000  0.5759510000000 1.0
C      1  0.6359000000000  0.3209500000000  0.5739770000000 1.0
C      1  0.4463880000000  0.2884860000000  0.5700020000000 1.0
C      1  0.3166850000000  0.3768950000000  0.5644990000000 1.0
C      1  0.2697720000000  0.5597030000000  0.5587030000000 1.0
C      1  0.3456550000000  0.7230620000000  0.5533620000000 1.0
C      1  0.3474200000000  0.6279780000000  0.5714570000000 1.0
C      1  0.5258120000000  0.6639030000000  0.5605600000000 1.0
C      1  0.6502040000000  0.5796450000000  0.5735890000000 1.0
C      1  0.6628290000000  0.4219290000000  0.5861030000000 1.0
C      1  0.5348830000000  0.3351830000000  0.5759910000000 1.0
C      1  0.3851050000000  0.3420530000000  0.6198550000000 1.0
C      1  0.3247910000000  0.4759080000000  0.5682750000000 1.0
C      1  0.4828930000000  0.6394530000000  0.3204880000000 1.0
C      1  0.6201060000000  0.5426710000000  0.3267500000000 1.0
C      1  0.6284350000000  0.4471380000000  0.3361710000000 1.0
C      1  0.5497100000000  0.3995370000000  0.3332180000000 1.0
C      1  0.4575850000000  0.4325220000000  0.3361600000000 1.0
C      1  0.3904240000000  0.5023500000000  0.3254720000000 1.0
C      1  0.3991090000000  0.5951390000000  0.3280090000000 1.0
C      1  0.6450750000000  0.3101090000000  0.4242670000000 1.0
C      1  0.4582490000000  0.2923010000000  0.4046620000000 1.0
C      1  0.3260520000000  0.3782200000000  0.3993870000000 1.0
C      1  0.2651370000000  0.5554090000000  0.4084210000000 1.0
C      1  0.4520040000000  0.7694040000000  0.4289330000000 1.0
C      1  0.6112190000000  0.6812990000000  0.4231840000000 1.0
C      1  0.7677880000000  0.4409620000000  0.4390230000000 1.0
C      1  0.4322760000000  0.4150960000000  0.6622870000000 1.0
C      1  0.3862270000000  0.4956550000000  0.6423240000000 1.0
C      1  0.4135870000000  0.5846060000000  0.6355390000000 1.0
C      1  0.5041990000000  0.6075360000000  0.6316580000000 1.0
C      1  0.5864730000000  0.5573900000000  0.6473890000000 1.0
C      1  0.5976690000000  0.4531630000000  0.6517290000000 1.0
C      1  0.5233270000000  0.3962520000000  0.6477530000000 1.0
C      1  0.6225570000000  0.5164080000000  0.8191850000000 1.0
C      1  0.5256850000000  0.5468360000000  0.4704030000000 1.0
C      1  0.5492440000000  0.5856590000000  0.2908050000000 1.0
C      1  0.6161940000000  0.5156650000000  0.7337440000000 1.0
END
