TITL C-2158984-8299-208 -0.00170753244476785 3375 -406.17596817665 0 0 60 (C1) n - 1
REM
REM in /scratch/bkarasulu/869
REM
REM
REM
REM
REM
REM ./C.cell (a2850807a9bf4ad07a5b6933b78d9264)
REM AIRSS Version 0.9.1 bugfix July 2018 build 013d7b7c2542+ Fri, 06 Jul 2018 19:26:36 +0100
REM compiler GCC version 9.2.1 20190827 (Red Hat 9.2.1-1)
REM options -cpp -mtune=generic -march=x86-64 -g -O0 -fpre-include=/usr/include/finclude/math-vector-fortran.h
REM seed 1446255359 967044136 -842526711 -333409642 795073933 98719357 -39509955 -2128029036 -840405749 909161537 403992085 1235933639 1756379991 1322119033 -1141999229 -1722960928 -1827627416 797357183 -2138677441 526345911 -1908484807 -1854572721 1769831034 1718311166 912127147 -167347143 -1746940130 -138667254 -260423626 534854211 -1088715389 -570660444 -137415141
REM
CELL 1.54180   15.00000   15.00000   15.00000   90.00000   90.00000   90.00000
LATT -1
SFAC C  
C      1  0.4389910000000  0.5399300000000  0.2701080000000 1.0
C      1  0.2544560000000  0.5744940000000  0.4820550000000 1.0
C      1  0.3034640000000  0.5537670000000  0.6238330000000 1.0
C      1  0.4622210000000  0.5691120000000  0.7129370000000 1.0
C      1  0.6347050000000  0.5797060000000  0.6751400000000 1.0
C      1  0.7127960000000  0.6233500000000  0.4005430000000 1.0
C      1  0.5981390000000  0.5651730000000  0.2958410000000 1.0
C      1  0.4834700000000  0.3806110000000  0.6847380000000 1.0
C      1  0.6311550000000  0.3931940000000  0.6402220000000 1.0
C      1  0.6784670000000  0.4104500000000  0.4914130000000 1.0
C      1  0.6156830000000  0.3832470000000  0.3540620000000 1.0
C      1  0.4646350000000  0.3573800000000  0.3243760000000 1.0
C      1  0.3459510000000  0.3687670000000  0.4345040000000 1.0
C      1  0.3626970000000  0.3794300000000  0.5919470000000 1.0
C      1  0.5286360000000  0.4986800000000  0.2928220000000 1.0
C      1  0.3819710000000  0.4940930000000  0.3301800000000 1.0
C      1  0.2727880000000  0.5069920000000  0.5420700000000 1.0
C      1  0.3889060000000  0.5207920000000  0.6614800000000 1.0
C      1  0.5484600000000  0.5259770000000  0.6842980000000 1.0
C      1  0.6672360000000  0.5427800000000  0.5900300000000 1.0
C      1  0.6562620000000  0.5468930000000  0.3771670000000 1.0
C      1  0.6283810000000  0.6652250000000  0.6485620000000 1.0
C      1  0.6828720000000  0.6814680000000  0.4529010000000 1.0
C      1  0.5446920000000  0.6462690000000  0.3126870000000 1.0
C      1  0.4517940000000  0.6324420000000  0.3019810000000 1.0
C      1  0.2852560000000  0.6582880000000  0.5001060000000 1.0
C      1  0.3165460000000  0.6439190000000  0.5955270000000 1.0
C      1  0.4705090000000  0.6572830000000  0.6980790000000 1.0
C      1  0.5371510000000  0.6612660000000  0.4093740000000 1.0
C      1  0.4289820000000  0.6442570000000  0.4001570000000 1.0
C      1  0.3741470000000  0.6812510000000  0.4711830000000 1.0
C      1  0.4089830000000  0.6537690000000  0.5627330000000 1.0
C      1  0.4844470000000  0.6876070000000  0.6138980000000 1.0
C      1  0.5724190000000  0.6764200000000  0.5704300000000 1.0
C      1  0.5912580000000  0.7300140000000  0.4775980000000 1.0
C      1  0.3971730000000  0.2937720000000  0.4707100000000 1.0
C      1  0.4188720000000  0.3110660000000  0.5639160000000 1.0
C      1  0.4995740000000  0.3129030000000  0.6181190000000 1.0
C      1  0.5925770000000  0.3216110000000  0.5892100000000 1.0
C      1  0.6273260000000  0.3281830000000  0.4979670000000 1.0
C      1  0.5865830000000  0.3134790000000  0.4122710000000 1.0
C      1  0.4945150000000  0.2874950000000  0.3851260000000 1.0
C      1  0.4104270000000  0.5460320000000  0.4108810000000 1.0
C      1  0.3975220000000  0.4971220000000  0.4960160000000 1.0
C      1  0.4305270000000  0.5514300000000  0.5701700000000 1.0
C      1  0.5243640000000  0.5288980000000  0.5827550000000 1.0
C      1  0.5900400000000  0.5831770000000  0.5354700000000 1.0
C      1  0.5759350000000  0.5757050000000  0.4394150000000 1.0
C      1  0.5077900000000  0.5113150000000  0.4065440000000 1.0
C      1  0.6692400000000  0.4481180000000  0.4009070000000 1.0
C      1  0.5423380000000  0.4047960000000  0.2955880000000 1.0
C      1  0.3825950000000  0.4015760000000  0.3492020000000 1.0
C      1  0.3263840000000  0.4289700000000  0.5140170000000 1.0
C      1  0.4008190000000  0.4252610000000  0.6656230000000 1.0
C      1  0.5632400000000  0.4304780000000  0.6982160000000 1.0
C      1  0.6797010000000  0.4509860000000  0.5808740000000 1.0
C      1  0.4345920000000  0.2273350000000  0.4188380000000 1.0
C      1  0.4811380000000  0.4397770000000  0.4658430000000 1.0
C      1  0.5274380000000  0.4450370000000  0.5414060000000 1.0
C      1  0.5800830000000  0.8223690000000  0.4695040000000 1.0
END
