TITL C-2158988-7926-914 -0.00226212913769253 3375 -408.277610424261 0 0 60 (C2v) n - 1
REM
REM in /scratch/bkarasulu/868
REM
REM
REM
REM
REM
REM ./C.cell (a2850807a9bf4ad07a5b6933b78d9264)
REM AIRSS Version 0.9.1 bugfix July 2018 build 013d7b7c2542+ Fri, 06 Jul 2018 19:26:36 +0100
REM compiler GCC version 9.2.1 20190827 (Red Hat 9.2.1-1)
REM options -cpp -mtune=generic -march=x86-64 -g -O0 -fpre-include=/usr/include/finclude/math-vector-fortran.h
REM seed 1678862248 -555428795 -631948222 -478122974 1443387371 1913053115 1845003101 -2065794027 -2008798990 471554960 -1974295936 -1712667477 1701391763 1203112492 -1234617540 -736680063 -9413955 -917496639 -1541146096 1859670845 103714326 1397976916 -1563750192 433985553 1736991939 1505895799 -527200864 -1021772874 1894674783 1487329033 106246555 539350369 1356969229
REM
CELL 1.54180   15.00000   15.00000   15.00000   90.00000   90.00000   90.00000
LATT -1
SFAC C  
C      1  0.5019470000000  0.6903930000000  0.5856080000000 1.0
C      1  0.3353810000000  0.4042850000000  0.5944430000000 1.0
C      1  0.6626270000000  0.4009390000000  0.5944430000000 1.0
C      1  0.5019470000000  0.6903940000000  0.4143930000000 1.0
C      1  0.3353810000000  0.4042850000000  0.4055570000000 1.0
C      1  0.6626270000000  0.4009390000000  0.4055570000000 1.0
C      1  0.5897050000000  0.5267770000000  0.3028440000000 1.0
C      1  0.4108610000000  0.5286050000000  0.3028440000000 1.0
C      1  0.4989660000000  0.3989280000000  0.3519500000000 1.0
C      1  0.5897050000000  0.5267760000000  0.6971560000000 1.0
C      1  0.4108610000000  0.5286040000000  0.6971560000000 1.0
C      1  0.4989660000000  0.3989280000000  0.6480490000000 1.0
C      1  0.2587920000000  0.5510270000000  0.4515860000000 1.0
C      1  0.5772530000000  0.2552890000000  0.4512950000000 1.0
C      1  0.6675030000000  0.6830020000000  0.4519700000000 1.0
C      1  0.2587920000000  0.5510270000000  0.5484140000000 1.0
C      1  0.5772530000000  0.2552890000000  0.5487040000000 1.0
C      1  0.6675030000000  0.6830010000000  0.5480310000000 1.0
C      1  0.6599640000000  0.5850540000000  0.3150460000000 1.0
C      1  0.3418080000000  0.5883070000000  0.3150460000000 1.0
C      1  0.4980730000000  0.3115700000000  0.3245980000000 1.0
C      1  0.6599640000000  0.5850530000000  0.6849540000000 1.0
C      1  0.3418080000000  0.5883060000000  0.6849540000000 1.0
C      1  0.4980730000000  0.3115700000000  0.6754010000000 1.0
C      1  0.4498510000000  0.5193960000000  0.4501320000000 1.0
C      1  0.5505350000000  0.5183670000000  0.4501320000000 1.0
C      1  0.5009670000000  0.5945470000000  0.3972890000000 1.0
C      1  0.4498510000000  0.5193960000000  0.5498680000000 1.0
C      1  0.5505350000000  0.5183670000000  0.5498680000000 1.0
C      1  0.5009670000000  0.5945460000000  0.6027120000000 1.0
C      1  0.4174340000000  0.4535420000000  0.6236820000000 1.0
C      1  0.5815980000000  0.4518640000000  0.6236820000000 1.0
C      1  0.5006270000000  0.5612850000000  0.6948640000000 1.0
C      1  0.4174340000000  0.4535430000000  0.3763180000000 1.0
C      1  0.5815980000000  0.4518640000000  0.3763180000000 1.0
C      1  0.5006270000000  0.5612860000000  0.3051360000000 1.0
C      1  0.2703130000000  0.4556600000000  0.5493360000000 1.0
C      1  0.6487950000000  0.3198460000000  0.5494320000000 1.0
C      1  0.5812170000000  0.7278220000000  0.5482010000000 1.0
C      1  0.2703130000000  0.4556600000000  0.4506630000000 1.0
C      1  0.6487950000000  0.3198460000000  0.4505680000000 1.0
C      1  0.5812170000000  0.7278220000000  0.4518000000000 1.0
C      1  0.6971530000000  0.6102410000000  0.3973910000000 1.0
C      1  0.3051430000000  0.6142490000000  0.3973910000000 1.0
C      1  0.4975080000000  0.2562790000000  0.4009950000000 1.0
C      1  0.6971530000000  0.6102410000000  0.6026090000000 1.0
C      1  0.3051430000000  0.6142490000000  0.6026090000000 1.0
C      1  0.4975080000000  0.2562790000000  0.5990050000000 1.0
C      1  0.7287320000000  0.4509730000000  0.5493360000000 1.0
C      1  0.4234590000000  0.7294350000000  0.5482010000000 1.0
C      1  0.3475520000000  0.3229260000000  0.5494320000000 1.0
C      1  0.7287320000000  0.4509730000000  0.4506630000000 1.0
C      1  0.4234590000000  0.7294350000000  0.4518000000000 1.0
C      1  0.3475520000000  0.3229270000000  0.4505680000000 1.0
C      1  0.4177590000000  0.2569190000000  0.5487040000000 1.0
C      1  0.7422010000000  0.5460840000000  0.5484140000000 1.0
C      1  0.3362740000000  0.6863880000000  0.5480310000000 1.0
C      1  0.4177590000000  0.2569200000000  0.4512950000000 1.0
C      1  0.7422010000000  0.5460850000000  0.4515860000000 1.0
C      1  0.3362740000000  0.6863880000000  0.4519700000000 1.0
END
