TITL C-2158988-7926-406 -0.00206425854192282 3375 -403.616612002372 0 0 60 (C1) n - 1
REM
REM in /scratch/bkarasulu/868
REM
REM
REM
REM
REM
REM ./C.cell (a2850807a9bf4ad07a5b6933b78d9264)
REM AIRSS Version 0.9.1 bugfix July 2018 build 013d7b7c2542+ Fri, 06 Jul 2018 19:26:36 +0100
REM compiler GCC version 9.2.1 20190827 (Red Hat 9.2.1-1)
REM options -cpp -mtune=generic -march=x86-64 -g -O0 -fpre-include=/usr/include/finclude/math-vector-fortran.h
REM seed -347171910 1385367192 -1193019925 -392160928 746849910 -1331575356 481213240 -1745466345 1401233643 -483677579 1803003229 -388167556 1154872777 869915113 485836968 -333998721 -2126515418 -2026164761 -1605907176 1916615459 2017281475 -864450011 -792670208 -1542529063 738737793 1909504812 -1471299703 1811020070 518196950 -297447241 2110631073 457961958 -1311004736
REM
CELL 1.54180   15.00000   15.00000   15.00000   90.00000   90.00000   90.00000
LATT -1
SFAC C  
C      1  0.7279460000000  0.5252100000000  0.5392490000000 1.0
C      1  0.3312540000000  0.4461150000000  0.6418350000000 1.0
C      1  0.5935360000000  0.2875570000000  0.5319090000000 1.0
C      1  0.4319440000000  0.7013510000000  0.4196550000000 1.0
C      1  0.6554700000000  0.4051260000000  0.6205380000000 1.0
C      1  0.5709030000000  0.5076280000000  0.2788200000000 1.0
C      1  0.4219820000000  0.5545940000000  0.4562530000000 1.0
C      1  0.5221260000000  0.4149940000000  0.4537830000000 1.0
C      1  0.3502180000000  0.3627960000000  0.4984660000000 1.0
C      1  0.4191870000000  0.3187380000000  0.5454810000000 1.0
C      1  0.4528860000000  0.4305900000000  0.7505760000000 1.0
C      1  0.7497240000000  0.5197460000000  0.6278780000000 1.0
C      1  0.6466220000000  0.4691980000000  0.5384740000000 1.0
C      1  0.3433970000000  0.5377550000000  0.2825310000000 1.0
C      1  0.4146750000000  0.6041880000000  0.2741730000000 1.0
C      1  0.6275020000000  0.6924890000000  0.5332760000000 1.0
C      1  0.6975660000000  0.3194650000000  0.3971730000000 1.0
C      1  0.6718910000000  0.3193410000000  0.5758800000000 1.0
C      1  0.6302580000000  0.5679270000000  0.3236420000000 1.0
C      1  0.4097810000000  0.3980030000000  0.3376020000000 1.0
C      1  0.3610710000000  0.6099790000000  0.6106380000000 1.0
C      1  0.3411190000000  0.3907200000000  0.4055280000000 1.0
C      1  0.3406980000000  0.6844300000000  0.3939790000000 1.0
C      1  0.4998450000000  0.3903230000000  0.3613900000000 1.0
C      1  0.7246320000000  0.5947880000000  0.4729790000000 1.0
C      1  0.5763400000000  0.4151510000000  0.3083860000000 1.0
C      1  0.2577940000000  0.5834000000000  0.4980810000000 1.0
C      1  0.5205890000000  0.6548830000000  0.6380580000000 1.0
C      1  0.2854140000000  0.5390030000000  0.3536100000000 1.0
C      1  0.2787180000000  0.6252800000000  0.5760170000000 1.0
C      1  0.5820220000000  0.7174540000000  0.6088800000000 1.0
C      1  0.4814480000000  0.5323210000000  0.2620900000000 1.0
C      1  0.2792060000000  0.6155380000000  0.4097340000000 1.0
C      1  0.5936800000000  0.5455610000000  0.5631850000000 1.0
C      1  0.4073500000000  0.4669060000000  0.2754030000000 1.0
C      1  0.2976000000000  0.4258010000000  0.5552000000000 1.0
C      1  0.5471800000000  0.5547240000000  0.6445890000000 1.0
C      1  0.3813510000000  0.3884640000000  0.7029620000000 1.0
C      1  0.6502590000000  0.3932610000000  0.3727790000000 1.0
C      1  0.6145690000000  0.5508870000000  0.4209490000000 1.0
C      1  0.5977270000000  0.5074850000000  0.7150970000000 1.0
C      1  0.5153370000000  0.3437670000000  0.5237350000000 1.0
C      1  0.7132860000000  0.6830290000000  0.5027470000000 1.0
C      1  0.5736220000000  0.6082420000000  0.4938520000000 1.0
C      1  0.4069050000000  0.6781190000000  0.3306820000000 1.0
C      1  0.3857560000000  0.5219740000000  0.6340140000000 1.0
C      1  0.5424510000000  0.4359000000000  0.7515480000000 1.0
C      1  0.4249300000000  0.3407160000000  0.6371310000000 1.0
C      1  0.7019590000000  0.5783560000000  0.3813640000000 1.0
C      1  0.4764470000000  0.4930740000000  0.6003850000000 1.0
C      1  0.4436420000000  0.6543030000000  0.5840720000000 1.0
C      1  0.4718070000000  0.6375040000000  0.4863920000000 1.0
C      1  0.4654380000000  0.4869590000000  0.4982510000000 1.0
C      1  0.6721150000000  0.3041910000000  0.4840050000000 1.0
C      1  0.5040630000000  0.3961550000000  0.6119590000000 1.0
C      1  0.6145010000000  0.4530320000000  0.4482040000000 1.0
C      1  0.5743050000000  0.3884850000000  0.6726600000000 1.0
C      1  0.6904530000000  0.4790900000000  0.6810650000000 1.0
C      1  0.2585610000000  0.4874940000000  0.4954920000000 1.0
C      1  0.2769380000000  0.4604410000000  0.4057140000000 1.0
END
