TITL C-2158984-8299-248 -0.00384009834196197 3375 -393.877792527716 0 0 60 (Td) n - 1
REM
REM in /scratch/bkarasulu/869
REM
REM
REM
REM
REM
REM ./C.cell (a2850807a9bf4ad07a5b6933b78d9264)
REM AIRSS Version 0.9.1 bugfix July 2018 build 013d7b7c2542+ Fri, 06 Jul 2018 19:26:36 +0100
REM compiler GCC version 9.2.1 20190827 (Red Hat 9.2.1-1)
REM options -cpp -mtune=generic -march=x86-64 -g -O0 -fpre-include=/usr/include/finclude/math-vector-fortran.h
REM seed -1864083334 1155074452 -1706690911 1857575147 -318915617 -760961290 -939132297 171426491 1551178070 355427949 -955125413 992104399 1739663796 144359698 -1396847050 -555643120 1549994066 1036764059 -787946139 91671471 -1612004877 -1824489487 -1743023377 2065573433 -920066113 -1057598662 1598975319 1039397797 -685842257 -1248397614 -1362245535 -85604658 583743684
REM
CELL 1.54180   15.00000   15.00000   15.00000   90.00000   90.00000   90.00000
LATT -1
SFAC C  
C      1  0.5013230000000  0.7597290000000  0.5703520000000 1.0
C      1  0.7597290000000  0.5703520000000  0.5013230000000 1.0
C      1  0.5703520000000  0.5013230000000  0.7597290000000 1.0
C      1  0.5013230000000  0.2402710000000  0.4296480000000 1.0
C      1  0.4986770000000  0.7597290000000  0.4296480000000 1.0
C      1  0.4986770000000  0.2402710000000  0.5703520000000 1.0
C      1  0.7597290000000  0.4296480000000  0.4986770000000 1.0
C      1  0.2402710000000  0.5703520000000  0.4986770000000 1.0
C      1  0.2402710000000  0.4296480000000  0.5013230000000 1.0
C      1  0.5703520000000  0.4986770000000  0.2402710000000 1.0
C      1  0.4296480000000  0.5013230000000  0.2402710000000 1.0
C      1  0.4296480000000  0.4986770000000  0.7597290000000 1.0
C      1  0.5013230000000  0.5703520000000  0.7597290000000 1.0
C      1  0.7597290000000  0.5013230000000  0.5703520000000 1.0
C      1  0.5703520000000  0.7597290000000  0.5013230000000 1.0
C      1  0.5013230000000  0.4296480000000  0.2402710000000 1.0
C      1  0.4986770000000  0.4296480000000  0.7597290000000 1.0
C      1  0.4986770000000  0.5703520000000  0.2402710000000 1.0
C      1  0.7597290000000  0.4986770000000  0.4296480000000 1.0
C      1  0.2402710000000  0.4986770000000  0.5703520000000 1.0
C      1  0.2402710000000  0.5013230000000  0.4296480000000 1.0
C      1  0.5703520000000  0.2402710000000  0.4986770000000 1.0
C      1  0.4296480000000  0.2402710000000  0.5013230000000 1.0
C      1  0.4296480000000  0.7597290000000  0.4986770000000 1.0
C      1  0.5067640000000  0.6149080000000  0.3215530000000 1.0
C      1  0.6149080000000  0.3215530000000  0.5067640000000 1.0
C      1  0.3215530000000  0.5067640000000  0.6149080000000 1.0
C      1  0.5067640000000  0.3850920000000  0.6784470000000 1.0
C      1  0.4932360000000  0.6149080000000  0.6784470000000 1.0
C      1  0.4932360000000  0.3850920000000  0.3215530000000 1.0
C      1  0.6149080000000  0.6784470000000  0.4932360000000 1.0
C      1  0.3850920000000  0.3215530000000  0.4932360000000 1.0
C      1  0.3850920000000  0.6784470000000  0.5067640000000 1.0
C      1  0.3215530000000  0.4932360000000  0.3850920000000 1.0
C      1  0.6784470000000  0.5067640000000  0.3850920000000 1.0
C      1  0.6784470000000  0.4932360000000  0.6149080000000 1.0
C      1  0.5067640000000  0.3215530000000  0.6149080000000 1.0
C      1  0.6149080000000  0.5067640000000  0.3215530000000 1.0
C      1  0.3215530000000  0.6149080000000  0.5067640000000 1.0
C      1  0.5067640000000  0.6784470000000  0.3850920000000 1.0
C      1  0.4932360000000  0.6784470000000  0.6149080000000 1.0
C      1  0.4932360000000  0.3215530000000  0.3850920000000 1.0
C      1  0.6149080000000  0.4932360000000  0.6784470000000 1.0
C      1  0.3850920000000  0.4932360000000  0.3215530000000 1.0
C      1  0.3850920000000  0.5067640000000  0.6784470000000 1.0
C      1  0.3215530000000  0.3850920000000  0.4932360000000 1.0
C      1  0.6784470000000  0.3850920000000  0.5067640000000 1.0
C      1  0.6784470000000  0.6149080000000  0.4932360000000 1.0
C      1  0.6124130000000  0.4643200000000  0.5356800000000 1.0
C      1  0.6124130000000  0.5356800000000  0.4643200000000 1.0
C      1  0.3875870000000  0.4643200000000  0.4643200000000 1.0
C      1  0.3875870000000  0.5356800000000  0.5356800000000 1.0
C      1  0.5356800000000  0.5356800000000  0.3875870000000 1.0
C      1  0.5356800000000  0.3875870000000  0.5356800000000 1.0
C      1  0.4643200000000  0.6124130000000  0.5356800000000 1.0
C      1  0.4643200000000  0.3875870000000  0.4643200000000 1.0
C      1  0.5356800000000  0.6124130000000  0.4643200000000 1.0
C      1  0.4643200000000  0.5356800000000  0.6124130000000 1.0
C      1  0.4643200000000  0.4643200000000  0.3875870000000 1.0
C      1  0.5356800000000  0.4643200000000  0.6124130000000 1.0
END
