TITL C-2158988-7926-1005 -0.00156325977396211 3375 -399.000430398912 0 0 60 (C3) n - 1
REM
REM in /scratch/bkarasulu/868
REM
REM
REM
REM
REM
REM ./C.cell (a2850807a9bf4ad07a5b6933b78d9264)
REM AIRSS Version 0.9.1 bugfix July 2018 build 013d7b7c2542+ Fri, 06 Jul 2018 19:26:36 +0100
REM compiler GCC version 9.2.1 20190827 (Red Hat 9.2.1-1)
REM options -cpp -mtune=generic -march=x86-64 -g -O0 -fpre-include=/usr/include/finclude/math-vector-fortran.h
REM seed -825840712 1499056825 -1859643295 782267228 464374942 56305359 -187975637 -303069525 772192571 197361281 -1284537112 429453818 -1562388408 1925074608 -2127010948 952901280 -1908317218 -965019328 426375242 -1660485675 -1707712547 148036081 -500067534 -1334604818 -1992148408 -46879855 1088989440 670124966 -248236570 -1275040801 -998619986 987603253 468720383
REM
CELL 1.54180   15.00000   15.00000   15.00000   90.00000   90.00000   90.00000
LATT -1
SFAC C  
C      1  0.3608200000000  0.7062200000000  0.4667740000000 1.0
C      1  0.5408110000000  0.7062220000000  0.6371460000000 1.0
C      1  0.5983610000000  0.7062240000000  0.3960830000000 1.0
C      1  0.5122950000000  0.5620690000000  0.5547260000000 1.0
C      1  0.5412440000000  0.5620700000000  0.4619890000000 1.0
C      1  0.4464570000000  0.5620690000000  0.4832870000000 1.0
C      1  0.4745410000000  0.3141520000000  0.5885600000000 1.0
C      1  0.5894300000000  0.3141550000000  0.4777680000000 1.0
C      1  0.4360370000000  0.3141530000000  0.4336680000000 1.0
C      1  0.6747700000000  0.5883000000000  0.3758540000000 1.0
C      1  0.3050980000000  0.5882960000000  0.4107180000000 1.0
C      1  0.5201280000000  0.5882970000000  0.7134310000000 1.0
C      1  0.6132230000000  0.5834380000000  0.6784850000000 1.0
C      1  0.5979590000000  0.5834390000000  0.3127030000000 1.0
C      1  0.2888140000000  0.5834340000000  0.5088130000000 1.0
C      1  0.5425150000000  0.6687580000000  0.4589530000000 1.0
C      1  0.4431910000000  0.6687570000000  0.4837040000000 1.0
C      1  0.5142870000000  0.6687580000000  0.5573450000000 1.0
C      1  0.6834230000000  0.3280790000000  0.5142300000000 1.0
C      1  0.4206170000000  0.3280760000000  0.3340360000000 1.0
C      1  0.3959670000000  0.3280750000000  0.6517300000000 1.0
C      1  0.3693670000000  0.3864280000000  0.2904730000000 1.0
C      1  0.3838640000000  0.3864260000000  0.7178960000000 1.0
C      1  0.7467760000000  0.3864310000000  0.4916300000000 1.0
C      1  0.5435970000000  0.6565000000000  0.3242620000000 1.0
C      1  0.3260040000000  0.6564960000000  0.5501130000000 1.0
C      1  0.6303930000000  0.6565000000000  0.6256270000000 1.0
C      1  0.4520620000000  0.4067990000000  0.4670010000000 1.0
C      1  0.4953930000000  0.4067990000000  0.5580150000000 1.0
C      1  0.5525480000000  0.4068000000000  0.4749820000000 1.0
C      1  0.5627670000000  0.2869770000000  0.5767660000000 1.0
C      1  0.5351030000000  0.2869770000000  0.4072590000000 1.0
C      1  0.4021370000000  0.2869750000000  0.5159700000000 1.0
C      1  0.3997040000000  0.4749240000000  0.7041920000000 1.0
C      1  0.7269840000000  0.4749280000000  0.4847640000000 1.0
C      1  0.3733140000000  0.4749250000000  0.3110460000000 1.0
C      1  0.4459030000000  0.6252460000000  0.3267000000000 1.0
C      1  0.3769640000000  0.6252430000000  0.6334980000000 1.0
C      1  0.6771290000000  0.6252480000000  0.5398020000000 1.0
C      1  0.3892870000000  0.4828450000000  0.4706970000000 1.0
C      1  0.5299790000000  0.4828460000000  0.6105320000000 1.0
C      1  0.5807340000000  0.4828470000000  0.4187720000000 1.0
C      1  0.6727300000000  0.6559610000000  0.4400750000000 1.0
C      1  0.3617340000000  0.6559570000000  0.3803730000000 1.0
C      1  0.4655300000000  0.6559570000000  0.6795550000000 1.0
C      1  0.5216050000000  0.3342680000000  0.3231250000000 1.0
C      1  0.3360230000000  0.3342650000000  0.5697270000000 1.0
C      1  0.6423780000000  0.3342680000000  0.6071440000000 1.0
C      1  0.5455630000000  0.4960800000000  0.3198870000000 1.0
C      1  0.3212360000000  0.4960750000000  0.5505980000000 1.0
C      1  0.6332000000000  0.4960790000000  0.6295140000000 1.0
C      1  0.3589730000000  0.5324520000000  0.6386540000000 1.0
C      1  0.6905900000000  0.5324570000000  0.5528060000000 1.0
C      1  0.4504360000000  0.5324560000000  0.3085410000000 1.0
C      1  0.4881110000000  0.5036520000000  0.6977920000000 1.0
C      1  0.6772370000000  0.5036560000000  0.4114020000000 1.0
C      1  0.3346530000000  0.5036510000000  0.3908090000000 1.0
C      1  0.2874730000000  0.4068510000000  0.5550570000000 1.0
C      1  0.6539450000000  0.4068550000000  0.6565240000000 1.0
C      1  0.5585840000000  0.4068560000000  0.2884170000000 1.0
END
