TITL C-2158988-7926-33 -0.00209952945896296 3375 -414.349744677441 0 0 60 (Cs) n - 1
REM
REM in /scratch/bkarasulu/868
REM
REM
REM
REM
REM
REM ./C.cell (a2850807a9bf4ad07a5b6933b78d9264)
REM AIRSS Version 0.9.1 bugfix July 2018 build 013d7b7c2542+ Fri, 06 Jul 2018 19:26:36 +0100
REM compiler GCC version 9.2.1 20190827 (Red Hat 9.2.1-1)
REM options -cpp -mtune=generic -march=x86-64 -g -O0 -fpre-include=/usr/include/finclude/math-vector-fortran.h
REM seed -1116963665 -1495610902 -436418668 -255584598 -841508624 1245932748 -476459584 1168415164 352502735 -549839958 1684346611 1498096640 1051404249 135939395 1330359597 -34599145 -1013111373 -769883825 -1635297808 -183630073 -1816529988 -720830646 -1683975874 -172756660 565974874 -889384963 215521431 -1150005562 770136687 -1725951247 -1481276964 1572840292 -636703608
REM
CELL 1.54180   15.00000   15.00000   15.00000   90.00000   90.00000   90.00000
LATT -1
SFAC C  
C      1  0.5626460000000  0.6741510000000  0.3736610000000 1.0
C      1  0.6200360000000  0.6774550000000  0.5457270000000 1.0
C      1  0.4754780000000  0.6675800000000  0.6538470000000 1.0
C      1  0.3258500000000  0.6616100000000  0.5505760000000 1.0
C      1  0.3805110000000  0.6613360000000  0.3761140000000 1.0
C      1  0.5627970000000  0.6744510000000  0.6262190000000 1.0
C      1  0.6198670000000  0.6772560000000  0.4541450000000 1.0
C      1  0.4752610000000  0.6674590000000  0.3460390000000 1.0
C      1  0.3257300000000  0.6616510000000  0.4497530000000 1.0
C      1  0.3804640000000  0.6619750000000  0.6243280000000 1.0
C      1  0.5436170000000  0.4213870000000  0.5480590000000 1.0
C      1  0.4227860000000  0.5302170000000  0.5478720000000 1.0
C      1  0.5160420000000  0.5146870000000  0.4506530000000 1.0
C      1  0.6613360000000  0.4576620000000  0.3170920000000 1.0
C      1  0.7183810000000  0.4604110000000  0.6033370000000 1.0
C      1  0.5418190000000  0.4211650000000  0.4504720000000 1.0
C      1  0.4197110000000  0.5289080000000  0.4562560000000 1.0
C      1  0.5189810000000  0.5153010000000  0.5484070000000 1.0
C      1  0.6615440000000  0.4578660000000  0.6826990000000 1.0
C      1  0.7177520000000  0.4600850000000  0.3968020000000 1.0
C      1  0.2716610000000  0.5043920000000  0.5973230000000 1.0
C      1  0.3289610000000  0.5034120000000  0.3279000000000 1.0
C      1  0.6057670000000  0.5282910000000  0.2943220000000 1.0
C      1  0.7178790000000  0.5364160000000  0.5475030000000 1.0
C      1  0.5143700000000  0.5150100000000  0.7261510000000 1.0
C      1  0.2707510000000  0.5043790000000  0.4028040000000 1.0
C      1  0.3294080000000  0.5035900000000  0.6725490000000 1.0
C      1  0.6059070000000  0.5285590000000  0.7051350000000 1.0
C      1  0.7175750000000  0.5361000000000  0.4526420000000 1.0
C      1  0.5141510000000  0.5147160000000  0.2735640000000 1.0
C      1  0.2665000000000  0.4254710000000  0.4524070000000 1.0
C      1  0.4754930000000  0.4323550000000  0.2932860000000 1.0
C      1  0.7059710000000  0.3641250000000  0.4092670000000 1.0
C      1  0.6462200000000  0.3650220000000  0.6707500000000 1.0
C      1  0.3849790000000  0.4269310000000  0.6841930000000 1.0
C      1  0.2668300000000  0.4254680000000  0.5478610000000 1.0
C      1  0.4760790000000  0.4325520000000  0.7064110000000 1.0
C      1  0.7061640000000  0.3644990000000  0.5903900000000 1.0
C      1  0.6457200000000  0.3648670000000  0.3290400000000 1.0
C      1  0.3843040000000  0.4267640000000  0.3155910000000 1.0
C      1  0.3975330000000  0.3553890000000  0.6186170000000 1.0
C      1  0.3346110000000  0.3539930000000  0.4500220000000 1.0
C      1  0.4976040000000  0.3638220000000  0.3782080000000 1.0
C      1  0.6446490000000  0.3018530000000  0.4537400000000 1.0
C      1  0.5798780000000  0.3123490000000  0.6219550000000 1.0
C      1  0.3967550000000  0.3549450000000  0.3809140000000 1.0
C      1  0.3349000000000  0.3537740000000  0.5498380000000 1.0
C      1  0.4983890000000  0.3645360000000  0.6210780000000 1.0
C      1  0.6448020000000  0.3021200000000  0.5459910000000 1.0
C      1  0.5794440000000  0.3121960000000  0.3779790000000 1.0
C      1  0.6831060000000  0.6141300000000  0.4118460000000 1.0
C      1  0.6280730000000  0.6110680000000  0.6669590000000 1.0
C      1  0.3693270000000  0.5854620000000  0.6894930000000 1.0
C      1  0.2631200000000  0.5835070000000  0.4525420000000 1.0
C      1  0.4591030000000  0.5907520000000  0.2832570000000 1.0
C      1  0.6836210000000  0.6146160000000  0.5881400000000 1.0
C      1  0.6277560000000  0.6106230000000  0.3329200000000 1.0
C      1  0.3692060000000  0.5850330000000  0.3111010000000 1.0
C      1  0.2634840000000  0.5833880000000  0.5477220000000 1.0
C      1  0.4593400000000  0.5909090000000  0.7165320000000 1.0
END
