TITL C-2158984-8299-353 -0.00208583901980415 3375 -417.616799535211 0 0 60 (C2) n - 1
REM
REM in /scratch/bkarasulu/869
REM
REM
REM
REM
REM
REM ./C.cell (a2850807a9bf4ad07a5b6933b78d9264)
REM AIRSS Version 0.9.1 bugfix July 2018 build 013d7b7c2542+ Fri, 06 Jul 2018 19:26:36 +0100
REM compiler GCC version 9.2.1 20190827 (Red Hat 9.2.1-1)
REM options -cpp -mtune=generic -march=x86-64 -g -O0 -fpre-include=/usr/include/finclude/math-vector-fortran.h
REM seed -1378191298 -1301182130 177755875 -289112588 1086157153 -1640177134 839159641 -1755382005 925752719 -1421123830 -1930516565 -1947739299 -135946120 1393129190 -1415543748 -144295315 -1591490720 1308907278 1612341184 -221472919 1032777683 1533484043 -199027450 1120460797 -320480017 -1483112151 -1710407575 1866970807 -1411513623 1500308702 -1486260012 481689518 -745123746
REM
CELL 1.54180   15.00000   15.00000   15.00000   90.00000   90.00000   90.00000
LATT -1
SFAC C  
C      1  0.4263090000000  0.4906430000000  0.4920980000000 1.0
C      1  0.5736910000000  0.5093570000000  0.4920980000000 1.0
C      1  0.7141130000000  0.4663870000000  0.4379070000000 1.0
C      1  0.2858870000000  0.5336130000000  0.4379070000000 1.0
C      1  0.4533760000000  0.4920950000000  0.4032550000000 1.0
C      1  0.5466240000000  0.5079050000000  0.4032550000000 1.0
C      1  0.2954010000000  0.4422320000000  0.4151700000000 1.0
C      1  0.7045990000000  0.5577680000000  0.4151700000000 1.0
C      1  0.5879660000000  0.2437050000000  0.5504990000000 1.0
C      1  0.4120340000000  0.7562950000000  0.5504990000000 1.0
C      1  0.5289800000000  0.5898380000000  0.7065990000000 1.0
C      1  0.4710200000000  0.4101620000000  0.7065990000000 1.0
C      1  0.3370540000000  0.5866310000000  0.3773030000000 1.0
C      1  0.6629460000000  0.4133690000000  0.3773030000000 1.0
C      1  0.4031680000000  0.3638420000000  0.3297090000000 1.0
C      1  0.5968320000000  0.6361580000000  0.3297090000000 1.0
C      1  0.3108400000000  0.3890360000000  0.4916950000000 1.0
C      1  0.6891600000000  0.6109640000000  0.4916950000000 1.0
C      1  0.3464210000000  0.4316810000000  0.6479240000000 1.0
C      1  0.6535790000000  0.5683190000000  0.6479240000000 1.0
C      1  0.4079910000000  0.3571410000000  0.6500950000000 1.0
C      1  0.5920090000000  0.6428590000000  0.6500950000000 1.0
C      1  0.6122110000000  0.4787830000000  0.3224880000000 1.0
C      1  0.3877890000000  0.5212170000000  0.3224880000000 1.0
C      1  0.2877250000000  0.5434930000000  0.5325160000000 1.0
C      1  0.7122750000000  0.4565070000000  0.5325160000000 1.0
C      1  0.3808100000000  0.3190280000000  0.4906950000000 1.0
C      1  0.6191900000000  0.6809720000000  0.4906950000000 1.0
C      1  0.5280820000000  0.3284750000000  0.3772540000000 1.0
C      1  0.4719180000000  0.6715250000000  0.3772540000000 1.0
C      1  0.3835060000000  0.6622130000000  0.4123200000000 1.0
C      1  0.6164940000000  0.3377870000000  0.4123200000000 1.0
C      1  0.2998540000000  0.4521770000000  0.5685590000000 1.0
C      1  0.7001460000000  0.5478230000000  0.5685590000000 1.0
C      1  0.6568210000000  0.5653450000000  0.3346700000000 1.0
C      1  0.3431790000000  0.4346550000000  0.3346700000000 1.0
C      1  0.6710600000000  0.3762210000000  0.5682970000000 1.0
C      1  0.3289400000000  0.6237790000000  0.5682970000000 1.0
C      1  0.6156800000000  0.3624200000000  0.6486790000000 1.0
C      1  0.3843200000000  0.6375800000000  0.6486790000000 1.0
C      1  0.4979040000000  0.7530660000000  0.5933340000000 1.0
C      1  0.5020960000000  0.2469340000000  0.5933340000000 1.0
C      1  0.4238560000000  0.7240530000000  0.6417970000000 1.0
C      1  0.5761440000000  0.2759470000000  0.6417970000000 1.0
C      1  0.5662080000000  0.4258980000000  0.7019070000000 1.0
C      1  0.4337920000000  0.5741020000000  0.7019070000000 1.0
C      1  0.3631260000000  0.6879180000000  0.5032200000000 1.0
C      1  0.6368740000000  0.3120820000000  0.5032200000000 1.0
C      1  0.4322100000000  0.3156340000000  0.4085490000000 1.0
C      1  0.5677900000000  0.6843660000000  0.4085490000000 1.0
C      1  0.5795910000000  0.7029590000000  0.5772690000000 1.0
C      1  0.4204090000000  0.2970410000000  0.5772690000000 1.0
C      1  0.4953600000000  0.3809560000000  0.3022820000000 1.0
C      1  0.5046400000000  0.6190440000000  0.3022820000000 1.0
C      1  0.5310780000000  0.4615670000000  0.2701650000000 1.0
C      1  0.4689220000000  0.5384330000000  0.2701650000000 1.0
C      1  0.4927020000000  0.5439380000000  0.5372390000000 1.0
C      1  0.5072980000000  0.4560620000000  0.5372390000000 1.0
C      1  0.5920540000000  0.5170420000000  0.7065110000000 1.0
C      1  0.4079460000000  0.4829580000000  0.7065110000000 1.0
END
