TITL C-2158984-8299-302 -0.00173125066837748 3375 -406.205035989116 0 0 60 (C5) n - 1
REM
REM in /scratch/bkarasulu/869
REM
REM
REM
REM
REM
REM ./C.cell (a2850807a9bf4ad07a5b6933b78d9264)
REM AIRSS Version 0.9.1 bugfix July 2018 build 013d7b7c2542+ Fri, 06 Jul 2018 19:26:36 +0100
REM compiler GCC version 9.2.1 20190827 (Red Hat 9.2.1-1)
REM options -cpp -mtune=generic -march=x86-64 -g -O0 -fpre-include=/usr/include/finclude/math-vector-fortran.h
REM seed -446890716 -815888274 -1403562593 329788623 -1036907422 1006151910 635318936 1908514654 -1785716328 1672928970 -1316057294 1982326058 -533579123 -476917376 217104416 -751139316 821647697 -1575822453 -420269268 -657165794 1518162532 1648247776 88099082 1581088518 -782830596 414805370 -361067122 -1138235744 230777775 -883394670 -1167761577 1120736512 -1563034927
REM
CELL 1.54180   15.00000   15.00000   15.00000   90.00000   90.00000   90.00000
LATT -1
SFAC C  
C      1  0.5593940000000  0.4795590000000  0.5576960000000 1.0
C      1  0.5732260000000  0.4795590000000  0.4613420000000 1.0
C      1  0.4858620000000  0.4795590000000  0.4184130000000 1.0
C      1  0.4180380000000  0.4795600000000  0.4882350000000 1.0
C      1  0.4634830000000  0.4795610000000  0.5743160000000 1.0
C      1  0.5833920000000  0.6413390000000  0.6974100000000 1.0
C      1  0.7135220000000  0.6413340000000  0.4816930000000 1.0
C      1  0.5485720000000  0.6413330000000  0.2912720000000 1.0
C      1  0.3165030000000  0.6413400000000  0.3893080000000 1.0
C      1  0.3380230000000  0.6413420000000  0.6403100000000 1.0
C      1  0.5804900000000  0.3047670000000  0.4961330000000 1.0
C      1  0.5211920000000  0.3047660000000  0.4222530000000 1.0
C      1  0.4326040000000  0.3047670000000  0.4558190000000 1.0
C      1  0.4371510000000  0.3047680000000  0.5504440000000 1.0
C      1  0.5285500000000  0.3047680000000  0.5753600000000 1.0
C      1  0.4357200000000  0.6466910000000  0.6536420000000 1.0
C      1  0.6262610000000  0.6466870000000  0.6086140000000 1.0
C      1  0.6423180000000  0.6466840000000  0.4134830000000 1.0
C      1  0.4616980000000  0.6466860000000  0.3379140000000 1.0
C      1  0.3340150000000  0.6466920000000  0.4863410000000 1.0
C      1  0.4668180000000  0.5842260000000  0.5784150000000 1.0
C      1  0.5643240000000  0.5842250000000  0.5557910000000 1.0
C      1  0.5729390000000  0.5842230000000  0.4560660000000 1.0
C      1  0.4807560000000  0.5842240000000  0.4170560000000 1.0
C      1  0.4151700000000  0.5842260000000  0.4926720000000 1.0
C      1  0.5119510000000  0.4763050000000  0.2574150000000 1.0
C      1  0.2729830000000  0.4763110000000  0.4136720000000 1.0
C      1  0.3477420000000  0.4763130000000  0.6892260000000 1.0
C      1  0.6329120000000  0.4763100000000  0.7032820000000 1.0
C      1  0.7344050000000  0.4763050000000  0.4364070000000 1.0
C      1  0.5595710000000  0.3502860000000  0.6500770000000 1.0
C      1  0.6611380000000  0.3502830000000  0.4897200000000 1.0
C      1  0.5400140000000  0.3502820000000  0.3435710000000 1.0
C      1  0.3635890000000  0.3502850000000  0.4136050000000 1.0
C      1  0.3756770000000  0.3502870000000  0.6030350000000 1.0
C      1  0.5609090000000  0.5536050000000  0.2584780000000 1.0
C      1  0.2891270000000  0.5536120000000  0.3674410000000 1.0
C      1  0.3087650000000  0.5536140000000  0.6595840000000 1.0
C      1  0.5926800000000  0.5536110000000  0.7311940000000 1.0
C      1  0.7485230000000  0.5536060000000  0.4832950000000 1.0
C      1  0.3795280000000  0.3973690000000  0.3316190000000 1.0
C      1  0.3026300000000  0.3973710000000  0.5625420000000 1.0
C      1  0.4984880000000  0.3973700000000  0.7070370000000 1.0
C      1  0.6964340000000  0.3973680000000  0.5654150000000 1.0
C      1  0.6229120000000  0.3973670000000  0.3333930000000 1.0
C      1  0.3229020000000  0.4731400000000  0.3305940000000 1.0
C      1  0.2841550000000  0.4731420000000  0.6160790000000 1.0
C      1  0.5436960000000  0.4731400000000  0.7411540000000 1.0
C      1  0.7428550000000  0.4731340000000  0.5329600000000 1.0
C      1  0.6063890000000  0.4731330000000  0.2792150000000 1.0
C      1  0.6234050000000  0.6793930000000  0.3321810000000 1.0
C      1  0.3785330000000  0.6793990000000  0.3307770000000 1.0
C      1  0.3015280000000  0.6794060000000  0.5632310000000 1.0
C      1  0.4988070000000  0.6794030000000  0.7083000000000 1.0
C      1  0.6977410000000  0.6793960000000  0.5655040000000 1.0
C      1  0.3180040000000  0.4133130000000  0.4708980000000 1.0
C      1  0.4160810000000  0.4133150000000  0.6640920000000 1.0
C      1  0.6301260000000  0.4133150000000  0.6305180000000 1.0
C      1  0.6643400000000  0.4133120000000  0.4165730000000 1.0
C      1  0.4714380000000  0.4133110000000  0.3179210000000 1.0
END
