TITL C-2158988-7926-695 -0.000839541786324904 3375 -396.727356185648 0 0 60 (C4) n - 1
REM
REM in /scratch/bkarasulu/868
REM
REM
REM
REM
REM
REM ./C.cell (a2850807a9bf4ad07a5b6933b78d9264)
REM AIRSS Version 0.9.1 bugfix July 2018 build 013d7b7c2542+ Fri, 06 Jul 2018 19:26:36 +0100
REM compiler GCC version 9.2.1 20190827 (Red Hat 9.2.1-1)
REM options -cpp -mtune=generic -march=x86-64 -g -O0 -fpre-include=/usr/include/finclude/math-vector-fortran.h
REM seed 235873516 -1253985331 -2089555379 -1704608210 1531923514 -154271384 116840750 -1454536301 -19508234 1065555528 -618044197 671651080 1788573017 -900860945 1664943004 -1349785089 1294629749 -981592015 328645193 2019160485 33052330 -2038456540 -642386115 -80710066 -2013246644 -952308063 -1519356414 453122312 -651159476 -798625750 -1369040789 -867312887 2103798403
REM
CELL 1.54180   15.00000   15.00000   15.00000   90.00000   90.00000   90.00000
LATT -1
SFAC C  
C      1  0.5767360000000  0.3895350000000  0.6697660000000 1.0
C      1  0.3895350000000  0.4232640000000  0.6697660000000 1.0
C      1  0.4232640000000  0.6104650000000  0.6697660000000 1.0
C      1  0.6104650000000  0.5767360000000  0.6697660000000 1.0
C      1  0.5767380000000  0.6104630000000  0.3422850000000 1.0
C      1  0.3895370000000  0.5767380000000  0.3422850000000 1.0
C      1  0.4232620000000  0.3895370000000  0.3422850000000 1.0
C      1  0.6104630000000  0.4232620000000  0.3422850000000 1.0
C      1  0.6926670000000  0.5781600000000  0.5256320000000 1.0
C      1  0.5781600000000  0.3073330000000  0.5256320000000 1.0
C      1  0.3073330000000  0.4218400000000  0.5256320000000 1.0
C      1  0.4218400000000  0.6926670000000  0.5256320000000 1.0
C      1  0.6926650000000  0.4218360000000  0.4864190000000 1.0
C      1  0.5781640000000  0.6926650000000  0.4864190000000 1.0
C      1  0.3073350000000  0.5781640000000  0.4864190000000 1.0
C      1  0.4218360000000  0.3073350000000  0.4864190000000 1.0
C      1  0.5194570000000  0.3748740000000  0.3427710000000 1.0
C      1  0.3748740000000  0.4805430000000  0.3427710000000 1.0
C      1  0.4805430000000  0.6251260000000  0.3427710000000 1.0
C      1  0.6251260000000  0.5194570000000  0.3427710000000 1.0
C      1  0.5194590000000  0.6251250000000  0.6692800000000 1.0
C      1  0.3748750000000  0.5194590000000  0.6692800000000 1.0
C      1  0.4805410000000  0.3748750000000  0.6692800000000 1.0
C      1  0.6251250000000  0.4805410000000  0.6692800000000 1.0
C      1  0.7089010000000  0.5458690000000  0.3740820000000 1.0
C      1  0.5458690000000  0.2910990000000  0.3740820000000 1.0
C      1  0.2910990000000  0.4541310000000  0.3740820000000 1.0
C      1  0.4541310000000  0.7089010000000  0.3740820000000 1.0
C      1  0.7089010000000  0.4541260000000  0.6379700000000 1.0
C      1  0.5458740000000  0.7089010000000  0.6379700000000 1.0
C      1  0.2910990000000  0.5458740000000  0.6379700000000 1.0
C      1  0.4541260000000  0.2910990000000  0.6379700000000 1.0
C      1  0.4945450000000  0.5719590000000  0.4337410000000 1.0
C      1  0.5719590000000  0.5054550000000  0.4337410000000 1.0
C      1  0.5054550000000  0.4280410000000  0.4337410000000 1.0
C      1  0.4280410000000  0.4945450000000  0.4337410000000 1.0
C      1  0.4945440000000  0.4280410000000  0.5783100000000 1.0
C      1  0.5719590000000  0.4945440000000  0.5783100000000 1.0
C      1  0.5054560000000  0.5719590000000  0.5783100000000 1.0
C      1  0.4280410000000  0.5054560000000  0.5783100000000 1.0
C      1  0.3389750000000  0.3744010000000  0.6008310000000 1.0
C      1  0.3744010000000  0.6610250000000  0.6008310000000 1.0
C      1  0.6610250000000  0.6255990000000  0.6008310000000 1.0
C      1  0.6255990000000  0.3389750000000  0.6008310000000 1.0
C      1  0.3389780000000  0.6256020000000  0.4112200000000 1.0
C      1  0.3743980000000  0.3389780000000  0.4112200000000 1.0
C      1  0.6610220000000  0.3743980000000  0.4112200000000 1.0
C      1  0.6256020000000  0.6610220000000  0.4112200000000 1.0
C      1  0.2969860000000  0.6126830000000  0.5758780000000 1.0
C      1  0.6126830000000  0.7030140000000  0.5758780000000 1.0
C      1  0.7030140000000  0.3873170000000  0.5758780000000 1.0
C      1  0.3873170000000  0.2969860000000  0.5758780000000 1.0
C      1  0.2969830000000  0.3873210000000  0.4361730000000 1.0
C      1  0.6126790000000  0.2969830000000  0.4361730000000 1.0
C      1  0.7030170000000  0.6126790000000  0.4361730000000 1.0
C      1  0.3873210000000  0.7030170000000  0.4361730000000 1.0
C      1  0.5000010000000  0.6368700000000  0.5060260000000 1.0
C      1  0.6368700000000  0.4999990000000  0.5060260000000 1.0
C      1  0.4999990000000  0.3631300000000  0.5060260000000 1.0
C      1  0.3631300000000  0.5000010000000  0.5060260000000 1.0
END
