TITL C-2159252-5904-144 -0.00286893125482251 3375 -383.231291373471 0 0 60 (C2v) n - 1
REM
REM in /scratch/bkarasulu/870
REM
REM
REM
REM
REM
REM ./C.cell (a2850807a9bf4ad07a5b6933b78d9264)
REM AIRSS Version 0.9.1 bugfix July 2018 build 013d7b7c2542+ Fri, 06 Jul 2018 19:26:36 +0100
REM compiler GCC version 9.2.1 20190827 (Red Hat 9.2.1-1)
REM options -cpp -mtune=generic -march=x86-64 -g -O0 -fpre-include=/usr/include/finclude/math-vector-fortran.h
REM seed -2121701081 374627044 -666706021 486227992 -209569942 -1639160299 1382895092 211732550 1339493776 728163754 261764352 -322543365 209182451 -481704188 115618090 -1835729548 1321188913 2029744757 1080973677 -644294357 1165550603 843899625 148520154 506374476 2015796370 -2133832789 -1896259444 -1797780647 1490432669 1004194620 1092064973 -2019882905 -2104388831
REM
CELL 1.54180   15.00000   15.00000   15.00000   90.00000   90.00000   90.00000
LATT -1
SFAC C  
C      1  0.7180700000000  0.3807670000000  0.4542110000000 1.0
C      1  0.2819300000000  0.3807670000000  0.5457890000000 1.0
C      1  0.2819300000000  0.3807670000000  0.4542110000000 1.0
C      1  0.7180700000000  0.3807670000000  0.5457890000000 1.0
C      1  0.4000740000000  0.5104670000000  0.5509010000000 1.0
C      1  0.5999260000000  0.5104670000000  0.4490990000000 1.0
C      1  0.5999260000000  0.5104670000000  0.5509010000000 1.0
C      1  0.4000740000000  0.5104670000000  0.4490990000000 1.0
C      1  0.5467610000000  0.3459710000000  0.4526600000000 1.0
C      1  0.4532390000000  0.3459710000000  0.5473400000000 1.0
C      1  0.4532390000000  0.3459710000000  0.4526600000000 1.0
C      1  0.5467610000000  0.3459710000000  0.5473400000000 1.0
C      1  0.5514480000000  0.4314240000000  0.3998240000000 1.0
C      1  0.4485520000000  0.4314240000000  0.6001760000000 1.0
C      1  0.4485520000000  0.4314240000000  0.3998240000000 1.0
C      1  0.5514480000000  0.4314240000000  0.6001760000000 1.0
C      1  0.6907520000000  0.6368970000000  0.5460160000000 1.0
C      1  0.3092480000000  0.6368970000000  0.4539840000000 1.0
C      1  0.3092480000000  0.6368970000000  0.5460160000000 1.0
C      1  0.6907520000000  0.6368970000000  0.4539840000000 1.0
C      1  0.2324620000000  0.4747160000000  0.4510290000000 1.0
C      1  0.7675380000000  0.4747160000000  0.5489710000000 1.0
C      1  0.7675380000000  0.4747160000000  0.4510290000000 1.0
C      1  0.2324620000000  0.4747160000000  0.5489710000000 1.0
C      1  0.6952210000000  0.5420400000000  0.4262570000000 1.0
C      1  0.3047790000000  0.5420400000000  0.5737430000000 1.0
C      1  0.3047790000000  0.5420400000000  0.4262570000000 1.0
C      1  0.6952210000000  0.5420400000000  0.5737430000000 1.0
C      1  0.6956330000000  0.3922760000000  0.3622910000000 1.0
C      1  0.3043670000000  0.3922760000000  0.6377090000000 1.0
C      1  0.3043670000000  0.3922760000000  0.3622910000000 1.0
C      1  0.6956330000000  0.3922760000000  0.6377090000000 1.0
C      1  0.4505790000000  0.6026350000000  0.4472600000000 1.0
C      1  0.5494210000000  0.6026350000000  0.5527400000000 1.0
C      1  0.5494210000000  0.6026350000000  0.4472600000000 1.0
C      1  0.4505790000000  0.6026350000000  0.5527400000000 1.0
C      1  0.2393730000000  0.4629670000000  0.6504380000000 1.0
C      1  0.7606270000000  0.4629670000000  0.3495620000000 1.0
C      1  0.7606270000000  0.4629670000000  0.6504380000000 1.0
C      1  0.2393730000000  0.4629670000000  0.3495620000000 1.0
C      1  0.3708460000000  0.5976540000000  0.6910690000000 1.0
C      1  0.6291540000000  0.5976540000000  0.3089310000000 1.0
C      1  0.6291540000000  0.5976540000000  0.6910690000000 1.0
C      1  0.3708460000000  0.5976540000000  0.3089310000000 1.0
C      1  0.6109560000000  0.4214630000000  0.6732580000000 1.0
C      1  0.3890440000000  0.4214630000000  0.3267420000000 1.0
C      1  0.3890440000000  0.4214630000000  0.6732580000000 1.0
C      1  0.6109560000000  0.4214630000000  0.3267420000000 1.0
C      1  0.3858510000000  0.6508640000000  0.6077920000000 1.0
C      1  0.6141490000000  0.6508640000000  0.3922080000000 1.0
C      1  0.6141490000000  0.6508640000000  0.6077920000000 1.0
C      1  0.3858510000000  0.6508640000000  0.3922080000000 1.0
C      1  0.7058890000000  0.5387060000000  0.3263810000000 1.0
C      1  0.2941110000000  0.5387060000000  0.6736190000000 1.0
C      1  0.2941110000000  0.5387060000000  0.3263810000000 1.0
C      1  0.7058890000000  0.5387060000000  0.6736190000000 1.0
C      1  0.3743990000000  0.5111540000000  0.7175830000000 1.0
C      1  0.6256010000000  0.5111540000000  0.2824170000000 1.0
C      1  0.6256010000000  0.5111540000000  0.7175830000000 1.0
C      1  0.3743990000000  0.5111540000000  0.2824170000000 1.0
END
