TITL C-2159255-4746-553 -0.00284370567531711 3375 -405.008943025676 0 0 60 (D2h) n - 1
REM
REM in /scratch/bkarasulu/871
REM
REM
REM
REM
REM
REM ./C.cell (a2850807a9bf4ad07a5b6933b78d9264)
REM AIRSS Version 0.9.1 bugfix July 2018 build 013d7b7c2542+ Fri, 06 Jul 2018 19:26:36 +0100
REM compiler GCC version 9.2.1 20190827 (Red Hat 9.2.1-1)
REM options -cpp -mtune=generic -march=x86-64 -g -O0 -fpre-include=/usr/include/finclude/math-vector-fortran.h
REM seed 871231679 -526547287 -528368422 599318312 -691262742 -1696358522 2016151435 -1867163024 -985688323 -2108068072 -1925432544 1719754140 524349178 964799301 -622893306 -1585351863 368948756 -1122434019 1713285564 1112314679 -1227290734 -203488839 803816048 341118618 -1581916595 -848050278 -790362542 1664246049 716508281 -1399658629 569256557 -685781769 -931443463
REM
CELL 1.54180   15.00000   15.00000   15.00000   90.00000   90.00000   90.00000
LATT -1
SFAC C  
C      1  0.5974770000000  0.7466920000000  0.4506870000000 1.0
C      1  0.4025230000000  0.7466920000000  0.5493130000000 1.0
C      1  0.5974770000000  0.2533080000000  0.4506870000000 1.0
C      1  0.4025230000000  0.2533080000000  0.5493130000000 1.0
C      1  0.5974770000000  0.7466920000000  0.5493130000000 1.0
C      1  0.4025230000000  0.7466920000000  0.4506870000000 1.0
C      1  0.5974770000000  0.2533080000000  0.5493130000000 1.0
C      1  0.4025230000000  0.2533080000000  0.4506870000000 1.0
C      1  0.4535520000000  0.2985230000000  0.3838870000000 1.0
C      1  0.5464480000000  0.2985230000000  0.6161130000000 1.0
C      1  0.4535520000000  0.7014770000000  0.3838870000000 1.0
C      1  0.5464480000000  0.7014770000000  0.6161130000000 1.0
C      1  0.4535520000000  0.2985230000000  0.6161130000000 1.0
C      1  0.5464480000000  0.2985230000000  0.3838870000000 1.0
C      1  0.4535520000000  0.7014770000000  0.6161130000000 1.0
C      1  0.5464480000000  0.7014770000000  0.3838870000000 1.0
C      1  0.7222260000000  0.5482110000000  0.5492990000000 1.0
C      1  0.2777740000000  0.5482110000000  0.4507010000000 1.0
C      1  0.7222260000000  0.4517890000000  0.5492990000000 1.0
C      1  0.2777740000000  0.4517890000000  0.4507010000000 1.0
C      1  0.7222260000000  0.5482110000000  0.4507010000000 1.0
C      1  0.2777740000000  0.5482110000000  0.5492990000000 1.0
C      1  0.7222260000000  0.4517890000000  0.4507010000000 1.0
C      1  0.2777740000000  0.4517890000000  0.5492990000000 1.0
C      1  0.6840090000000  0.6213400000000  0.4042130000000 1.0
C      1  0.3159910000000  0.6213400000000  0.5957870000000 1.0
C      1  0.6840090000000  0.3786600000000  0.4042130000000 1.0
C      1  0.3159910000000  0.3786600000000  0.5957870000000 1.0
C      1  0.6840090000000  0.6213400000000  0.5957870000000 1.0
C      1  0.3159910000000  0.6213400000000  0.4042130000000 1.0
C      1  0.6840090000000  0.3786600000000  0.5957870000000 1.0
C      1  0.3159910000000  0.3786600000000  0.4042130000000 1.0
C      1  0.4499540000000  0.4515120000000  0.5937460000000 1.0
C      1  0.5500460000000  0.4515120000000  0.4062540000000 1.0
C      1  0.4499540000000  0.5484880000000  0.5937460000000 1.0
C      1  0.5500460000000  0.5484880000000  0.4062540000000 1.0
C      1  0.4499540000000  0.4515120000000  0.4062540000000 1.0
C      1  0.5500460000000  0.4515120000000  0.5937460000000 1.0
C      1  0.4499540000000  0.5484880000000  0.4062540000000 1.0
C      1  0.5500460000000  0.5484880000000  0.5937460000000 1.0
C      1  0.3152500000000  0.7000090000000  0.4534700000000 1.0
C      1  0.6847500000000  0.7000090000000  0.5465300000000 1.0
C      1  0.3152500000000  0.2999910000000  0.4534700000000 1.0
C      1  0.6847500000000  0.2999910000000  0.5465300000000 1.0
C      1  0.3152500000000  0.7000090000000  0.5465300000000 1.0
C      1  0.6847500000000  0.7000090000000  0.4534700000000 1.0
C      1  0.3152500000000  0.2999910000000  0.5465300000000 1.0
C      1  0.6847500000000  0.2999910000000  0.4534700000000 1.0
C      1  0.5974630000000  0.6194290000000  0.3613590000000 1.0
C      1  0.4025370000000  0.6194290000000  0.6386410000000 1.0
C      1  0.5974630000000  0.3805710000000  0.3613590000000 1.0
C      1  0.4025370000000  0.3805710000000  0.6386410000000 1.0
C      1  0.5974630000000  0.6194290000000  0.6386410000000 1.0
C      1  0.4025370000000  0.6194290000000  0.3613590000000 1.0
C      1  0.5974630000000  0.3805710000000  0.6386410000000 1.0
C      1  0.4025370000000  0.3805710000000  0.3613590000000 1.0
C      1  0.5504020000000  0.5962680000000  0.5000000000000 1.0
C      1  0.4495980000000  0.5962680000000  0.5000000000000 1.0
C      1  0.5504020000000  0.4037320000000  0.5000000000000 1.0
C      1  0.4495980000000  0.4037320000000  0.5000000000000 1.0
END
