TITL C-2159252-5904-109 -0.00257770205554226 3375 -391.220959057569 0 0 60 (D2h) n - 1
REM
REM in /scratch/bkarasulu/870
REM
REM
REM
REM
REM
REM ./C.cell (a2850807a9bf4ad07a5b6933b78d9264)
REM AIRSS Version 0.9.1 bugfix July 2018 build 013d7b7c2542+ Fri, 06 Jul 2018 19:26:36 +0100
REM compiler GCC version 9.2.1 20190827 (Red Hat 9.2.1-1)
REM options -cpp -mtune=generic -march=x86-64 -g -O0 -fpre-include=/usr/include/finclude/math-vector-fortran.h
REM seed -1697390767 194397796 2078029702 531051161 590562092 -1599194076 -1968550477 -564937319 -2061134084 2111290460 -474102457 1980630716 -1032119615 -1740244072 411669509 -1046216783 -320919283 -475813733 1337796080 -369507033 520332156 -103197179 141272519 1373738536 1314231591 -652496686 -1599708148 29085417 1462353423 809197786 1549499580 -873879599 21444844
REM
CELL 1.54180   15.00000   15.00000   15.00000   90.00000   90.00000   90.00000
LATT -1
SFAC C  
C      1  0.5514770000000  0.2468850000000  0.5775610000000 1.0
C      1  0.5514770000000  0.7531150000000  0.4224390000000 1.0
C      1  0.4485230000000  0.2468850000000  0.5775610000000 1.0
C      1  0.4485230000000  0.7531150000000  0.4224390000000 1.0
C      1  0.5514770000000  0.7531150000000  0.5775610000000 1.0
C      1  0.5514770000000  0.2468850000000  0.4224390000000 1.0
C      1  0.4485230000000  0.7531150000000  0.5775610000000 1.0
C      1  0.4485230000000  0.2468850000000  0.4224390000000 1.0
C      1  0.3014090000000  0.4571590000000  0.5816480000000 1.0
C      1  0.3014090000000  0.5428410000000  0.4183520000000 1.0
C      1  0.6985910000000  0.4571590000000  0.5816480000000 1.0
C      1  0.6985910000000  0.5428410000000  0.4183520000000 1.0
C      1  0.3014090000000  0.5428410000000  0.5816480000000 1.0
C      1  0.3014090000000  0.4571590000000  0.4183520000000 1.0
C      1  0.6985910000000  0.5428410000000  0.5816480000000 1.0
C      1  0.6985910000000  0.4571590000000  0.4183520000000 1.0
C      1  0.6325140000000  0.3895070000000  0.4454650000000 1.0
C      1  0.6325140000000  0.6104930000000  0.5545350000000 1.0
C      1  0.3674860000000  0.3895070000000  0.4454650000000 1.0
C      1  0.3674860000000  0.6104930000000  0.5545350000000 1.0
C      1  0.6325140000000  0.6104930000000  0.4454650000000 1.0
C      1  0.6325140000000  0.3895070000000  0.5545350000000 1.0
C      1  0.3674860000000  0.6104930000000  0.4454650000000 1.0
C      1  0.3674860000000  0.3895070000000  0.5545350000000 1.0
C      1  0.5854190000000  0.5417260000000  0.2901930000000 1.0
C      1  0.5854190000000  0.4582740000000  0.7098070000000 1.0
C      1  0.4145810000000  0.5417260000000  0.2901930000000 1.0
C      1  0.4145810000000  0.4582740000000  0.7098070000000 1.0
C      1  0.5854190000000  0.4582740000000  0.2901930000000 1.0
C      1  0.5854190000000  0.5417260000000  0.7098070000000 1.0
C      1  0.4145810000000  0.4582740000000  0.2901930000000 1.0
C      1  0.4145810000000  0.5417260000000  0.7098070000000 1.0
C      1  0.5490660000000  0.6271640000000  0.6908410000000 1.0
C      1  0.5490660000000  0.3728360000000  0.3091590000000 1.0
C      1  0.4509340000000  0.6271640000000  0.6908410000000 1.0
C      1  0.4509340000000  0.3728360000000  0.3091590000000 1.0
C      1  0.5490660000000  0.3728360000000  0.6908410000000 1.0
C      1  0.5490660000000  0.6271640000000  0.3091590000000 1.0
C      1  0.4509340000000  0.3728360000000  0.6908410000000 1.0
C      1  0.4509340000000  0.6271640000000  0.3091590000000 1.0
C      1  0.5511230000000  0.5482700000000  0.4498710000000 1.0
C      1  0.5511230000000  0.4517300000000  0.5501290000000 1.0
C      1  0.4488770000000  0.5482700000000  0.4498710000000 1.0
C      1  0.4488770000000  0.4517300000000  0.5501290000000 1.0
C      1  0.5511230000000  0.4517300000000  0.4498710000000 1.0
C      1  0.5511230000000  0.5482700000000  0.5501290000000 1.0
C      1  0.4488770000000  0.4517300000000  0.4498710000000 1.0
C      1  0.4488770000000  0.5482700000000  0.5501290000000 1.0
C      1  0.5931480000000  0.3230090000000  0.3821720000000 1.0
C      1  0.5931480000000  0.6769910000000  0.6178280000000 1.0
C      1  0.4068520000000  0.3230090000000  0.3821720000000 1.0
C      1  0.4068520000000  0.6769910000000  0.6178280000000 1.0
C      1  0.5931480000000  0.6769910000000  0.3821720000000 1.0
C      1  0.5931480000000  0.3230090000000  0.6178280000000 1.0
C      1  0.4068520000000  0.6769910000000  0.3821720000000 1.0
C      1  0.4068520000000  0.3230090000000  0.6178280000000 1.0
C      1  0.4137230000000  0.2089690000000  0.5000000000000 1.0
C      1  0.4137230000000  0.7910310000000  0.5000000000000 1.0
C      1  0.5862770000000  0.2089690000000  0.5000000000000 1.0
C      1  0.5862770000000  0.7910310000000  0.5000000000000 1.0
END
