TITL C-2158988-7926-359 -0.00190023404648257 3375 -417.033321958924 0 0 60 (Ci) n - 1
REM
REM in /scratch/bkarasulu/868
REM
REM
REM
REM
REM
REM ./C.cell (a2850807a9bf4ad07a5b6933b78d9264)
REM AIRSS Version 0.9.1 bugfix July 2018 build 013d7b7c2542+ Fri, 06 Jul 2018 19:26:36 +0100
REM compiler GCC version 9.2.1 20190827 (Red Hat 9.2.1-1)
REM options -cpp -mtune=generic -march=x86-64 -g -O0 -fpre-include=/usr/include/finclude/math-vector-fortran.h
REM seed -2105887719 -933135252 214954322 220845778 -816100698 930856494 2040284656 -1451183080 -490346120 -1991622945 777991053 -71893678 1433413192 -618661270 363649354 -437175930 -410863989 1043592904 -1973932760 282357060 1184794396 -541016516 -1983600487 634209078 -1952277371 -1214300998 1753741418 1231019546 -150911402 643361281 1404279937 -1395641406 -1304157493
REM
CELL 1.54180   15.00000   15.00000   15.00000   90.00000   90.00000   90.00000
LATT -1
SFAC C  
C      1  0.3893820000000  0.3447130000000  0.4472800000000 1.0
C      1  0.6106180000000  0.6552870000000  0.5527200000000 1.0
C      1  0.4784510000000  0.4807700000000  0.7528860000000 1.0
C      1  0.5215490000000  0.5192300000000  0.2471140000000 1.0
C      1  0.5295330000000  0.3867160000000  0.3275030000000 1.0
C      1  0.4704670000000  0.6132840000000  0.6724970000000 1.0
C      1  0.6084120000000  0.6351400000000  0.3214280000000 1.0
C      1  0.3915880000000  0.3648600000000  0.6785720000000 1.0
C      1  0.6694080000000  0.4629180000000  0.2972800000000 1.0
C      1  0.3305920000000  0.5370820000000  0.7027200000000 1.0
C      1  0.4133710000000  0.3355340000000  0.5924500000000 1.0
C      1  0.5866290000000  0.6644660000000  0.4075500000000 1.0
C      1  0.6318600000000  0.5970150000000  0.6245290000000 1.0
C      1  0.3681400000000  0.4029850000000  0.3754710000000 1.0
C      1  0.6554240000000  0.6501190000000  0.4694440000000 1.0
C      1  0.3445760000000  0.3498810000000  0.5305550000000 1.0
C      1  0.5270210000000  0.6046570000000  0.2868300000000 1.0
C      1  0.4729790000000  0.3953430000000  0.7131700000000 1.0
C      1  0.4476610000000  0.6263490000000  0.3459290000000 1.0
C      1  0.5523390000000  0.3736510000000  0.6540710000000 1.0
C      1  0.3317420000000  0.5620740000000  0.6075460000000 1.0
C      1  0.6682580000000  0.4379260000000  0.3924540000000 1.0
C      1  0.5162100000000  0.4600320000000  0.4907860000000 1.0
C      1  0.4837900000000  0.5399680000000  0.5092140000000 1.0
C      1  0.2989040000000  0.5405320000000  0.4594560000000 1.0
C      1  0.7010960000000  0.4594680000000  0.5405440000000 1.0
C      1  0.3283990000000  0.7034780000000  0.4098490000000 1.0
C      1  0.6716010000000  0.2965220000000  0.5901510000000 1.0
C      1  0.5163410000000  0.6824820000000  0.5357210000000 1.0
C      1  0.4836590000000  0.3175180000000  0.4642790000000 1.0
C      1  0.5013750000000  0.6348600000000  0.4475740000000 1.0
C      1  0.4986250000000  0.3651400000000  0.5524260000000 1.0
C      1  0.3319550000000  0.4948050000000  0.3826180000000 1.0
C      1  0.6680450000000  0.5051950000000  0.6173820000000 1.0
C      1  0.3863950000000  0.5468520000000  0.3226000000000 1.0
C      1  0.6136050000000  0.4531480000000  0.6774000000000 1.0
C      1  0.5551770000000  0.3260900000000  0.4015490000000 1.0
C      1  0.4448230000000  0.6739100000000  0.5984510000000 1.0
C      1  0.3094530000000  0.4102020000000  0.6710060000000 1.0
C      1  0.6905470000000  0.5897980000000  0.3289940000000 1.0
C      1  0.6781280000000  0.3634180000000  0.5230880000000 1.0
C      1  0.3218720000000  0.6365820000000  0.4769120000000 1.0
C      1  0.2872900000000  0.4133560000000  0.5737700000000 1.0
C      1  0.7127100000000  0.5866440000000  0.4262300000000 1.0
C      1  0.7144330000000  0.4967690000000  0.4555280000000 1.0
C      1  0.2855670000000  0.5032310000000  0.5444720000000 1.0
C      1  0.3567040000000  0.6453980000000  0.5654770000000 1.0
C      1  0.6432960000000  0.3546020000000  0.4345230000000 1.0
C      1  0.4347010000000  0.4890320000000  0.2674160000000 1.0
C      1  0.5652990000000  0.5109680000000  0.7325840000000 1.0
C      1  0.5642780000000  0.5959100000000  0.6923400000000 1.0
C      1  0.4357220000000  0.4040900000000  0.3076600000000 1.0
C      1  0.2754580000000  0.4696880000000  0.7305450000000 1.0
C      1  0.7245420000000  0.5303120000000  0.2694550000000 1.0
C      1  0.4362960000000  0.5482350000000  0.5941800000000 1.0
C      1  0.5637040000000  0.4517650000000  0.4058200000000 1.0
C      1  0.6135980000000  0.2906530000000  0.6534210000000 1.0
C      1  0.3864020000000  0.7093470000000  0.3465790000000 1.0
C      1  0.5809050000000  0.4465720000000  0.2656230000000 1.0
C      1  0.4190950000000  0.5534280000000  0.7343770000000 1.0
END
