TITL C-2159255-4746-1232 -0.00227774130337188 3375 -381.272501770778 0 0 60 (C5) n - 1
REM
REM in /scratch/bkarasulu/871
REM
REM
REM
REM
REM
REM ./C.cell (a2850807a9bf4ad07a5b6933b78d9264)
REM AIRSS Version 0.9.1 bugfix July 2018 build 013d7b7c2542+ Fri, 06 Jul 2018 19:26:36 +0100
REM compiler GCC version 9.2.1 20190827 (Red Hat 9.2.1-1)
REM options -cpp -mtune=generic -march=x86-64 -g -O0 -fpre-include=/usr/include/finclude/math-vector-fortran.h
REM seed 325872412 -736345102 1392187458 -1707330833 -1522229492 -622132639 -555401887 -2099476064 1892711883 -459531145 813552652 -1448917213 -48986747 -1154093271 -1556024155 -1828011303 1796466194 -1034796273 -1649623649 -1791155338 2145227417 -1221921709 2114426440 520354065 1255065904 1818057640 -1018183508 990059607 -408974380 354711463 -2142702925 1707878269 730690136
REM
CELL 1.54180   15.00000   15.00000   15.00000   90.00000   90.00000   90.00000
LATT -1
SFAC C  
C      1  0.3405250000000  0.5505210000000  0.3521430000000 1.0
C      1  0.3405250000000  0.3749940000000  0.4062610000000 1.0
C      1  0.3405230000000  0.3722210000000  0.5899200000000 1.0
C      1  0.3405230000000  0.5460350000000  0.6493120000000 1.0
C      1  0.3405240000000  0.6562300000000  0.5023570000000 1.0
C      1  0.3405250000000  0.4494790000000  0.3521430000000 1.0
C      1  0.3405250000000  0.6250060000000  0.4062610000000 1.0
C      1  0.3405230000000  0.6277790000000  0.5899200000000 1.0
C      1  0.3405230000000  0.4539650000000  0.6493120000000 1.0
C      1  0.3405240000000  0.3437700000000  0.5023570000000 1.0
C      1  0.4080820000000  0.4063400000000  0.7124200000000 1.0
C      1  0.4080820000000  0.6730810000000  0.6547170000000 1.0
C      1  0.4080830000000  0.7006310000000  0.3831990000000 1.0
C      1  0.4080830000000  0.4509150000000  0.2730910000000 1.0
C      1  0.4080830000000  0.2690320000000  0.4765630000000 1.0
C      1  0.4080820000000  0.5936600000000  0.7124200000000 1.0
C      1  0.4080820000000  0.3269190000000  0.6547170000000 1.0
C      1  0.4080830000000  0.2993690000000  0.3831990000000 1.0
C      1  0.4080830000000  0.5490850000000  0.2730910000000 1.0
C      1  0.4080830000000  0.7309680000000  0.4765630000000 1.0
C      1  0.5900570000000  0.4092910000000  0.2933840000000 1.0
C      1  0.5900540000000  0.2754640000000  0.5224220000000 1.0
C      1  0.5900510000000  0.4519380000000  0.7204790000000 1.0
C      1  0.5900520000000  0.6948310000000  0.6138390000000 1.0
C      1  0.5900550000000  0.6684730000000  0.3498840000000 1.0
C      1  0.5900570000000  0.5907090000000  0.2933840000000 1.0
C      1  0.5900540000000  0.7245360000000  0.5224220000000 1.0
C      1  0.5900510000000  0.5480620000000  0.7204790000000 1.0
C      1  0.5900520000000  0.3051690000000  0.6138390000000 1.0
C      1  0.5900550000000  0.3315270000000  0.3498840000000 1.0
C      1  0.6660050000000  0.4499720000000  0.6483880000000 1.0
C      1  0.6660050000000  0.6256620000000  0.5934360000000 1.0
C      1  0.6660080000000  0.6276910000000  0.4093630000000 1.0
C      1  0.6660100000000  0.4532560000000  0.3505500000000 1.0
C      1  0.6660080000000  0.3434190000000  0.4982760000000 1.0
C      1  0.6660050000000  0.5500280000000  0.6483880000000 1.0
C      1  0.6660050000000  0.3743380000000  0.5934360000000 1.0
C      1  0.6660080000000  0.3723090000000  0.4093630000000 1.0
C      1  0.6660100000000  0.5467440000000  0.3505500000000 1.0
C      1  0.6660080000000  0.6565810000000  0.4982760000000 1.0
C      1  0.5094520000000  0.5467030000000  0.3555060000000 1.0
C      1  0.5094530000000  0.3770130000000  0.4109320000000 1.0
C      1  0.5094510000000  0.3772860000000  0.5894450000000 1.0
C      1  0.5094480000000  0.5471460000000  0.6443490000000 1.0
C      1  0.5094500000000  0.6518510000000  0.4997660000000 1.0
C      1  0.5094520000000  0.4532970000000  0.3555060000000 1.0
C      1  0.5094530000000  0.6229870000000  0.4109320000000 1.0
C      1  0.5094510000000  0.6227140000000  0.5894450000000 1.0
C      1  0.5094480000000  0.4528540000000  0.6443490000000 1.0
C      1  0.5094500000000  0.3481490000000  0.4997660000000 1.0
C      1  0.4858820000000  0.3141370000000  0.3315880000000 1.0
C      1  0.4858800000000  0.2823950000000  0.6247240000000 1.0
C      1  0.4858810000000  0.5513780000000  0.7454990000000 1.0
C      1  0.4858820000000  0.7493580000000  0.5269990000000 1.0
C      1  0.4858820000000  0.6027330000000  0.2711900000000 1.0
C      1  0.4858820000000  0.6858630000000  0.3315880000000 1.0
C      1  0.4858800000000  0.7176050000000  0.6247240000000 1.0
C      1  0.4858810000000  0.4486220000000  0.7454990000000 1.0
C      1  0.4858820000000  0.2506420000000  0.5269990000000 1.0
C      1  0.4858820000000  0.3972670000000  0.2711900000000 1.0
END
