TITL C-2158984-8299-1116 -0.00315862892496082 3375 -429.318962563769 0 0 60 (C2v) n - 1
REM
REM in /scratch/bkarasulu/869
REM
REM
REM
REM
REM
REM ./C.cell (a2850807a9bf4ad07a5b6933b78d9264)
REM AIRSS Version 0.9.1 bugfix July 2018 build 013d7b7c2542+ Fri, 06 Jul 2018 19:26:36 +0100
REM compiler GCC version 9.2.1 20190827 (Red Hat 9.2.1-1)
REM options -cpp -mtune=generic -march=x86-64 -g -O0 -fpre-include=/usr/include/finclude/math-vector-fortran.h
REM seed -2038304926 351684092 16891465 1109749197 2025112834 -2104348337 -1069689715 525509867 -900500284 1434233746 -637943153 -793424506 -1914543409 1151789510 -2104303283 -1444646776 -704699527 -1076349342 1374917531 1300350885 2085148038 -1830416691 1756059846 -1489506919 -895577869 -1765563177 -1946018094 -204058485 747630174 302889591 2043714911 1798923555 -1312936130
REM
CELL 1.54180   15.00000   15.00000   15.00000   90.00000   90.00000   90.00000
LATT -1
SFAC C  
C      1  0.3546100000000  0.6997740000000  0.4645450000000 1.0
C      1  0.2494710000000  0.5894640000000  0.4890680000000 1.0
C      1  0.2609500000000  0.4375110000000  0.4645450000000 1.0
C      1  0.3428470000000  0.2931930000000  0.4799680000000 1.0
C      1  0.4906060000000  0.2404230000000  0.4799670000000 1.0
C      1  0.6453900000000  0.3002260000000  0.4645450000000 1.0
C      1  0.7505290000000  0.4105360000000  0.4890680000000 1.0
C      1  0.7390500000000  0.5624890000000  0.4645450000000 1.0
C      1  0.6571530000000  0.7068070000000  0.4799680000000 1.0
C      1  0.5093930000000  0.7595770000000  0.4799670000000 1.0
C      1  0.4913140000000  0.3308120000000  0.3345970000000 1.0
C      1  0.5633620000000  0.3892420000000  0.3418610000000 1.0
C      1  0.5464860000000  0.4833990000000  0.3282940000000 1.0
C      1  0.6191870000000  0.5455690000000  0.3418610000000 1.0
C      1  0.6004450000000  0.6364190000000  0.3345980000000 1.0
C      1  0.5086860000000  0.6691880000000  0.3345970000000 1.0
C      1  0.4366380000000  0.6107580000000  0.3418610000000 1.0
C      1  0.4535130000000  0.5166000000000  0.3282940000000 1.0
C      1  0.3808130000000  0.4544310000000  0.3418610000000 1.0
C      1  0.3995550000000  0.3635810000000  0.3345980000000 1.0
C      1  0.5882370000000  0.2863340000000  0.6052880000000 1.0
C      1  0.6706290000000  0.3361870000000  0.6133150000000 1.0
C      1  0.7358020000000  0.5186740000000  0.6133160000000 1.0
C      1  0.7036240000000  0.6094380000000  0.6052880000000 1.0
C      1  0.5848270000000  0.7375430000000  0.6226480000000 1.0
C      1  0.4117630000000  0.7136660000000  0.6052880000000 1.0
C      1  0.3293710000000  0.6638140000000  0.6133150000000 1.0
C      1  0.2641980000000  0.4813260000000  0.6133160000000 1.0
C      1  0.2963760000000  0.3905620000000  0.6052880000000 1.0
C      1  0.4151730000000  0.2624570000000  0.6226490000000 1.0
C      1  0.6541120000000  0.4942030000000  0.6626490000000 1.0
C      1  0.6254350000000  0.5893130000000  0.6579460000000 1.0
C      1  0.5535550000000  0.6499650000000  0.6584100000000 1.0
C      1  0.4595160000000  0.6485640000000  0.6579470000000 1.0
C      1  0.3770790000000  0.5931330000000  0.6626490000000 1.0
C      1  0.3458880000000  0.5057970000000  0.6626500000000 1.0
C      1  0.3745650000000  0.4106870000000  0.6579470000000 1.0
C      1  0.4464450000000  0.3500350000000  0.6584100000000 1.0
C      1  0.5404840000000  0.3514360000000  0.6579470000000 1.0
C      1  0.6229210000000  0.4068670000000  0.6626490000000 1.0
C      1  0.6984790000000  0.5177870000000  0.3882040000000 1.0
C      1  0.6273740000000  0.7084770000000  0.3912970000000 1.0
C      1  0.5334920000000  0.7420050000000  0.3912960000000 1.0
C      1  0.3576850000000  0.6394860000000  0.3882040000000 1.0
C      1  0.2901250000000  0.5749470000000  0.4031940000000 1.0
C      1  0.3015210000000  0.4822130000000  0.3882040000000 1.0
C      1  0.3726260000000  0.2915230000000  0.3912970000000 1.0
C      1  0.4665070000000  0.2579950000000  0.3912960000000 1.0
C      1  0.6423150000000  0.3605140000000  0.3882040000000 1.0
C      1  0.7098750000000  0.4250530000000  0.4031930000000 1.0
C      1  0.2918720000000  0.6625770000000  0.5280260000000 1.0
C      1  0.2359630000000  0.5060340000000  0.5280270000000 1.0
C      1  0.2906890000000  0.3624510000000  0.5146020000000 1.0
C      1  0.4109050000000  0.2505060000000  0.5337890000000 1.0
C      1  0.5748350000000  0.2609790000000  0.5146020000000 1.0
C      1  0.7081280000000  0.3374230000000  0.5280260000000 1.0
C      1  0.7640370000000  0.4939660000000  0.5280260000000 1.0
C      1  0.7093110000000  0.6375490000000  0.5146020000000 1.0
C      1  0.5890950000000  0.7494940000000  0.5337890000000 1.0
C      1  0.4251660000000  0.7390210000000  0.5146020000000 1.0
END
