TITL C-2158988-7926-89 -0.00196178689503833 3375 -413.289594028086 0 0 60 (C1) n - 1
REM
REM in /scratch/bkarasulu/868
REM
REM
REM
REM
REM
REM ./C.cell (a2850807a9bf4ad07a5b6933b78d9264)
REM AIRSS Version 0.9.1 bugfix July 2018 build 013d7b7c2542+ Fri, 06 Jul 2018 19:26:36 +0100
REM compiler GCC version 9.2.1 20190827 (Red Hat 9.2.1-1)
REM options -cpp -mtune=generic -march=x86-64 -g -O0 -fpre-include=/usr/include/finclude/math-vector-fortran.h
REM seed 1875965240 1519403623 1810606546 386433543 -360577563 -1234403813 -1222046839 -851131971 -2092539730 -1273600990 -702192895 19790574 1495929177 -2032061738 -627231288 -574573123 179734148 793412677 -278677372 1502082608 1503319905 443161467 1376548099 361977650 -1222989082 1875164849 1093326392 -123584631 321767270 -1911407426 -1441001169 970607756 -246062422
REM
CELL 1.54180   15.00000   15.00000   15.00000   90.00000   90.00000   90.00000
LATT -1
SFAC C  
C      1  0.2899130000000  0.3230070000000  0.4533740000000 1.0
C      1  0.4734080000000  0.3924490000000  0.3424770000000 1.0
C      1  0.6311080000000  0.3513740000000  0.3587660000000 1.0
C      1  0.6868760000000  0.3611340000000  0.5016560000000 1.0
C      1  0.6159240000000  0.3624210000000  0.6386060000000 1.0
C      1  0.4675440000000  0.3576340000000  0.6774980000000 1.0
C      1  0.3372170000000  0.3467650000000  0.5982650000000 1.0
C      1  0.4000610000000  0.2926940000000  0.5524310000000 1.0
C      1  0.3803800000000  0.2937440000000  0.4562690000000 1.0
C      1  0.4491450000000  0.3061930000000  0.3833720000000 1.0
C      1  0.5942650000000  0.2777880000000  0.4088730000000 1.0
C      1  0.6234250000000  0.2901040000000  0.5004970000000 1.0
C      1  0.5751160000000  0.2944500000000  0.5840110000000 1.0
C      1  0.4810280000000  0.2931600000000  0.6066880000000 1.0
C      1  0.2352650000000  0.4332150000000  0.3701830000000 1.0
C      1  0.5874340000000  0.4938870000000  0.2992980000000 1.0
C      1  0.7013330000000  0.4914120000000  0.4111250000000 1.0
C      1  0.6764750000000  0.5018300000000  0.5835250000000 1.0
C      1  0.5479800000000  0.4979700000000  0.6925820000000 1.0
C      1  0.3766880000000  0.4886770000000  0.6605330000000 1.0
C      1  0.2622960000000  0.4667210000000  0.5267750000000 1.0
C      1  0.6458470000000  0.6778710000000  0.5708710000000 1.0
C      1  0.5358530000000  0.6703320000000  0.6805290000000 1.0
C      1  0.3631810000000  0.6601350000000  0.6570710000000 1.0
C      1  0.3202760000000  0.6559330000000  0.4937210000000 1.0
C      1  0.4233530000000  0.6635980000000  0.3555680000000 1.0
C      1  0.5891270000000  0.6712150000000  0.3081660000000 1.0
C      1  0.7159380000000  0.6696460000000  0.4141480000000 1.0
C      1  0.3253730000000  0.5223550000000  0.5802680000000 1.0
C      1  0.2787860000000  0.4875130000000  0.4305500000000 1.0
C      1  0.5050400000000  0.5403970000000  0.3080430000000 1.0
C      1  0.6660260000000  0.5343880000000  0.3339420000000 1.0
C      1  0.6793710000000  0.5445260000000  0.4944590000000 1.0
C      1  0.6256010000000  0.5413650000000  0.6550740000000 1.0
C      1  0.4605150000000  0.5427520000000  0.6703200000000 1.0
C      1  0.3816170000000  0.3976790000000  0.6665440000000 1.0
C      1  0.2712420000000  0.3745430000000  0.5386810000000 1.0
C      1  0.2403690000000  0.3482580000000  0.3804350000000 1.0
C      1  0.5668830000000  0.4032370000000  0.3152590000000 1.0
C      1  0.6941600000000  0.3993870000000  0.4157650000000 1.0
C      1  0.6795100000000  0.4086720000000  0.5843750000000 1.0
C      1  0.5486650000000  0.4054530000000  0.6916950000000 1.0
C      1  0.4492940000000  0.6390950000000  0.6923610000000 1.0
C      1  0.3211020000000  0.6241320000000  0.5812260000000 1.0
C      1  0.3637850000000  0.6311440000000  0.4158300000000 1.0
C      1  0.5032740000000  0.6359600000000  0.3190040000000 1.0
C      1  0.6646230000000  0.6314260000000  0.3436880000000 1.0
C      1  0.7017350000000  0.6404190000000  0.4980780000000 1.0
C      1  0.6189310000000  0.6353410000000  0.6527460000000 1.0
C      1  0.4872180000000  0.4763890000000  0.5287370000000 1.0
C      1  0.4768220000000  0.5667540000000  0.5708910000000 1.0
C      1  0.3993670000000  0.5107240000000  0.5153880000000 1.0
C      1  0.3709970000000  0.5252490000000  0.4220040000000 1.0
C      1  0.4505800000000  0.4854700000000  0.3677900000000 1.0
C      1  0.5302070000000  0.4879020000000  0.4500880000000 1.0
C      1  0.5780320000000  0.5701280000000  0.4638280000000 1.0
C      1  0.5169540000000  0.2398800000000  0.3781130000000 1.0
C      1  0.5671890000000  0.7274720000000  0.5434850000000 1.0
C      1  0.5341500000000  0.8078070000000  0.5343530000000 1.0
C      1  0.5344700000000  0.6256330000000  0.5246380000000 1.0
END
