TITL C-2158984-8299-357 -0.0021067672854627 3375 -404.896904486773 0 0 60 (S4) n - 1
REM
REM in /scratch/bkarasulu/869
REM
REM
REM
REM
REM
REM ./C.cell (a2850807a9bf4ad07a5b6933b78d9264)
REM AIRSS Version 0.9.1 bugfix July 2018 build 013d7b7c2542+ Fri, 06 Jul 2018 19:26:36 +0100
REM compiler GCC version 9.2.1 20190827 (Red Hat 9.2.1-1)
REM options -cpp -mtune=generic -march=x86-64 -g -O0 -fpre-include=/usr/include/finclude/math-vector-fortran.h
REM seed -163378627 -1398242426 714874981 -2128023865 4731917 850949916 1559495184 -1398461782 1763319906 -913390194 -804228458 374279035 1997785671 -1958254028 -1366403967 -1192805184 -806466791 2127018482 1375435296 -1921443766 -2013218654 -1152033734 -1565335861 810841602 1057600092 -1384536082 -228705221 92472630 -1698968116 -1254273666 -972489824 318976216 -2100678714
REM
CELL 1.54180   15.00000   15.00000   15.00000   90.00000   90.00000   90.00000
LATT -1
SFAC C  
C      1  0.4122530000000  0.5947960000000  0.3113340000000 1.0
C      1  0.5947960000000  0.5877470000000  0.6886660000000 1.0
C      1  0.5877470000000  0.4052040000000  0.3113340000000 1.0
C      1  0.4052040000000  0.4122530000000  0.6886660000000 1.0
C      1  0.7568970000000  0.4900250000000  0.5828540000000 1.0
C      1  0.4900250000000  0.2431030000000  0.4171460000000 1.0
C      1  0.2431030000000  0.5099750000000  0.5828540000000 1.0
C      1  0.5099750000000  0.7568970000000  0.4171460000000 1.0
C      1  0.4227390000000  0.2961250000000  0.3891610000000 1.0
C      1  0.2961250000000  0.5772610000000  0.6108390000000 1.0
C      1  0.5772610000000  0.7038750000000  0.3891610000000 1.0
C      1  0.7038750000000  0.4227390000000  0.6108390000000 1.0
C      1  0.6474720000000  0.5798110000000  0.3215570000000 1.0
C      1  0.5798110000000  0.3525280000000  0.6784430000000 1.0
C      1  0.3525280000000  0.4201890000000  0.3215570000000 1.0
C      1  0.4201890000000  0.6474720000000  0.6784430000000 1.0
C      1  0.5377390000000  0.5340170000000  0.4361370000000 1.0
C      1  0.5340170000000  0.4622610000000  0.5638630000000 1.0
C      1  0.4622610000000  0.4659830000000  0.4361370000000 1.0
C      1  0.4659830000000  0.5377390000000  0.5638630000000 1.0
C      1  0.5347170000000  0.5311740000000  0.2341970000000 1.0
C      1  0.5311740000000  0.4652830000000  0.7658030000000 1.0
C      1  0.4652830000000  0.4688260000000  0.2341970000000 1.0
C      1  0.4688260000000  0.5347170000000  0.7658030000000 1.0
C      1  0.3888640000000  0.5019160000000  0.2820210000000 1.0
C      1  0.5019160000000  0.6111360000000  0.7179790000000 1.0
C      1  0.6111360000000  0.4980840000000  0.2820210000000 1.0
C      1  0.4980840000000  0.3888640000000  0.7179790000000 1.0
C      1  0.5015370000000  0.6117510000000  0.2727570000000 1.0
C      1  0.6117510000000  0.4984630000000  0.7272430000000 1.0
C      1  0.4984630000000  0.3882490000000  0.2727570000000 1.0
C      1  0.3882490000000  0.5015370000000  0.7272430000000 1.0
C      1  0.6022260000000  0.3153040000000  0.5974950000000 1.0
C      1  0.3153040000000  0.3977740000000  0.4025050000000 1.0
C      1  0.3977740000000  0.6846960000000  0.5974950000000 1.0
C      1  0.6846960000000  0.6022260000000  0.4025050000000 1.0
C      1  0.4873410000000  0.3905570000000  0.5035200000000 1.0
C      1  0.3905570000000  0.5126590000000  0.4964800000000 1.0
C      1  0.5126590000000  0.6094430000000  0.5035200000000 1.0
C      1  0.6094430000000  0.4873410000000  0.4964800000000 1.0
C      1  0.5782980000000  0.6493570000000  0.3121560000000 1.0
C      1  0.6493570000000  0.4217020000000  0.6878440000000 1.0
C      1  0.4217020000000  0.3506430000000  0.3121560000000 1.0
C      1  0.3506430000000  0.5782980000000  0.6878440000000 1.0
C      1  0.3578240000000  0.3312170000000  0.4512060000000 1.0
C      1  0.3312170000000  0.6421760000000  0.5487940000000 1.0
C      1  0.6421760000000  0.6687830000000  0.4512060000000 1.0
C      1  0.6687830000000  0.3578240000000  0.5487940000000 1.0
C      1  0.6070900000000  0.3622390000000  0.3939230000000 1.0
C      1  0.3622390000000  0.3929100000000  0.6060770000000 1.0
C      1  0.3929100000000  0.6377610000000  0.3939230000000 1.0
C      1  0.6377610000000  0.6070900000000  0.6060770000000 1.0
C      1  0.6825930000000  0.5367590000000  0.5569270000000 1.0
C      1  0.5367590000000  0.3174070000000  0.4430730000000 1.0
C      1  0.3174070000000  0.4632410000000  0.5569270000000 1.0
C      1  0.4632410000000  0.6825930000000  0.4430730000000 1.0
C      1  0.4021820000000  0.3496890000000  0.5337060000000 1.0
C      1  0.3496890000000  0.5978180000000  0.4662940000000 1.0
C      1  0.5978180000000  0.6503110000000  0.5337060000000 1.0
C      1  0.6503110000000  0.4021820000000  0.4662940000000 1.0
END
