TITL C-2158988-7926-333 -0.00164361473351353 3375 -400.082237206547 0 0 60 (C1) n - 1
REM
REM in /scratch/bkarasulu/868
REM
REM
REM
REM
REM
REM ./C.cell (a2850807a9bf4ad07a5b6933b78d9264)
REM AIRSS Version 0.9.1 bugfix July 2018 build 013d7b7c2542+ Fri, 06 Jul 2018 19:26:36 +0100
REM compiler GCC version 9.2.1 20190827 (Red Hat 9.2.1-1)
REM options -cpp -mtune=generic -march=x86-64 -g -O0 -fpre-include=/usr/include/finclude/math-vector-fortran.h
REM seed -1526605217 -1833147593 -1464202876 -81249278 -1411068118 842918929 1754008881 -2082992624 402080838 1521387764 754228077 973236247 -1694992338 -935876483 -2097638880 -1747187513 1712951182 -1645363470 -1638982434 1118450513 -1435850360 35554351 -364500291 1846856978 -835817784 -855392203 2059056529 -251719190 1087243082 1832448700 465015080 316361005 350211182
REM
CELL 1.54180   15.00000   15.00000   15.00000   90.00000   90.00000   90.00000
LATT -1
SFAC C  
C      1  0.3309650000000  0.5654650000000  0.5321380000000 1.0
C      1  0.6285900000000  0.5252340000000  0.6857680000000 1.0
C      1  0.6460650000000  0.4746600000000  0.5252740000000 1.0
C      1  0.6524530000000  0.6193800000000  0.4254130000000 1.0
C      1  0.4406130000000  0.4897730000000  0.6116490000000 1.0
C      1  0.3477140000000  0.4032380000000  0.3084320000000 1.0
C      1  0.5477180000000  0.4836510000000  0.5165350000000 1.0
C      1  0.3772620000000  0.3463000000000  0.6242800000000 1.0
C      1  0.6946240000000  0.5428320000000  0.3876300000000 1.0
C      1  0.4138040000000  0.4663460000000  0.7087980000000 1.0
C      1  0.3684120000000  0.6479620000000  0.5603950000000 1.0
C      1  0.6964970000000  0.6063140000000  0.5908000000000 1.0
C      1  0.4960640000000  0.3469850000000  0.3376690000000 1.0
C      1  0.3821070000000  0.3644770000000  0.4659640000000 1.0
C      1  0.5068050000000  0.4773320000000  0.4297040000000 1.0
C      1  0.2636560000000  0.4546470000000  0.4288270000000 1.0
C      1  0.4032520000000  0.3518370000000  0.3685990000000 1.0
C      1  0.5775510000000  0.6897040000000  0.6417960000000 1.0
C      1  0.5125610000000  0.5524710000000  0.3562550000000 1.0
C      1  0.4307550000000  0.3409740000000  0.5470790000000 1.0
C      1  0.6512950000000  0.4942970000000  0.3157710000000 1.0
C      1  0.2683000000000  0.4300120000000  0.3419630000000 1.0
C      1  0.6504210000000  0.4190960000000  0.3722380000000 1.0
C      1  0.4225700000000  0.5516360000000  0.3138330000000 1.0
C      1  0.5014600000000  0.4260010000000  0.2728540000000 1.0
C      1  0.4246200000000  0.7210380000000  0.4114140000000 1.0
C      1  0.4126730000000  0.4564490000000  0.4399880000000 1.0
C      1  0.4297540000000  0.3756300000000  0.7010310000000 1.0
C      1  0.3534920000000  0.6807190000000  0.3712030000000 1.0
C      1  0.5112240000000  0.5588690000000  0.5736470000000 1.0
C      1  0.4775310000000  0.5270250000000  0.7404160000000 1.0
C      1  0.5305170000000  0.3803620000000  0.6970600000000 1.0
C      1  0.6693960000000  0.6547270000000  0.5139270000000 1.0
C      1  0.2905790000000  0.3875990000000  0.4944490000000 1.0
C      1  0.5640020000000  0.5015350000000  0.2866500000000 1.0
C      1  0.5871330000000  0.6937620000000  0.5469980000000 1.0
C      1  0.4311890000000  0.6893880000000  0.5034730000000 1.0
C      1  0.5122010000000  0.7212480000000  0.3771860000000 1.0
C      1  0.5801290000000  0.3103330000000  0.4600610000000 1.0
C      1  0.5519700000000  0.6353640000000  0.4039480000000 1.0
C      1  0.7610040000000  0.3919630000000  0.4935530000000 1.0
C      1  0.3106860000000  0.4079260000000  0.5850970000000 1.0
C      1  0.5631690000000  0.3937070000000  0.4061440000000 1.0
C      1  0.5600500000000  0.4764030000000  0.7253290000000 1.0
C      1  0.5451580000000  0.2741450000000  0.3819540000000 1.0
C      1  0.6801320000000  0.5138610000000  0.6026260000000 1.0
C      1  0.4900140000000  0.6878790000000  0.6748260000000 1.0
C      1  0.3360840000000  0.5268600000000  0.4415210000000 1.0
C      1  0.4986540000000  0.4109430000000  0.5700110000000 1.0
C      1  0.4051360000000  0.6564050000000  0.6488600000000 1.0
C      1  0.7021680000000  0.4607770000000  0.4472170000000 1.0
C      1  0.6186940000000  0.3117310000000  0.5503500000000 1.0
C      1  0.3447460000000  0.4955710000000  0.5940030000000 1.0
C      1  0.7092460000000  0.3383040000000  0.5372990000000 1.0
C      1  0.6372680000000  0.6206130000000  0.6684070000000 1.0
C      1  0.3535800000000  0.5903990000000  0.3656310000000 1.0
C      1  0.4146740000000  0.4651750000000  0.2742070000000 1.0
C      1  0.4545510000000  0.6166800000000  0.7206150000000 1.0
C      1  0.5152790000000  0.6447510000000  0.5057670000000 1.0
C      1  0.5617810000000  0.3512320000000  0.6154680000000 1.0
END
