TITL C-2159255-4746-730 -0.00204324725749235 3375 -402.578379714342 0 0 60 (C5) n - 1
REM
REM in /scratch/bkarasulu/871
REM
REM
REM
REM
REM
REM ./C.cell (a2850807a9bf4ad07a5b6933b78d9264)
REM AIRSS Version 0.9.1 bugfix July 2018 build 013d7b7c2542+ Fri, 06 Jul 2018 19:26:36 +0100
REM compiler GCC version 9.2.1 20190827 (Red Hat 9.2.1-1)
REM options -cpp -mtune=generic -march=x86-64 -g -O0 -fpre-include=/usr/include/finclude/math-vector-fortran.h
REM seed -65097970 -1508641969 1916016114 -1546338255 -172613883 1687664900 -477559464 880943080 512507994 -1555828432 1242660127 193635169 -793252970 -1574458084 778248920 -1461189207 -507413760 -1814660587 1767027916 2010289140 -1209945083 -1620678934 -940102935 1481064373 488892654 -266411966 -619121110 268739861 679239828 -1489315131 -2065063444 1632042732 -427338100
REM
CELL 1.54180   15.00000   15.00000   15.00000   90.00000   90.00000   90.00000
LATT -1
SFAC C  
C      1  0.5704680000000  0.6714310000000  0.3392320000000 1.0
C      1  0.5704660000000  0.7058740000000  0.6133630000000 1.0
C      1  0.5704670000000  0.4558050000000  0.7308330000000 1.0
C      1  0.5704690000000  0.2668090000000  0.5293000000000 1.0
C      1  0.5704690000000  0.4000750000000  0.2872780000000 1.0
C      1  0.6889890000000  0.5125990000000  0.4192900000000 1.0
C      1  0.6889880000000  0.5806540000000  0.4870410000000 1.0
C      1  0.6889880000000  0.5372490000000  0.5727010000000 1.0
C      1  0.6889890000000  0.4423690000000  0.5578910000000 1.0
C      1  0.6889890000000  0.4271340000000  0.4630780000000 1.0
C      1  0.3788970000000  0.5871600000000  0.6170100000000 1.0
C      1  0.3788970000000  0.4156510000000  0.6190510000000 1.0
C      1  0.3788960000000  0.3607090000000  0.4565670000000 1.0
C      1  0.3788950000000  0.4982630000000  0.3541030000000 1.0
C      1  0.3788950000000  0.6382160000000  0.4532630000000 1.0
C      1  0.5011200000000  0.5472150000000  0.4362960000000 1.0
C      1  0.5011190000000  0.5751720000000  0.5252180000000 1.0
C      1  0.5011200000000  0.4992430000000  0.5792850000000 1.0
C      1  0.5011210000000  0.4243580000000  0.5237790000000 1.0
C      1  0.5011210000000  0.4540070000000  0.4354070000000 1.0
C      1  0.6576400000000  0.5701730000000  0.6577240000000 1.0
C      1  0.6576420000000  0.3716820000000  0.6154780000000 1.0
C      1  0.6576440000000  0.3505210000000  0.4136470000000 1.0
C      1  0.6576430000000  0.5359350000000  0.3311510000000 1.0
C      1  0.6576410000000  0.6716900000000  0.4820000000000 1.0
C      1  0.2481090000000  0.5025490000000  0.6405750000000 1.0
C      1  0.2481080000000  0.3670940000000  0.5458640000000 1.0
C      1  0.2481070000000  0.4153110000000  0.3877710000000 1.0
C      1  0.2481070000000  0.5805660000000  0.3847750000000 1.0
C      1  0.2481090000000  0.6344820000000  0.5410170000000 1.0
C      1  0.4270680000000  0.4137690000000  0.3823830000000 1.0
C      1  0.4270670000000  0.5852110000000  0.3816410000000 1.0
C      1  0.4270690000000  0.6388960000000  0.5444650000000 1.0
C      1  0.4270710000000  0.5006290000000  0.6458400000000 1.0
C      1  0.4270690000000  0.3614930000000  0.5456630000000 1.0
C      1  0.5227650000000  0.7524510000000  0.4779900000000 1.0
C      1  0.5227640000000  0.5989410000000  0.7332950000000 1.0
C      1  0.5227620000000  0.3087100000000  0.6661900000000 1.0
C      1  0.5227630000000  0.2828320000000  0.3694300000000 1.0
C      1  0.5227640000000  0.5570730000000  0.2531060000000 1.0
C      1  0.5857030000000  0.4942940000000  0.2765510000000 1.0
C      1  0.5857000000000  0.7107500000000  0.4255250000000 1.0
C      1  0.5856980000000  0.6359530000000  0.6774220000000 1.0
C      1  0.5857010000000  0.3732770000000  0.6841260000000 1.0
C      1  0.5857020000000  0.2857260000000  0.4363790000000 1.0
C      1  0.2866490000000  0.4975420000000  0.3690650000000 1.0
C      1  0.2866500000000  0.6237670000000  0.4572010000000 1.0
C      1  0.2866520000000  0.5789500000000  0.6044850000000 1.0
C      1  0.2866510000000  0.4250270000000  0.6073730000000 1.0
C      1  0.2866500000000  0.3747150000000  0.4618760000000 1.0
C      1  0.6439650000000  0.3623050000000  0.3236210000000 1.0
C      1  0.6439650000000  0.6251970000000  0.3145390000000 1.0
C      1  0.6439620000000  0.7150720000000  0.5617600000000 1.0
C      1  0.6439630000000  0.5077250000000  0.7236320000000 1.0
C      1  0.6439650000000  0.2897030000000  0.5764520000000 1.0
C      1  0.4886290000000  0.7187590000000  0.5580860000000 1.0
C      1  0.4886280000000  0.5123540000000  0.7260060000000 1.0
C      1  0.4886300000000  0.2888800000000  0.5815870000000 1.0
C      1  0.4886310000000  0.3571660000000  0.3244270000000 1.0
C      1  0.4886310000000  0.6228400000000  0.3099000000000 1.0
END
