TITL C-2159252-5904-420 -0.00496603044226019 3375 -400.576824116107 0 0 60 (D2h) n - 1
REM
REM in /scratch/bkarasulu/870
REM
REM
REM
REM
REM
REM ./C.cell (a2850807a9bf4ad07a5b6933b78d9264)
REM AIRSS Version 0.9.1 bugfix July 2018 build 013d7b7c2542+ Fri, 06 Jul 2018 19:26:36 +0100
REM compiler GCC version 9.2.1 20190827 (Red Hat 9.2.1-1)
REM options -cpp -mtune=generic -march=x86-64 -g -O0 -fpre-include=/usr/include/finclude/math-vector-fortran.h
REM seed -1474313536 1179067495 -1954712916 1881521986 208542460 1670134154 893204235 -1755858985 -554762102 -224241427 -1578390824 -1241637529 -1851228834 1472550293 379668453 1724729842 -149893974 -1312565962 -905042866 -1685288964 -1673070201 -499957103 1098999903 353216260 2130383514 1746345678 710197217 405441759 -232548873 1832523996 1666966374 1266713853 -2013219087
REM
CELL 1.54180   15.00000   15.00000   15.00000   90.00000   90.00000   90.00000
LATT -1
SFAC C  
C      1  0.5485260000000  0.6991920000000  0.4031780000000 1.0
C      1  0.4514740000000  0.6991920000000  0.5968220000000 1.0
C      1  0.5485260000000  0.3008080000000  0.4031780000000 1.0
C      1  0.4514740000000  0.3008080000000  0.5968220000000 1.0
C      1  0.4514740000000  0.6991920000000  0.4031780000000 1.0
C      1  0.5485260000000  0.6991920000000  0.5968220000000 1.0
C      1  0.4514740000000  0.3008080000000  0.4031780000000 1.0
C      1  0.5485260000000  0.3008080000000  0.5968220000000 1.0
C      1  0.5955390000000  0.3784530000000  0.5999030000000 1.0
C      1  0.4044610000000  0.3784520000000  0.4000970000000 1.0
C      1  0.5955390000000  0.6215480000000  0.5999030000000 1.0
C      1  0.4044610000000  0.6215470000000  0.4000970000000 1.0
C      1  0.4044610000000  0.3784530000000  0.5999030000000 1.0
C      1  0.5955390000000  0.3784520000000  0.4000970000000 1.0
C      1  0.4044610000000  0.6215480000000  0.5999030000000 1.0
C      1  0.5955390000000  0.6215470000000  0.4000970000000 1.0
C      1  0.6720130000000  0.6055700000000  0.5481310000000 1.0
C      1  0.3279870000000  0.6055700000000  0.4518690000000 1.0
C      1  0.6720130000000  0.3944300000000  0.5481310000000 1.0
C      1  0.3279880000000  0.3944300000000  0.4518690000000 1.0
C      1  0.3279880000000  0.6055700000000  0.5481310000000 1.0
C      1  0.6720130000000  0.6055700000000  0.4518690000000 1.0
C      1  0.3279870000000  0.3944300000000  0.5481310000000 1.0
C      1  0.6720120000000  0.3944300000000  0.4518690000000 1.0
C      1  0.4203600000000  0.4514200000000  0.2428560000000 1.0
C      1  0.5796400000000  0.4514200000000  0.7571440000000 1.0
C      1  0.4203600000000  0.5485800000000  0.2428560000000 1.0
C      1  0.5796400000000  0.5485800000000  0.7571440000000 1.0
C      1  0.5796400000000  0.4514200000000  0.2428560000000 1.0
C      1  0.4203600000000  0.4514200000000  0.7571440000000 1.0
C      1  0.5796400000000  0.5485800000000  0.2428560000000 1.0
C      1  0.4203600000000  0.5485800000000  0.7571440000000 1.0
C      1  0.2766450000000  0.4592120000000  0.5924290000000 1.0
C      1  0.7233550000000  0.4592120000000  0.4075710000000 1.0
C      1  0.2766450000000  0.5407880000000  0.5924290000000 1.0
C      1  0.7233550000000  0.5407880000000  0.4075710000000 1.0
C      1  0.7233550000000  0.4592120000000  0.5924290000000 1.0
C      1  0.2766450000000  0.4592120000000  0.4075710000000 1.0
C      1  0.7233550000000  0.5407880000000  0.5924290000000 1.0
C      1  0.2766450000000  0.5407880000000  0.4075710000000 1.0
C      1  0.4473230000000  0.7816380000000  0.5468740000000 1.0
C      1  0.5526770000000  0.7816370000000  0.4531260000000 1.0
C      1  0.4473230000000  0.2183630000000  0.5468740000000 1.0
C      1  0.5526770000000  0.2183620000000  0.4531260000000 1.0
C      1  0.5526770000000  0.7816380000000  0.5468740000000 1.0
C      1  0.4473230000000  0.7816370000000  0.4531260000000 1.0
C      1  0.5526770000000  0.2183630000000  0.5468740000000 1.0
C      1  0.4473230000000  0.2183620000000  0.4531260000000 1.0
C      1  0.5521710000000  0.5517970000000  0.6579640000000 1.0
C      1  0.4478290000000  0.5517970000000  0.3420360000000 1.0
C      1  0.5521710000000  0.4482030000000  0.6579640000000 1.0
C      1  0.4478290000000  0.4482030000000  0.3420360000000 1.0
C      1  0.4478290000000  0.5517970000000  0.6579640000000 1.0
C      1  0.5521710000000  0.5517970000000  0.3420360000000 1.0
C      1  0.4478290000000  0.4482030000000  0.6579640000000 1.0
C      1  0.5521710000000  0.4482030000000  0.3420360000000 1.0
C      1  0.5000000000000  0.5499970000000  0.1845470000000 1.0
C      1  0.5000000000000  0.5499970000000  0.8154530000000 1.0
C      1  0.5000000000000  0.4500030000000  0.8154530000000 1.0
C      1  0.5000000000000  0.4500030000000  0.1845470000000 1.0
END
