TITL C-2159255-4746-1243 -0.00203386318677743 3375 -405.974257776597 0 0 60 (C5v) n - 1
REM
REM in /scratch/bkarasulu/871
REM
REM
REM
REM
REM
REM ./C.cell (a2850807a9bf4ad07a5b6933b78d9264)
REM AIRSS Version 0.9.1 bugfix July 2018 build 013d7b7c2542+ Fri, 06 Jul 2018 19:26:36 +0100
REM compiler GCC version 9.2.1 20190827 (Red Hat 9.2.1-1)
REM options -cpp -mtune=generic -march=x86-64 -g -O0 -fpre-include=/usr/include/finclude/math-vector-fortran.h
REM seed -2004310167 1314803451 946554053 2111760612 934362554 -1157871351 -1117329165 79762688 -95076238 -493569370 -944353592 -395186951 -2146287009 1651200553 772600235 365791633 1192753820 1874754147 1907478326 -1900124499 1214917595 -1539917761 211555485 1872542702 -2027590216 -1472305264 -755364924 -94453257 -1583938479 2062400 487756455 -1719014449 125587270
REM
CELL 1.54180   15.00000   15.00000   15.00000   90.00000   90.00000   90.00000
LATT -1
SFAC C  
C      1  0.7076270000000  0.5156080000000  0.6295300000000 1.0
C      1  0.7076280000000  0.6280130000000  0.5251840000000 1.0
C      1  0.7076280000000  0.5635080000000  0.3860350000000 1.0
C      1  0.7076280000000  0.4112370000000  0.4043830000000 1.0
C      1  0.7076270000000  0.3816330000000  0.5548710000000 1.0
C      1  0.3518010000000  0.3068480000000  0.4122770000000 1.0
C      1  0.3517990000000  0.3568850000000  0.6565890000000 1.0
C      1  0.3517990000000  0.6047000000000  0.6845000000000 1.0
C      1  0.3517990000000  0.7078250000000  0.4574390000000 1.0
C      1  0.3518000000000  0.5237430000000  0.2891930000000 1.0
C      1  0.5160770000000  0.6061460000000  0.6852220000000 1.0
C      1  0.5160790000000  0.7089580000000  0.4562880000000 1.0
C      1  0.5160790000000  0.5229970000000  0.2877600000000 1.0
C      1  0.5160790000000  0.3052540000000  0.4125450000000 1.0
C      1  0.5160770000000  0.3566460000000  0.6581880000000 1.0
C      1  0.7438270000000  0.3599740000000  0.4724550000000 1.0
C      1  0.7438270000000  0.4305320000000  0.6246610000000 1.0
C      1  0.7438270000000  0.5970920000000  0.6045910000000 1.0
C      1  0.7438280000000  0.6294740000000  0.4399810000000 1.0
C      1  0.7438280000000  0.4829270000000  0.3583160000000 1.0
C      1  0.4349860000000  0.7553860000000  0.4375940000000 1.0
C      1  0.4349870000000  0.5195640000000  0.2378270000000 1.0
C      1  0.4349870000000  0.2567040000000  0.4003810000000 1.0
C      1  0.4349840000000  0.3300760000000  0.7006010000000 1.0
C      1  0.4349850000000  0.6382720000000  0.7235990000000 1.0
C      1  0.3645500000000  0.3597940000000  0.5649900000000 1.0
C      1  0.3645490000000  0.5184840000000  0.6534260000000 1.0
C      1  0.3645490000000  0.6516290000000  0.5298310000000 1.0
C      1  0.3645510000000  0.5752280000000  0.3650090000000 1.0
C      1  0.3645510000000  0.3948630000000  0.3867390000000 1.0
C      1  0.5265710000000  0.3994810000000  0.3917150000000 1.0
C      1  0.5265700000000  0.3659530000000  0.5621370000000 1.0
C      1  0.5265700000000  0.5176740000000  0.6466870000000 1.0
C      1  0.5265700000000  0.6449690000000  0.5285210000000 1.0
C      1  0.5265710000000  0.5719230000000  0.3709390000000 1.0
C      1  0.4395980000000  0.5843090000000  0.5165860000000 1.0
C      1  0.4395980000000  0.5418280000000  0.4249420000000 1.0
C      1  0.4395980000000  0.4415420000000  0.4370250000000 1.0
C      1  0.4395970000000  0.4220430000000  0.5361360000000 1.0
C      1  0.4395970000000  0.5102780000000  0.5853080000000 1.0
C      1  0.6121020000000  0.5851560000000  0.5167530000000 1.0
C      1  0.6121020000000  0.5422470000000  0.4241890000000 1.0
C      1  0.6121020000000  0.4409540000000  0.4363940000000 1.0
C      1  0.6121020000000  0.4212600000000  0.5365010000000 1.0
C      1  0.6121020000000  0.5103820000000  0.5861650000000 1.0
C      1  0.5160780000000  0.6684000000000  0.3687930000000 1.0
C      1  0.5160790000000  0.4272510000000  0.2992960000000 1.0
C      1  0.5160780000000  0.2866380000000  0.5071690000000 1.0
C      1  0.5160760000000  0.4408860000000  0.7051340000000 1.0
C      1  0.5160770000000  0.6768250000000  0.6196110000000 1.0
C      1  0.4349860000000  0.7126720000000  0.3454480000000 1.0
C      1  0.4349860000000  0.4187290000000  0.2499760000000 1.0
C      1  0.4349850000000  0.2370980000000  0.5000340000000 1.0
C      1  0.4349830000000  0.4187940000000  0.7500420000000 1.0
C      1  0.4349840000000  0.7127090000000  0.6544990000000 1.0
C      1  0.3517990000000  0.2880120000000  0.5080140000000 1.0
C      1  0.3517970000000  0.4421160000000  0.7040870000000 1.0
C      1  0.3517980000000  0.6762110000000  0.6181170000000 1.0
C      1  0.3518000000000  0.6667900000000  0.3689140000000 1.0
C      1  0.3518000000000  0.4268710000000  0.3008650000000 1.0
END
