TITL C-2158984-8299-711 -0.00207841933165236 3375 -401.620496743059 0 0 60 (C3) n - 1
REM
REM in /scratch/bkarasulu/869
REM
REM
REM
REM
REM
REM ./C.cell (a2850807a9bf4ad07a5b6933b78d9264)
REM AIRSS Version 0.9.1 bugfix July 2018 build 013d7b7c2542+ Fri, 06 Jul 2018 19:26:36 +0100
REM compiler GCC version 9.2.1 20190827 (Red Hat 9.2.1-1)
REM options -cpp -mtune=generic -march=x86-64 -g -O0 -fpre-include=/usr/include/finclude/math-vector-fortran.h
REM seed -1068967609 -1868972686 -1970187339 1298122886 736655197 650724314 -1640427937 1348353702 -898093609 -1808684484 -2058507103 12067750 -143676438 1007092405 -913999841 -1100896581 -1185081804 -1191789826 1287459478 314089668 -1760444957 2106867466 -819478331 771444829 -1707115142 1572920678 -1913231668 -1452412106 -1678786123 1603463774 1858597358 -1720958505 2083386810
REM
CELL 1.54180   15.00000   15.00000   15.00000   90.00000   90.00000   90.00000
LATT -1
SFAC C  
C      1  0.4756310000000  0.3789080000000  0.2431920000000 1.0
C      1  0.2897920000000  0.3788820000000  0.6494940000000 1.0
C      1  0.7345780000000  0.3788820000000  0.6072860000000 1.0
C      1  0.5867530000000  0.5340190000000  0.4796520000000 1.0
C      1  0.4390000000000  0.5340220000000  0.4350460000000 1.0
C      1  0.4742460000000  0.5340120000000  0.5853070000000 1.0
C      1  0.4121800000000  0.4389760000000  0.2810500000000 1.0
C      1  0.3542990000000  0.4389510000000  0.6855230000000 1.0
C      1  0.7335230000000  0.4389590000000  0.5334140000000 1.0
C      1  0.4596160000000  0.7061240000000  0.5920820000000 1.0
C      1  0.5999280000000  0.7061290000000  0.4889530000000 1.0
C      1  0.4404590000000  0.7061340000000  0.4190040000000 1.0
C      1  0.7326340000000  0.5985400000000  0.4843400000000 1.0
C      1  0.3701160000000  0.5985520000000  0.3063730000000 1.0
C      1  0.3972530000000  0.5985270000000  0.7093060000000 1.0
C      1  0.4911730000000  0.3468510000000  0.6437160000000 1.0
C      1  0.6288820000000  0.3468630000000  0.4357720000000 1.0
C      1  0.3799440000000  0.3468650000000  0.4204830000000 1.0
C      1  0.5296040000000  0.6745190000000  0.4281600000000 1.0
C      1  0.4229740000000  0.6745150000000  0.5102990000000 1.0
C      1  0.5474240000000  0.6745110000000  0.5615730000000 1.0
C      1  0.3435200000000  0.5314780000000  0.6635270000000 1.0
C      1  0.7198570000000  0.5314820000000  0.5537560000000 1.0
C      1  0.4366240000000  0.5315010000000  0.2827230000000 1.0
C      1  0.4200020000000  0.6738490000000  0.6645690000000 1.0
C      1  0.6825110000000  0.6738590000000  0.4870150000000 1.0
C      1  0.3974910000000  0.6738690000000  0.3484500000000 1.0
C      1  0.2540640000000  0.5375670000000  0.4256430000000 1.0
C      1  0.5585690000000  0.5375460000000  0.7501700000000 1.0
C      1  0.6873650000000  0.5375730000000  0.3241990000000 1.0
C      1  0.3591350000000  0.3292680000000  0.5149800000000 1.0
C      1  0.5834140000000  0.3292620000000  0.6144870000000 1.0
C      1  0.5574490000000  0.3292780000000  0.3705000000000 1.0
C      1  0.7096570000000  0.4051760000000  0.4414940000000 1.0
C      1  0.3445090000000  0.4051840000000  0.3476760000000 1.0
C      1  0.4458340000000  0.4051610000000  0.7108130000000 1.0
C      1  0.2867660000000  0.3345970000000  0.5746990000000 1.0
C      1  0.6713170000000  0.3345920000000  0.6473000000000 1.0
C      1  0.5419160000000  0.3346160000000  0.2779670000000 1.0
C      1  0.5654990000000  0.5773410000000  0.5678150000000 1.0
C      1  0.5259760000000  0.5773510000000  0.4093750000000 1.0
C      1  0.4085250000000  0.5773450000000  0.5228230000000 1.0
C      1  0.6513980000000  0.5570590000000  0.6188060000000 1.0
C      1  0.5271860000000  0.5570800000000  0.3094870000000 1.0
C      1  0.3214150000000  0.5570640000000  0.5717170000000 1.0
C      1  0.4418380000000  0.3485630000000  0.5650570000000 1.0
C      1  0.5854290000000  0.3485660000000  0.5178260000000 1.0
C      1  0.4727310000000  0.3485720000000  0.4170870000000 1.0
C      1  0.5561830000000  0.4407440000000  0.4970250000000 1.0
C      1  0.4693350000000  0.4407470000000  0.4528260000000 1.0
C      1  0.4744810000000  0.4407410000000  0.5501370000000 1.0
C      1  0.4878140000000  0.4718030000000  0.7598580000000 1.0
C      1  0.7311350000000  0.4718270000000  0.3806230000000 1.0
C      1  0.2810500000000  0.4718290000000  0.3595190000000 1.0
C      1  0.6117660000000  0.5545800000000  0.2773440000000 1.0
C      1  0.2512870000000  0.5545660000000  0.5145420000000 1.0
C      1  0.6369440000000  0.5545520000000  0.7081250000000 1.0
C      1  0.2870720000000  0.5600340000000  0.3380960000000 1.0
C      1  0.4662470000000  0.5600060000000  0.7653630000000 1.0
C      1  0.7466830000000  0.5600290000000  0.3965580000000 1.0
END
