TITL C-2159255-4746-9 -0.00206697163639087 3375 -411.608061757864 0 0 60 (C1) n - 1
REM
REM in /scratch/bkarasulu/871
REM
REM
REM
REM
REM
REM ./C.cell (a2850807a9bf4ad07a5b6933b78d9264)
REM AIRSS Version 0.9.1 bugfix July 2018 build 013d7b7c2542+ Fri, 06 Jul 2018 19:26:36 +0100
REM compiler GCC version 9.2.1 20190827 (Red Hat 9.2.1-1)
REM options -cpp -mtune=generic -march=x86-64 -g -O0 -fpre-include=/usr/include/finclude/math-vector-fortran.h
REM seed 2142817290 1524639931 -500981670 -1324887081 -1178629602 1470642814 1726082848 1237178932 -551429452 -1695236115 -1625853395 -575796889 -2120966879 760160837 -1436964104 1579318793 1445511324 -719378724 1637442042 329244039 1855489888 99156379 -65507740 1670984833 -745226176 179576942 -1869057912 -1338896678 -1864833588 -439219672 1477600598 -1961467485 -641063656
REM
CELL 1.54180   15.00000   15.00000   15.00000   90.00000   90.00000   90.00000
LATT -1
SFAC C  
C      1  0.4304130000000  0.2846530000000  0.6985220000000 1.0
C      1  0.4014770000000  0.6698340000000  0.3629400000000 1.0
C      1  0.6589530000000  0.3309060000000  0.5887620000000 1.0
C      1  0.5692810000000  0.7075980000000  0.4420790000000 1.0
C      1  0.6165910000000  0.6707340000000  0.5148670000000 1.0
C      1  0.4816940000000  0.5965190000000  0.5110760000000 1.0
C      1  0.4112400000000  0.7263710000000  0.6241140000000 1.0
C      1  0.4754230000000  0.5520840000000  0.2931790000000 1.0
C      1  0.3970640000000  0.4250060000000  0.3489790000000 1.0
C      1  0.6296960000000  0.5369930000000  0.6557730000000 1.0
C      1  0.3373360000000  0.6492360000000  0.5106720000000 1.0
C      1  0.3851300000000  0.2868680000000  0.5372280000000 1.0
C      1  0.3083810000000  0.4914750000000  0.4736450000000 1.0
C      1  0.5592620000000  0.5071490000000  0.3092510000000 1.0
C      1  0.7561060000000  0.4963990000000  0.3751100000000 1.0
C      1  0.6137540000000  0.5680970000000  0.3586420000000 1.0
C      1  0.4844650000000  0.7456800000000  0.4801200000000 1.0
C      1  0.6582850000000  0.4653360000000  0.5046000000000 1.0
C      1  0.5630490000000  0.4473670000000  0.4956340000000 1.0
C      1  0.3735720000000  0.4815200000000  0.6782390000000 1.0
C      1  0.6876140000000  0.3684030000000  0.5033250000000 1.0
C      1  0.3847680000000  0.7687920000000  0.3646780000000 1.0
C      1  0.4624700000000  0.2588380000000  0.4821420000000 1.0
C      1  0.3869880000000  0.3252200000000  0.6280220000000 1.0
C      1  0.5653040000000  0.4109860000000  0.3131710000000 1.0
C      1  0.6803620000000  0.6036430000000  0.5074160000000 1.0
C      1  0.4809870000000  0.3705840000000  0.3322090000000 1.0
C      1  0.3370160000000  0.5946280000000  0.3611830000000 1.0
C      1  0.4638280000000  0.4740530000000  0.7147650000000 1.0
C      1  0.5661560000000  0.6520290000000  0.3664350000000 1.0
C      1  0.4845150000000  0.6410800000000  0.3195450000000 1.0
C      1  0.4466010000000  0.3006550000000  0.3927550000000 1.0
C      1  0.5581910000000  0.5983580000000  0.6601550000000 1.0
C      1  0.6783720000000  0.3867300000000  0.6571810000000 1.0
C      1  0.4967270000000  0.4323410000000  0.5497920000000 1.0
C      1  0.6786830000000  0.5358190000000  0.5734110000000 1.0
C      1  0.6832880000000  0.5386850000000  0.4250360000000 1.0
C      1  0.5327720000000  0.4115660000000  0.7086050000000 1.0
C      1  0.5347900000000  0.2439370000000  0.5328030000000 1.0
C      1  0.3863920000000  0.5791260000000  0.6658780000000 1.0
C      1  0.2959230000000  0.5836830000000  0.4537310000000 1.0
C      1  0.7314260000000  0.4102750000000  0.3515660000000 1.0
C      1  0.5125690000000  0.3236260000000  0.6736960000000 1.0
C      1  0.5456960000000  0.6565060000000  0.5830070000000 1.0
C      1  0.4296310000000  0.8077770000000  0.4277800000000 1.0
C      1  0.4235680000000  0.6635680000000  0.4651790000000 1.0
C      1  0.3392700000000  0.4109110000000  0.6234660000000 1.0
C      1  0.3607690000000  0.3451850000000  0.3979570000000 1.0
C      1  0.4879630000000  0.7354390000000  0.5798390000000 1.0
C      1  0.6463520000000  0.3755530000000  0.3416500000000 1.0
C      1  0.4823080000000  0.5042930000000  0.4903870000000 1.0
C      1  0.5730850000000  0.2847510000000  0.6044620000000 1.0
C      1  0.3999090000000  0.4767850000000  0.4336090000000 1.0
C      1  0.6189690000000  0.4475860000000  0.6907110000000 1.0
C      1  0.2995340000000  0.4178220000000  0.5343500000000 1.0
C      1  0.3257510000000  0.3384530000000  0.4859430000000 1.0
C      1  0.4777120000000  0.5679540000000  0.6986960000000 1.0
C      1  0.3577960000000  0.6515420000000  0.6074960000000 1.0
C      1  0.6978390000000  0.3415700000000  0.4144910000000 1.0
C      1  0.3869320000000  0.5214250000000  0.3200430000000 1.0
END
