TITL C-2158988-7926-777 -0.00150709787998062 3375 -399.183020643859 0 0 60 (C3h) n - 1
REM
REM in /scratch/bkarasulu/868
REM
REM
REM
REM
REM
REM ./C.cell (a2850807a9bf4ad07a5b6933b78d9264)
REM AIRSS Version 0.9.1 bugfix July 2018 build 013d7b7c2542+ Fri, 06 Jul 2018 19:26:36 +0100
REM compiler GCC version 9.2.1 20190827 (Red Hat 9.2.1-1)
REM options -cpp -mtune=generic -march=x86-64 -g -O0 -fpre-include=/usr/include/finclude/math-vector-fortran.h
REM seed 219176231 926757549 -1842362662 -1351526580 -75542708 1356963367 -1315883192 1639577047 1268385079 1321479266 -569823502 -977565318 -1177057006 1611365053 -419546798 228280950 2146469826 -1545375961 1899476091 106498104 1862860455 1450017118 988980517 -1301125161 -502592593 498392325 1477848419 -651717402 -874840174 -2136590445 -579044587 -572414565 191167950
REM
CELL 1.54180   15.00000   15.00000   15.00000   90.00000   90.00000   90.00000
LATT -1
SFAC C  
C      1  0.3415520000000  0.4524420000000  0.3372780000000 1.0
C      1  0.7201460000000  0.4524420000000  0.4441400000000 1.0
C      1  0.4383040000000  0.4524420000000  0.7185820000000 1.0
C      1  0.3415520000000  0.5475580000000  0.3372780000000 1.0
C      1  0.7201460000000  0.5475580000000  0.4441400000000 1.0
C      1  0.4383040000000  0.5475580000000  0.7185820000000 1.0
C      1  0.4091650000000  0.4505180000000  0.4950940000000 1.0
C      1  0.5496660000000  0.4505180000000  0.4237870000000 1.0
C      1  0.5411700000000  0.4505180000000  0.5811180000000 1.0
C      1  0.4091650000000  0.5494820000000  0.4950940000000 1.0
C      1  0.5496660000000  0.5494820000000  0.4237870000000 1.0
C      1  0.5411700000000  0.5494820000000  0.5811180000000 1.0
C      1  0.5908060000000  0.5925730000000  0.6572840000000 1.0
C      1  0.3183850000000  0.5925730000000  0.4999990000000 1.0
C      1  0.5908080000000  0.5925730000000  0.3427170000000 1.0
C      1  0.5908060000000  0.4074270000000  0.6572840000000 1.0
C      1  0.3183850000000  0.4074270000000  0.4999990000000 1.0
C      1  0.5908080000000  0.4074270000000  0.3427170000000 1.0
C      1  0.4524110000000  0.5875640000000  0.5773140000000 1.0
C      1  0.4568390000000  0.5875650000000  0.4201290000000 1.0
C      1  0.5907510000000  0.5875640000000  0.5025560000000 1.0
C      1  0.4524110000000  0.4124360000000  0.5773140000000 1.0
C      1  0.4568390000000  0.4124350000000  0.4201290000000 1.0
C      1  0.5907510000000  0.4124360000000  0.5025560000000 1.0
C      1  0.6005480000000  0.3177460000000  0.4786680000000 1.0
C      1  0.4681990000000  0.3177470000000  0.5977430000000 1.0
C      1  0.4312520000000  0.3177460000000  0.4235890000000 1.0
C      1  0.6005480000000  0.6822540000000  0.4786680000000 1.0
C      1  0.4681990000000  0.6822530000000  0.5977430000000 1.0
C      1  0.4312520000000  0.6822540000000  0.4235890000000 1.0
C      1  0.4292590000000  0.5803420000000  0.3289460000000 1.0
C      1  0.6835080000000  0.5803420000000  0.5242620000000 1.0
C      1  0.3872350000000  0.5803420000000  0.6467910000000 1.0
C      1  0.4292590000000  0.4196580000000  0.3289460000000 1.0
C      1  0.6835080000000  0.4196580000000  0.5242620000000 1.0
C      1  0.3872350000000  0.4196580000000  0.6467910000000 1.0
C      1  0.6770780000000  0.4537470000000  0.6172890000000 1.0
C      1  0.3098860000000  0.4537460000000  0.5947090000000 1.0
C      1  0.5130370000000  0.4537460000000  0.2880010000000 1.0
C      1  0.6770780000000  0.5462530000000  0.6172890000000 1.0
C      1  0.3098860000000  0.5462540000000  0.5947090000000 1.0
C      1  0.5130370000000  0.5462540000000  0.2880010000000 1.0
C      1  0.5836430000000  0.3140430000000  0.3824710000000 1.0
C      1  0.5599610000000  0.3140440000000  0.6312020000000 1.0
C      1  0.3563950000000  0.3140430000000  0.4863270000000 1.0
C      1  0.5836430000000  0.6859570000000  0.3824710000000 1.0
C      1  0.5599610000000  0.6859560000000  0.6312020000000 1.0
C      1  0.3563950000000  0.6859570000000  0.4863270000000 1.0
C      1  0.5888330000000  0.2742130000000  0.5575980000000 1.0
C      1  0.4057020000000  0.2742120000000  0.5481320000000 1.0
C      1  0.5054650000000  0.2742120000000  0.3942700000000 1.0
C      1  0.5888330000000  0.7257870000000  0.5575980000000 1.0
C      1  0.4057020000000  0.7257880000000  0.5481320000000 1.0
C      1  0.5054650000000  0.7257880000000  0.3942700000000 1.0
C      1  0.6748900000000  0.5481660000000  0.3549690000000 1.0
C      1  0.5381560000000  0.5481660000000  0.7239770000000 1.0
C      1  0.2869540000000  0.5481660000000  0.4210560000000 1.0
C      1  0.6748900000000  0.4518340000000  0.3549690000000 1.0
C      1  0.5381560000000  0.4518340000000  0.7239770000000 1.0
C      1  0.2869540000000  0.4518340000000  0.4210560000000 1.0
END
