TITL C-2159252-5904-487 -0.00197667299576496 3375 -405.151017688359 0 0 60 (D3h) n - 1
REM
REM in /scratch/bkarasulu/870
REM
REM
REM
REM
REM
REM ./C.cell (a2850807a9bf4ad07a5b6933b78d9264)
REM AIRSS Version 0.9.1 bugfix July 2018 build 013d7b7c2542+ Fri, 06 Jul 2018 19:26:36 +0100
REM compiler GCC version 9.2.1 20190827 (Red Hat 9.2.1-1)
REM options -cpp -mtune=generic -march=x86-64 -g -O0 -fpre-include=/usr/include/finclude/math-vector-fortran.h
REM seed 1810421473 1850735184 1801306509 -1052351053 436213510 258464949 -1211885217 -1196204091 -176944978 565905958 447205774 -2128442952 -375861902 -1747185217 -812677982 1958105174 586523616 746491334 -1300755583 -1455450589 -1630294543 -1420683133 -1019364739 1736158390 1993646810 2111518796 -350446846 162397669 -773497399 607490107 -1813357064 764260942 1232802631
REM
CELL 1.54180   15.00000   15.00000   15.00000   90.00000   90.00000   90.00000
LATT -1
SFAC C  
C      1  0.3153840000000  0.4961670000000  0.4059010000000 1.0
C      1  0.5889880000000  0.6617990000000  0.4059000000000 1.0
C      1  0.5956270000000  0.3420350000000  0.4059000000000 1.0
C      1  0.3153840000000  0.4961670000000  0.5940990000000 1.0
C      1  0.5889880000000  0.6617990000000  0.5941000000000 1.0
C      1  0.5956270000000  0.3420350000000  0.5941000000000 1.0
C      1  0.6846160000000  0.4961670000000  0.4059010000000 1.0
C      1  0.4110120000000  0.6617990000000  0.4059000000000 1.0
C      1  0.4043730000000  0.3420350000000  0.4059000000000 1.0
C      1  0.6846160000000  0.4961670000000  0.5940990000000 1.0
C      1  0.4110120000000  0.6617990000000  0.5941000000000 1.0
C      1  0.4043730000000  0.3420350000000  0.5941000000000 1.0
C      1  0.3372330000000  0.5360870000000  0.6746610000000 1.0
C      1  0.6126350000000  0.6229160000000  0.6746610000000 1.0
C      1  0.5501310000000  0.3409950000000  0.6746610000000 1.0
C      1  0.3372330000000  0.5360870000000  0.3253390000000 1.0
C      1  0.6126350000000  0.6229160000000  0.3253390000000 1.0
C      1  0.5501310000000  0.3409950000000  0.3253390000000 1.0
C      1  0.6627670000000  0.5360870000000  0.6746610000000 1.0
C      1  0.3873650000000  0.6229160000000  0.6746610000000 1.0
C      1  0.4498690000000  0.3409950000000  0.6746610000000 1.0
C      1  0.6627670000000  0.5360870000000  0.3253390000000 1.0
C      1  0.3873650000000  0.6229160000000  0.3253390000000 1.0
C      1  0.4498690000000  0.3409950000000  0.3253390000000 1.0
C      1  0.5464580000000  0.5838780000000  0.2625780000000 1.0
C      1  0.5494120000000  0.4178260000000  0.2625790000000 1.0
C      1  0.4041300000000  0.4982930000000  0.2625790000000 1.0
C      1  0.5464580000000  0.5838780000000  0.7374220000000 1.0
C      1  0.5494120000000  0.4178260000000  0.7374210000000 1.0
C      1  0.4041300000000  0.4982930000000  0.7374210000000 1.0
C      1  0.4535420000000  0.5838780000000  0.2625780000000 1.0
C      1  0.4505880000000  0.4178260000000  0.2625790000000 1.0
C      1  0.5958700000000  0.4982930000000  0.2625790000000 1.0
C      1  0.4535420000000  0.5838780000000  0.7374220000000 1.0
C      1  0.4505880000000  0.4178260000000  0.7374210000000 1.0
C      1  0.5958700000000  0.4982930000000  0.7374210000000 1.0
C      1  0.5499910000000  0.5853380000000  0.4479040000000 1.0
C      1  0.5489090000000  0.4140380000000  0.4479040000000 1.0
C      1  0.4011000000000  0.5006250000000  0.4479040000000 1.0
C      1  0.5499910000000  0.5853380000000  0.5520960000000 1.0
C      1  0.5489090000000  0.4140380000000  0.5520960000000 1.0
C      1  0.4011000000000  0.5006250000000  0.5520960000000 1.0
C      1  0.4500090000000  0.5853380000000  0.4479040000000 1.0
C      1  0.4510910000000  0.4140380000000  0.4479040000000 1.0
C      1  0.5989000000000  0.5006250000000  0.4479040000000 1.0
C      1  0.4500090000000  0.5853380000000  0.5520960000000 1.0
C      1  0.4510910000000  0.4140380000000  0.5520960000000 1.0
C      1  0.5989000000000  0.5006250000000  0.5520960000000 1.0
C      1  0.4492890000000  0.7366710000000  0.4510120000000 1.0
C      1  0.7303180000000  0.4255830000000  0.4510120000000 1.0
C      1  0.3203940000000  0.3377490000000  0.4510120000000 1.0
C      1  0.4492890000000  0.7366710000000  0.5489880000000 1.0
C      1  0.7303180000000  0.4255830000000  0.5489880000000 1.0
C      1  0.3203940000000  0.3377490000000  0.5489880000000 1.0
C      1  0.5507110000000  0.7366710000000  0.4510120000000 1.0
C      1  0.2696820000000  0.4255830000000  0.4510120000000 1.0
C      1  0.6796060000000  0.3377490000000  0.4510120000000 1.0
C      1  0.5507110000000  0.7366710000000  0.5489880000000 1.0
C      1  0.2696820000000  0.4255830000000  0.5489880000000 1.0
C      1  0.6796060000000  0.3377490000000  0.5489880000000 1.0
END
