TITL C-2159255-4746-658 -0.00347671767905957 3375 -428.482221049841 0 0 60 (C2h) n - 1
REM
REM in /scratch/bkarasulu/871
REM
REM
REM
REM
REM
REM ./C.cell (a2850807a9bf4ad07a5b6933b78d9264)
REM AIRSS Version 0.9.1 bugfix July 2018 build 013d7b7c2542+ Fri, 06 Jul 2018 19:26:36 +0100
REM compiler GCC version 9.2.1 20190827 (Red Hat 9.2.1-1)
REM options -cpp -mtune=generic -march=x86-64 -g -O0 -fpre-include=/usr/include/finclude/math-vector-fortran.h
REM seed 1538669868 1168307257 1207584141 -1940917437 -2135940706 1704899354 -2109400205 -1111416400 1592682235 -851515400 -538319085 731185248 1846032510 -1919156497 -1503643353 -1814279094 -1132126660 -1835962196 501521180 569764797 -1172826898 -1668647260 -904957029 1308528079 -458249742 -1825945292 -1166452366 215861200 -12171571 -2115974667 1709376465 -144076084 -1309488114
REM
CELL 1.54180   15.00000   15.00000   15.00000   90.00000   90.00000   90.00000
LATT -1
SFAC C  
C      1  0.4492410000000  0.4414220000000  0.2976640000000 1.0
C      1  0.4523760000000  0.5583510000000  0.6983680000000 1.0
C      1  0.5476240000000  0.4416490000000  0.3016320000000 1.0
C      1  0.5507590000000  0.5585780000000  0.7023360000000 1.0
C      1  0.3005220000000  0.6148070000000  0.5162460000000 1.0
C      1  0.3016750000000  0.3835100000000  0.4817500000000 1.0
C      1  0.6983250000000  0.6164900000000  0.5182500000000 1.0
C      1  0.6994780000000  0.3851930000000  0.4837540000000 1.0
C      1  0.3856910000000  0.3788170000000  0.3433590000000 1.0
C      1  0.3875930000000  0.6198420000000  0.6537790000000 1.0
C      1  0.6124070000000  0.3801580000000  0.3462210000000 1.0
C      1  0.6143090000000  0.6211830000000  0.6566410000000 1.0
C      1  0.6102990000000  0.7090720000000  0.6127520000000 1.0
C      1  0.6123200000000  0.2913160000000  0.3881440000000 1.0
C      1  0.3876800000000  0.7086840000000  0.6118560000000 1.0
C      1  0.3897010000000  0.2909280000000  0.3872480000000 1.0
C      1  0.3183750000000  0.5976280000000  0.4191540000000 1.0
C      1  0.3218690000000  0.4010370000000  0.5780790000000 1.0
C      1  0.6781300000000  0.5989630000000  0.4219210000000 1.0
C      1  0.6816250000000  0.4023720000000  0.5808460000000 1.0
C      1  0.4607560000000  0.5035290000000  0.4750280000000 1.0
C      1  0.4996160000000  0.5768750000000  0.5114660000000 1.0
C      1  0.5003840000000  0.4231240000000  0.4885340000000 1.0
C      1  0.5392440000000  0.4964710000000  0.5249720000000 1.0
C      1  0.5487380000000  0.2088190000000  0.5093310000000 1.0
C      1  0.5460870000000  0.7919880000000  0.4916310000000 1.0
C      1  0.4539130000000  0.2080120000000  0.5083690000000 1.0
C      1  0.4512620000000  0.7911810000000  0.4906690000000 1.0
C      1  0.5489210000000  0.2236270000000  0.4068680000000 1.0
C      1  0.5459080000000  0.7762430000000  0.5939550000000 1.0
C      1  0.4540920000000  0.2237570000000  0.4060450000000 1.0
C      1  0.4510790000000  0.7763730000000  0.5931320000000 1.0
C      1  0.3875030000000  0.7317920000000  0.4529990000000 1.0
C      1  0.3898830000000  0.2666720000000  0.5459340000000 1.0
C      1  0.6101170000000  0.7333280000000  0.4540660000000 1.0
C      1  0.6124970000000  0.2682080000000  0.5470010000000 1.0
C      1  0.3398080000000  0.2981670000000  0.4694540000000 1.0
C      1  0.3378020000000  0.7003910000000  0.5294430000000 1.0
C      1  0.6621980000000  0.2996090000000  0.4705570000000 1.0
C      1  0.6601920000000  0.7018330000000  0.5305460000000 1.0
C      1  0.6157140000000  0.3395010000000  0.6146300000000 1.0
C      1  0.6110100000000  0.6605900000000  0.3880450000000 1.0
C      1  0.3889900000000  0.3394100000000  0.6119550000000 1.0
C      1  0.3842860000000  0.6604990000000  0.3853690000000 1.0
C      1  0.4483780000000  0.6145740000000  0.3234890000000 1.0
C      1  0.4532350000000  0.3858430000000  0.6726390000000 1.0
C      1  0.5467650000000  0.6141570000000  0.3273610000000 1.0
C      1  0.5516220000000  0.3854260000000  0.6765110000000 1.0
C      1  0.3327160000000  0.4799930000000  0.6285530000000 1.0
C      1  0.3279440000000  0.5189100000000  0.3674720000000 1.0
C      1  0.6720560000000  0.4810900000000  0.6325280000000 1.0
C      1  0.6672840000000  0.5200070000000  0.3714470000000 1.0
C      1  0.6789730000000  0.4298700000000  0.3967020000000 1.0
C      1  0.6807810000000  0.5715520000000  0.6060780000000 1.0
C      1  0.3192190000000  0.4284480000000  0.3939220000000 1.0
C      1  0.3210270000000  0.5701300000000  0.6032980000000 1.0
C      1  0.5924880000000  0.4720990000000  0.6901550000000 1.0
C      1  0.5883520000000  0.5279980000000  0.3152310000000 1.0
C      1  0.4116480000000  0.4720020000000  0.6847690000000 1.0
C      1  0.4075120000000  0.5279010000000  0.3098450000000 1.0
END
