TITL C-2159255-4746-1364 -0.00168799497223281 3375 -398.748328168452 0 0 60 (C3h) n - 1
REM
REM in /scratch/bkarasulu/871
REM
REM
REM
REM
REM
REM ./C.cell (a2850807a9bf4ad07a5b6933b78d9264)
REM AIRSS Version 0.9.1 bugfix July 2018 build 013d7b7c2542+ Fri, 06 Jul 2018 19:26:36 +0100
REM compiler GCC version 9.2.1 20190827 (Red Hat 9.2.1-1)
REM options -cpp -mtune=generic -march=x86-64 -g -O0 -fpre-include=/usr/include/finclude/math-vector-fortran.h
REM seed 1980250028 -1670090088 1333986347 1539521758 2091170827 -1247758324 -477931176 530269872 -275226702 658612351 909313648 -1552504528 918281500 -142009744 953259698 -1341826514 -1291149229 -967812654 -467934479 -2111428872 309947184 -1576283554 -1873971294 -608350364 227636326 -89336514 -1042738108 -517217386 -470162025 218392474 1658863789 79903414 175439772
REM
CELL 1.54180   15.00000   15.00000   15.00000   90.00000   90.00000   90.00000
LATT -1
SFAC C  
C      1  0.7065750000000  0.5490250000000  0.4500990000000 1.0
C      1  0.4399280000000  0.5490250000000  0.7038500000000 1.0
C      1  0.3534970000000  0.5490250000000  0.3460550000000 1.0
C      1  0.7065750000000  0.4509750000000  0.4500990000000 1.0
C      1  0.4399280000000  0.4509750000000  0.7038500000000 1.0
C      1  0.3534970000000  0.4509750000000  0.3460550000000 1.0
C      1  0.3519210000000  0.3330710000000  0.5956020000000 1.0
C      1  0.4912460000000  0.3330710000000  0.3239590000000 1.0
C      1  0.6568330000000  0.3330710000000  0.5804400000000 1.0
C      1  0.3519210000000  0.6669290000000  0.5956020000000 1.0
C      1  0.4912460000000  0.6669290000000  0.3239590000000 1.0
C      1  0.6568330000000  0.6669290000000  0.5804400000000 1.0
C      1  0.3619200000000  0.5483340000000  0.5052460000000 1.0
C      1  0.5644990000000  0.5483350000000  0.3777950000000 1.0
C      1  0.5735830000000  0.5483350000000  0.6169600000000 1.0
C      1  0.3619200000000  0.4516660000000  0.5052460000000 1.0
C      1  0.5644990000000  0.4516650000000  0.3777950000000 1.0
C      1  0.5735830000000  0.4516650000000  0.6169600000000 1.0
C      1  0.2978800000000  0.5933830000000  0.5680150000000 1.0
C      1  0.5421550000000  0.5933830000000  0.2909490000000 1.0
C      1  0.6599650000000  0.5933830000000  0.6410330000000 1.0
C      1  0.2978800000000  0.4066170000000  0.5680150000000 1.0
C      1  0.5421550000000  0.4066170000000  0.2909490000000 1.0
C      1  0.6599650000000  0.4066170000000  0.6410330000000 1.0
C      1  0.4011970000000  0.3592860000000  0.3433720000000 1.0
C      1  0.6850460000000  0.3592850000000  0.4927490000000 1.0
C      1  0.4137570000000  0.3592860000000  0.6638800000000 1.0
C      1  0.4011970000000  0.6407140000000  0.3433720000000 1.0
C      1  0.6850460000000  0.6407150000000  0.4927490000000 1.0
C      1  0.4137570000000  0.6407140000000  0.6638800000000 1.0
C      1  0.5271090000000  0.4112150000000  0.6945950000000 1.0
C      1  0.3179210000000  0.4112150000000  0.4261820000000 1.0
C      1  0.6549700000000  0.4112150000000  0.3792260000000 1.0
C      1  0.5271090000000  0.5887850000000  0.6945950000000 1.0
C      1  0.3179210000000  0.5887850000000  0.4261820000000 1.0
C      1  0.6549700000000  0.5887850000000  0.3792260000000 1.0
C      1  0.7196760000000  0.4565150000000  0.6871680000000 1.0
C      1  0.2280670000000  0.4565150000000  0.5966500000000 1.0
C      1  0.5522500000000  0.4565150000000  0.2161690000000 1.0
C      1  0.7196760000000  0.5434850000000  0.6871680000000 1.0
C      1  0.2280670000000  0.5434850000000  0.5966500000000 1.0
C      1  0.5522500000000  0.5434850000000  0.2161690000000 1.0
C      1  0.3936890000000  0.6919330000000  0.5091630000000 1.0
C      1  0.5452220000000  0.6919330000000  0.4033500000000 1.0
C      1  0.5610900000000  0.6919330000000  0.5874890000000 1.0
C      1  0.3936890000000  0.3080670000000  0.5091630000000 1.0
C      1  0.5452220000000  0.3080670000000  0.4033500000000 1.0
C      1  0.5610900000000  0.3080670000000  0.5874890000000 1.0
C      1  0.5347590000000  0.3943880000000  0.5448730000000 1.0
C      1  0.4437610000000  0.3943880000000  0.5076660000000 1.0
C      1  0.5214820000000  0.3943880000000  0.4474620000000 1.0
C      1  0.5347590000000  0.6056120000000  0.5448730000000 1.0
C      1  0.4437610000000  0.6056120000000  0.5076660000000 1.0
C      1  0.5214820000000  0.6056120000000  0.4474620000000 1.0
C      1  0.3542870000000  0.6762800000000  0.4215540000000 1.0
C      1  0.6407940000000  0.6762800000000  0.4130320000000 1.0
C      1  0.5049200000000  0.6762800000000  0.6654160000000 1.0
C      1  0.3542870000000  0.3237200000000  0.4215540000000 1.0
C      1  0.6407940000000  0.3237200000000  0.4130320000000 1.0
C      1  0.5049200000000  0.3237200000000  0.6654160000000 1.0
END
