TITL C-2159255-4746-1024 -0.00137604243211828 3375 -398.852099272906 0 0 60 (D2d) n - 1
REM
REM in /scratch/bkarasulu/871
REM
REM
REM
REM
REM
REM ./C.cell (a2850807a9bf4ad07a5b6933b78d9264)
REM AIRSS Version 0.9.1 bugfix July 2018 build 013d7b7c2542+ Fri, 06 Jul 2018 19:26:36 +0100
REM compiler GCC version 9.2.1 20190827 (Red Hat 9.2.1-1)
REM options -cpp -mtune=generic -march=x86-64 -g -O0 -fpre-include=/usr/include/finclude/math-vector-fortran.h
REM seed 374434270 -1344923407 -407135338 501636992 -652520766 1140048476 -375444346 456897513 -1205589717 1945819720 1874611870 -679874742 -222655891 -1731166458 631451314 -746188707 1544872685 1786861765 2001026778 -1370474964 -1773494626 -645265315 -995900993 1135829444 -307185580 -286380044 -366387030 -1641409966 -1305648291 -1606042594 -261437816 -271224382 949164920
REM
CELL 1.54180   15.00000   15.00000   15.00000   90.00000   90.00000   90.00000
LATT -1
SFAC C  
C      1  0.6861340000000  0.5799300000000  0.6269840000000 1.0
C      1  0.3138660000000  0.4200700000000  0.6269840000000 1.0
C      1  0.6861340000000  0.4200700000000  0.3730160000000 1.0
C      1  0.3138660000000  0.5799300000000  0.3730160000000 1.0
C      1  0.5799300000000  0.6861340000000  0.6269840000000 1.0
C      1  0.4200700000000  0.3138660000000  0.6269840000000 1.0
C      1  0.4200700000000  0.6861340000000  0.3730160000000 1.0
C      1  0.5799300000000  0.3138660000000  0.3730160000000 1.0
C      1  0.5672250000000  0.5004360000000  0.2992510000000 1.0
C      1  0.4327750000000  0.4995640000000  0.2992510000000 1.0
C      1  0.5672250000000  0.4995640000000  0.7007490000000 1.0
C      1  0.4327750000000  0.5004360000000  0.7007490000000 1.0
C      1  0.5004360000000  0.5672250000000  0.2992510000000 1.0
C      1  0.4995640000000  0.4327750000000  0.2992510000000 1.0
C      1  0.4995640000000  0.5672250000000  0.7007490000000 1.0
C      1  0.5004360000000  0.4327750000000  0.7007490000000 1.0
C      1  0.4949160000000  0.6362680000000  0.6287300000000 1.0
C      1  0.5050840000000  0.3637320000000  0.6287300000000 1.0
C      1  0.4949160000000  0.3637320000000  0.3712700000000 1.0
C      1  0.5050840000000  0.6362680000000  0.3712700000000 1.0
C      1  0.6362680000000  0.4949160000000  0.6287300000000 1.0
C      1  0.3637320000000  0.5050840000000  0.6287300000000 1.0
C      1  0.3637320000000  0.4949160000000  0.3712700000000 1.0
C      1  0.6362680000000  0.5050840000000  0.3712700000000 1.0
C      1  0.5010450000000  0.5714680000000  0.5499040000000 1.0
C      1  0.4989550000000  0.4285320000000  0.5499040000000 1.0
C      1  0.5010450000000  0.4285320000000  0.4500960000000 1.0
C      1  0.4989550000000  0.5714680000000  0.4500960000000 1.0
C      1  0.5714680000000  0.5010450000000  0.5499040000000 1.0
C      1  0.4285320000000  0.4989550000000  0.5499040000000 1.0
C      1  0.4285320000000  0.5010450000000  0.4500960000000 1.0
C      1  0.5714680000000  0.4989550000000  0.4500960000000 1.0
C      1  0.2906470000000  0.3671490000000  0.4567110000000 1.0
C      1  0.7093530000000  0.6328510000000  0.4567110000000 1.0
C      1  0.2906470000000  0.6328510000000  0.5432890000000 1.0
C      1  0.7093530000000  0.3671490000000  0.5432890000000 1.0
C      1  0.3671490000000  0.2906470000000  0.4567110000000 1.0
C      1  0.6328510000000  0.7093530000000  0.4567110000000 1.0
C      1  0.6328510000000  0.2906470000000  0.5432890000000 1.0
C      1  0.3671490000000  0.7093530000000  0.5432890000000 1.0
C      1  0.6663260000000  0.5976230000000  0.3800370000000 1.0
C      1  0.3336740000000  0.4023770000000  0.3800370000000 1.0
C      1  0.6663260000000  0.4023770000000  0.6199630000000 1.0
C      1  0.3336740000000  0.5976230000000  0.6199630000000 1.0
C      1  0.5976230000000  0.6663260000000  0.3800370000000 1.0
C      1  0.4023770000000  0.3336740000000  0.3800370000000 1.0
C      1  0.4023770000000  0.6663260000000  0.6199630000000 1.0
C      1  0.5976230000000  0.3336740000000  0.6199630000000 1.0
C      1  0.6326970000000  0.7048200000000  0.5486360000000 1.0
C      1  0.3673030000000  0.2951800000000  0.5486360000000 1.0
C      1  0.6326970000000  0.2951800000000  0.4513640000000 1.0
C      1  0.3673030000000  0.7048200000000  0.4513640000000 1.0
C      1  0.7048200000000  0.6326970000000  0.5486360000000 1.0
C      1  0.2951800000000  0.3673030000000  0.5486360000000 1.0
C      1  0.2951800000000  0.6326970000000  0.4513640000000 1.0
C      1  0.7048200000000  0.3673030000000  0.4513640000000 1.0
C      1  0.6516140000000  0.3483860000000  0.3192700000000 1.0
C      1  0.3483860000000  0.3483860000000  0.6807300000000 1.0
C      1  0.3483860000000  0.6516140000000  0.3192700000000 1.0
C      1  0.6516140000000  0.6516140000000  0.6807300000000 1.0
END
