TITL C-2159255-4746-1275 -0.00243905675006505 3375 -416.690943303427 0 0 60 (C6) n - 1
REM
REM in /scratch/bkarasulu/871
REM
REM
REM
REM
REM
REM ./C.cell (a2850807a9bf4ad07a5b6933b78d9264)
REM AIRSS Version 0.9.1 bugfix July 2018 build 013d7b7c2542+ Fri, 06 Jul 2018 19:26:36 +0100
REM compiler GCC version 9.2.1 20190827 (Red Hat 9.2.1-1)
REM options -cpp -mtune=generic -march=x86-64 -g -O0 -fpre-include=/usr/include/finclude/math-vector-fortran.h
REM seed 810808382 -1178932322 -187797621 1573864717 826926494 -860659128 545566901 -164518963 264804446 1229624957 -1320404967 1191663904 239713297 2096847340 -671123754 -236009634 -2122207789 856112354 -1231348298 -1698880002 1048846065 319839924 -880497247 423682969 -2005709203 -1105894366 1891102009 1185162876 637647660 1947416092 1089040507 -177646501 -2070379987
REM
CELL 1.54180   15.00000   15.00000   15.00000   90.00000   90.00000   90.00000
LATT -1
SFAC C  
C      1  0.7202550000000  0.5262240000000  0.5972640000000 1.0
C      1  0.7202550000000  0.5973450000000  0.5259210000000 1.0
C      1  0.7202560000000  0.5711210000000  0.4286570000000 1.0
C      1  0.7202550000000  0.4737750000000  0.4027360000000 1.0
C      1  0.7202550000000  0.4026550000000  0.4740790000000 1.0
C      1  0.7202560000000  0.4288790000000  0.5713430000000 1.0
C      1  0.2586850000000  0.4979310000000  0.5949470000000 1.0
C      1  0.2586850000000  0.5811920000000  0.5492660000000 1.0
C      1  0.2586850000000  0.5832620000000  0.4543190000000 1.0
C      1  0.2586850000000  0.5020690000000  0.4050530000000 1.0
C      1  0.2586850000000  0.4188080000000  0.4507340000000 1.0
C      1  0.2586850000000  0.4167380000000  0.5456810000000 1.0
C      1  0.5238260000000  0.2701000000000  0.4259480000000 1.0
C      1  0.5238250000000  0.3209200000000  0.6620730000000 1.0
C      1  0.5238260000000  0.5508190000000  0.7361260000000 1.0
C      1  0.5238260000000  0.7299000000000  0.5740520000000 1.0
C      1  0.5238250000000  0.6790800000000  0.3379270000000 1.0
C      1  0.5238260000000  0.4491810000000  0.2638740000000 1.0
C      1  0.6850600000000  0.5505890000000  0.6848740000000 1.0
C      1  0.6850600000000  0.6854000000000  0.5486240000000 1.0
C      1  0.6850600000000  0.6348100000000  0.3637520000000 1.0
C      1  0.6850600000000  0.4494110000000  0.3151260000000 1.0
C      1  0.6850600000000  0.3146000000000  0.4513760000000 1.0
C      1  0.6850600000000  0.3651900000000  0.6362480000000 1.0
C      1  0.5097970000000  0.6475140000000  0.6192310000000 1.0
C      1  0.5097970000000  0.6770150000000  0.4318660000000 1.0
C      1  0.5097970000000  0.5295010000000  0.3126330000000 1.0
C      1  0.5097970000000  0.3524860000000  0.3807690000000 1.0
C      1  0.5097970000000  0.3229850000000  0.5681340000000 1.0
C      1  0.5097970000000  0.4704990000000  0.6873670000000 1.0
C      1  0.4599680000000  0.3886400000000  0.6943670000000 1.0
C      1  0.4599680000000  0.6126460000000  0.6936250000000 1.0
C      1  0.4599680000000  0.7240080000000  0.4992570000000 1.0
C      1  0.4599680000000  0.6113600000000  0.3056330000000 1.0
C      1  0.4599680000000  0.3873540000000  0.3063750000000 1.0
C      1  0.4599680000000  0.2759920000000  0.5007430000000 1.0
C      1  0.3711260000000  0.4133450000000  0.3387540000000 1.0
C      1  0.3711260000000  0.3170290000000  0.4944220000000 1.0
C      1  0.3711260000000  0.4036850000000  0.6556680000000 1.0
C      1  0.3711260000000  0.5866550000000  0.6612460000000 1.0
C      1  0.3711260000000  0.6829710000000  0.5055780000000 1.0
C      1  0.3711260000000  0.5963150000000  0.3443320000000 1.0
C      1  0.3316830000000  0.3609130000000  0.5759370000000 1.0
C      1  0.3316830000000  0.4962200000000  0.6584210000000 1.0
C      1  0.3316830000000  0.6353070000000  0.5824840000000 1.0
C      1  0.3316830000000  0.6390870000000  0.4240630000000 1.0
C      1  0.3316830000000  0.5037800000000  0.3415790000000 1.0
C      1  0.3316830000000  0.3646940000000  0.4175160000000 1.0
C      1  0.5220600000000  0.4855900000000  0.5915620000000 1.0
C      1  0.5220600000000  0.5720900000000  0.5582600000000 1.0
C      1  0.5220600000000  0.5865000000000  0.4666980000000 1.0
C      1  0.5220600000000  0.5144100000000  0.4084380000000 1.0
C      1  0.5220600000000  0.4279100000000  0.4417400000000 1.0
C      1  0.5220600000000  0.4135000000000  0.5333020000000 1.0
C      1  0.6175400000000  0.5640600000000  0.7346130000000 1.0
C      1  0.6175400000000  0.7352110000000  0.5618270000000 1.0
C      1  0.6175390000000  0.6711480000000  0.3272170000000 1.0
C      1  0.6175400000000  0.4359400000000  0.2653870000000 1.0
C      1  0.6175400000000  0.2647890000000  0.4381730000000 1.0
C      1  0.6175390000000  0.3288520000000  0.6727830000000 1.0
END
