TITL C-2159255-4746-565 -0.0030777752841205 3375 -453.905056871505 0 0 60 (Ih) n - 1
REM
REM in /scratch/bkarasulu/871
REM
REM
REM
REM
REM
REM ./C.cell (a2850807a9bf4ad07a5b6933b78d9264)
REM AIRSS Version 0.9.1 bugfix July 2018 build 013d7b7c2542+ Fri, 06 Jul 2018 19:26:36 +0100
REM compiler GCC version 9.2.1 20190827 (Red Hat 9.2.1-1)
REM options -cpp -mtune=generic -march=x86-64 -g -O0 -fpre-include=/usr/include/finclude/math-vector-fortran.h
REM seed -1195267877 -453020268 -1566576078 -1334003128 -555029748 1656246883 1514978044 -496298992 -2064495570 1826940980 1898831496 -1513589857 -767290523 -1148009457 -69241639 1956556963 389293782 448345668 1045669644 -977554653 761875806 1632649515 189100116 -1376666744 -1212768711 -1179586611 1026278599 -1015135726 357714633 1200462132 1540765229 1729243372 1804097196
REM
CELL 1.54180   15.00000   15.00000   15.00000   90.00000   90.00000   90.00000
LATT -1
SFAC C  
C      1  0.5781370000000  0.4051300000000  0.2982050000000 1.0
C      1  0.4051300000000  0.2982050000000  0.5781370000000 1.0
C      1  0.2982050000000  0.5781370000000  0.4051300000000 1.0
C      1  0.5781370000000  0.5948700000000  0.7017950000000 1.0
C      1  0.4218630000000  0.4051300000000  0.7017950000000 1.0
C      1  0.4218630000000  0.5948700000000  0.2982050000000 1.0
C      1  0.4051300000000  0.7017950000000  0.4218630000000 1.0
C      1  0.5948700000000  0.2982050000000  0.4218630000000 1.0
C      1  0.5948700000000  0.7017950000000  0.5781370000000 1.0
C      1  0.2982050000000  0.4218630000000  0.5948700000000 1.0
C      1  0.7017950000000  0.5781370000000  0.5948700000000 1.0
C      1  0.7017950000000  0.4218630000000  0.4051300000000 1.0
C      1  0.4218630000000  0.4051300000000  0.2982050000000 1.0
C      1  0.5948700000000  0.2982050000000  0.5781370000000 1.0
C      1  0.7017950000000  0.5781370000000  0.4051300000000 1.0
C      1  0.4218630000000  0.5948700000000  0.7017950000000 1.0
C      1  0.5781370000000  0.4051300000000  0.7017950000000 1.0
C      1  0.5781370000000  0.5948700000000  0.2982050000000 1.0
C      1  0.5948700000000  0.7017950000000  0.4218630000000 1.0
C      1  0.4051300000000  0.2982050000000  0.4218630000000 1.0
C      1  0.4051300000000  0.7017950000000  0.5781370000000 1.0
C      1  0.7017950000000  0.4218630000000  0.5948700000000 1.0
C      1  0.2982050000000  0.5781370000000  0.5948700000000 1.0
C      1  0.2982050000000  0.4218630000000  0.4051300000000 1.0
C      1  0.3269930000000  0.3464970000000  0.4517090000000 1.0
C      1  0.3464970000000  0.4517090000000  0.3269930000000 1.0
C      1  0.4517090000000  0.3269930000000  0.3464970000000 1.0
C      1  0.3269930000000  0.6535030000000  0.5482910000000 1.0
C      1  0.6730070000000  0.3464970000000  0.5482910000000 1.0
C      1  0.6730070000000  0.6535030000000  0.4517090000000 1.0
C      1  0.3464970000000  0.5482910000000  0.6730070000000 1.0
C      1  0.6535030000000  0.4517090000000  0.6730070000000 1.0
C      1  0.6535030000000  0.5482910000000  0.3269930000000 1.0
C      1  0.4517090000000  0.6730070000000  0.6535030000000 1.0
C      1  0.5482910000000  0.3269930000000  0.6535030000000 1.0
C      1  0.5482910000000  0.6730070000000  0.3464970000000 1.0
C      1  0.6730070000000  0.3464970000000  0.4517090000000 1.0
C      1  0.6535030000000  0.4517090000000  0.3269930000000 1.0
C      1  0.5482910000000  0.3269930000000  0.3464970000000 1.0
C      1  0.6730070000000  0.6535030000000  0.5482910000000 1.0
C      1  0.3269930000000  0.3464970000000  0.5482910000000 1.0
C      1  0.3269930000000  0.6535030000000  0.4517090000000 1.0
C      1  0.6535030000000  0.5482910000000  0.6730070000000 1.0
C      1  0.3464970000000  0.4517090000000  0.6730070000000 1.0
C      1  0.3464970000000  0.5482910000000  0.3269930000000 1.0
C      1  0.5482910000000  0.6730070000000  0.6535030000000 1.0
C      1  0.4517090000000  0.3269930000000  0.6535030000000 1.0
C      1  0.4517090000000  0.6730070000000  0.3464970000000 1.0
C      1  0.5000000000000  0.4534210000000  0.7316420000000 1.0
C      1  0.4534210000000  0.7316420000000  0.5000000000000 1.0
C      1  0.5000000000000  0.5465790000000  0.2683580000000 1.0
C      1  0.5465790000000  0.2683580000000  0.5000000000000 1.0
C      1  0.7316420000000  0.5000000000000  0.4534210000000 1.0
C      1  0.7316420000000  0.5000000000000  0.5465790000000 1.0
C      1  0.2683580000000  0.5000000000000  0.5465790000000 1.0
C      1  0.2683580000000  0.5000000000000  0.4534210000000 1.0
C      1  0.5000000000000  0.4534210000000  0.2683580000000 1.0
C      1  0.5000000000000  0.5465790000000  0.7316420000000 1.0
C      1  0.4534210000000  0.2683580000000  0.5000000000000 1.0
C      1  0.5465790000000  0.7316420000000  0.5000000000000 1.0
END
