TITL C-2158984-8299-127 -0.00175107310027815 3375 -392.31111613146 0 0 60 (C3i) n - 1
REM
REM in /scratch/bkarasulu/869
REM
REM
REM
REM
REM
REM ./C.cell (a2850807a9bf4ad07a5b6933b78d9264)
REM AIRSS Version 0.9.1 bugfix July 2018 build 013d7b7c2542+ Fri, 06 Jul 2018 19:26:36 +0100
REM compiler GCC version 9.2.1 20190827 (Red Hat 9.2.1-1)
REM options -cpp -mtune=generic -march=x86-64 -g -O0 -fpre-include=/usr/include/finclude/math-vector-fortran.h
REM seed -1350775093 253642925 280542617 1954304796 -495005128 1529948084 -479660601 235236610 387916321 1245758872 1434873203 -1333425383 -579840093 -819284020 1129964061 1530136291 1161960231 -1084472213 625975561 -387729180 -2038083489 1294553986 -79430103 1308113531 -1632208217 1165969473 1118427524 -447101223 -1695693384 -1212277130 1153082068 -1547476120 461312550
REM
CELL 1.54180   15.00000   15.00000   15.00000   90.00000   90.00000   90.00000
LATT -1
SFAC C  
C      1  0.3098000000000  0.4276200000000  0.6227990000000 1.0
C      1  0.3422200000000  0.6285330000000  0.3772050000000 1.0
C      1  0.5324200000000  0.7009030000000  0.6228050000000 1.0
C      1  0.6902000000000  0.5723800000000  0.3772010000000 1.0
C      1  0.6577800000000  0.3714670000000  0.6227950000000 1.0
C      1  0.4675800000000  0.2990970000000  0.3771950000000 1.0
C      1  0.4941390000000  0.6354590000000  0.5510810000000 1.0
C      1  0.6143820000000  0.5728080000000  0.4489240000000 1.0
C      1  0.6202430000000  0.4373440000000  0.5510740000000 1.0
C      1  0.5058610000000  0.3645410000000  0.4489190000000 1.0
C      1  0.3856180000000  0.4271920000000  0.5510760000000 1.0
C      1  0.3797570000000  0.5626560000000  0.4489260000000 1.0
C      1  0.6738080000000  0.5082590000000  0.5048770000000 1.0
C      1  0.5940560000000  0.3536080000000  0.4951170000000 1.0
C      1  0.4202490000000  0.3453480000000  0.5048750000000 1.0
C      1  0.3261920000000  0.4917410000000  0.4951230000000 1.0
C      1  0.4059440000000  0.6463920000000  0.5048830000000 1.0
C      1  0.5797510000000  0.6546520000000  0.4951250000000 1.0
C      1  0.3814940000000  0.3110410000000  0.4163450000000 1.0
C      1  0.2771010000000  0.5081460000000  0.5836520000000 1.0
C      1  0.3956070000000  0.6971130000000  0.4163560000000 1.0
C      1  0.6185060000000  0.6889590000000  0.5836550000000 1.0
C      1  0.7228990000000  0.4918540000000  0.4163480000000 1.0
C      1  0.6043930000000  0.3028870000000  0.5836440000000 1.0
C      1  0.3395890000000  0.6606250000000  0.5758360000000 1.0
C      1  0.5589010000000  0.7192390000000  0.4241760000000 1.0
C      1  0.7193160000000  0.5586040000000  0.5758310000000 1.0
C      1  0.6604110000000  0.3393750000000  0.4241640000000 1.0
C      1  0.4410990000000  0.2807610000000  0.5758240000000 1.0
C      1  0.2806840000000  0.4413960000000  0.4241690000000 1.0
C      1  0.5519460000000  0.6903150000000  0.3376810000000 1.0
C      1  0.6907880000000  0.5501610000000  0.6623250000000 1.0
C      1  0.6388370000000  0.3598630000000  0.3376700000000 1.0
C      1  0.4480540000000  0.3096850000000  0.6623190000000 1.0
C      1  0.3092120000000  0.4498390000000  0.3376750000000 1.0
C      1  0.3611630000000  0.6401370000000  0.6623300000000 1.0
C      1  0.3151120000000  0.3658120000000  0.3807470000000 1.0
C      1  0.2913430000000  0.5930170000000  0.6192550000000 1.0
C      1  0.4762290000000  0.7272200000000  0.3807570000000 1.0
C      1  0.6848880000000  0.6341880000000  0.6192530000000 1.0
C      1  0.7086570000000  0.4069830000000  0.3807450000000 1.0
C      1  0.5237710000000  0.2727800000000  0.6192430000000 1.0
C      1  0.4250710000000  0.3915970000000  0.6988000000000 1.0
C      1  0.3686590000000  0.5107000000000  0.3011980000000 1.0
C      1  0.4435940000000  0.6190840000000  0.6988070000000 1.0
C      1  0.5749290000000  0.6084030000000  0.3012000000000 1.0
C      1  0.6313410000000  0.4893000000000  0.6988020000000 1.0
C      1  0.5564060000000  0.3809160000000  0.3011930000000 1.0
C      1  0.3333900000000  0.3976010000000  0.7035520000000 1.0
C      1  0.3280160000000  0.5930990000000  0.2964500000000 1.0
C      1  0.4946320000000  0.6954810000000  0.7035600000000 1.0
C      1  0.6666100000000  0.6023990000000  0.2964480000000 1.0
C      1  0.6719840000000  0.4069010000000  0.7035500000000 1.0
C      1  0.5053680000000  0.3045190000000  0.2964400000000 1.0
C      1  0.4865580000000  0.5551260000000  0.6180570000000 1.0
C      1  0.5410220000000  0.5392100000000  0.3819450000000 1.0
C      1  0.5544650000000  0.4840730000000  0.6180550000000 1.0
C      1  0.5134420000000  0.4448740000000  0.3819430000000 1.0
C      1  0.4589780000000  0.4607900000000  0.6180550000000 1.0
C      1  0.4455350000000  0.5159270000000  0.3819450000000 1.0
END
