TITL C-2158988-7926-653 -0.00222729088386076 3375 -421.435168785045 0 0 60 (C1) n - 1
REM
REM in /scratch/bkarasulu/868
REM
REM
REM
REM
REM
REM ./C.cell (a2850807a9bf4ad07a5b6933b78d9264)
REM AIRSS Version 0.9.1 bugfix July 2018 build 013d7b7c2542+ Fri, 06 Jul 2018 19:26:36 +0100
REM compiler GCC version 9.2.1 20190827 (Red Hat 9.2.1-1)
REM options -cpp -mtune=generic -march=x86-64 -g -O0 -fpre-include=/usr/include/finclude/math-vector-fortran.h
REM seed -1588780146 -1755683820 937789030 697533774 1739027150 246543474 849624829 -1810777417 -909104725 -1595667000 -986556123 -1334540350 490184894 -874528862 -1983136514 2043422559 -1667276538 10810307 812914053 1243068083 -1591619816 -202951210 -1677656199 -1705345381 -84861973 -1455226484 23931789 -647547057 -1062812370 -1114393711 1360790522 2101407733 902251368
REM
CELL 1.54180   15.00000   15.00000   15.00000   90.00000   90.00000   90.00000
LATT -1
SFAC C  
C      1  0.4604950000000  0.6543220000000  0.6800030000000 1.0
C      1  0.3384090000000  0.6472420000000  0.5813290000000 1.0
C      1  0.3404630000000  0.6379930000000  0.4240530000000 1.0
C      1  0.4623420000000  0.6380820000000  0.3231540000000 1.0
C      1  0.6159960000000  0.6309340000000  0.3599310000000 1.0
C      1  0.6790450000000  0.6314400000000  0.5023090000000 1.0
C      1  0.6116760000000  0.6473290000000  0.6438250000000 1.0
C      1  0.5696020000000  0.7066700000000  0.5830100000000 1.0
C      1  0.4771830000000  0.7118310000000  0.6054220000000 1.0
C      1  0.4024910000000  0.7085320000000  0.5459640000000 1.0
C      1  0.4050980000000  0.7011720000000  0.4515880000000 1.0
C      1  0.4795890000000  0.7001080000000  0.3914650000000 1.0
C      1  0.5729450000000  0.6976580000000  0.4116770000000 1.0
C      1  0.6111170000000  0.6980040000000  0.4979980000000 1.0
C      1  0.3394460000000  0.5201910000000  0.3028580000000 1.0
C      1  0.5643450000000  0.5288870000000  0.2331790000000 1.0
C      1  0.7122810000000  0.4928100000000  0.4173310000000 1.0
C      1  0.7098120000000  0.5199560000000  0.6239020000000 1.0
C      1  0.5508770000000  0.5200690000000  0.7365590000000 1.0
C      1  0.3515320000000  0.5380020000000  0.7138760000000 1.0
C      1  0.2625750000000  0.5110220000000  0.5144380000000 1.0
C      1  0.4165860000000  0.3002050000000  0.5723590000000 1.0
C      1  0.3932550000000  0.3025210000000  0.4810000000000 1.0
C      1  0.4604200000000  0.3082490000000  0.4151220000000 1.0
C      1  0.5527960000000  0.2897790000000  0.4001190000000 1.0
C      1  0.6152900000000  0.3069740000000  0.4730870000000 1.0
C      1  0.5921210000000  0.3166160000000  0.5659900000000 1.0
C      1  0.5049340000000  0.3139810000000  0.6096550000000 1.0
C      1  0.2700300000000  0.3688790000000  0.6076990000000 1.0
C      1  0.3049870000000  0.3795280000000  0.3733400000000 1.0
C      1  0.5078170000000  0.3656040000000  0.2570750000000 1.0
C      1  0.6394410000000  0.3846840000000  0.2931690000000 1.0
C      1  0.7227540000000  0.4331040000000  0.4948950000000 1.0
C      1  0.6396990000000  0.3777620000000  0.7107820000000 1.0
C      1  0.3990300000000  0.3791170000000  0.7043610000000 1.0
C      1  0.6886740000000  0.4126510000000  0.3660990000000 1.0
C      1  0.7094710000000  0.4370250000000  0.5859160000000 1.0
C      1  0.5621080000000  0.4294810000000  0.7220030000000 1.0
C      1  0.3643420000000  0.4583700000000  0.7346210000000 1.0
C      1  0.2740180000000  0.4193940000000  0.5277680000000 1.0
C      1  0.3488710000000  0.4283230000000  0.3096490000000 1.0
C      1  0.5734600000000  0.4401850000000  0.2395270000000 1.0
C      1  0.4919770000000  0.3645750000000  0.6901160000000 1.0
C      1  0.3514310000000  0.3352200000000  0.6335380000000 1.0
C      1  0.3162570000000  0.3588470000000  0.4587280000000 1.0
C      1  0.4370830000000  0.3875350000000  0.3137340000000 1.0
C      1  0.5746350000000  0.3174680000000  0.3119160000000 1.0
C      1  0.6906720000000  0.3571730000000  0.4459780000000 1.0
C      1  0.6549110000000  0.3652400000000  0.6207500000000 1.0
C      1  0.5503060000000  0.5993920000000  0.2916260000000 1.0
C      1  0.6857360000000  0.5848520000000  0.4169750000000 1.0
C      1  0.6827850000000  0.6006290000000  0.5955930000000 1.0
C      1  0.5456200000000  0.6049380000000  0.7044930000000 1.0
C      1  0.3709920000000  0.6168530000000  0.6701650000000 1.0
C      1  0.2959460000000  0.5955370000000  0.5061030000000 1.0
C      1  0.3697250000000  0.5985330000000  0.3366830000000 1.0
C      1  0.4803060000000  0.4039120000000  0.3990970000000 1.0
C      1  0.5065350000000  0.5418500000000  0.4674990000000 1.0
C      1  0.4600230000000  0.4652820000000  0.4642830000000 1.0
C      1  0.4914570000000  0.5023050000000  0.5412630000000 1.0
END
