TITL C-2158988-7926-111 -0.00201992096620221 3375 -402.610124975508 0 0 60 (C3) n - 1
REM
REM in /scratch/bkarasulu/868
REM
REM
REM
REM
REM
REM ./C.cell (a2850807a9bf4ad07a5b6933b78d9264)
REM AIRSS Version 0.9.1 bugfix July 2018 build 013d7b7c2542+ Fri, 06 Jul 2018 19:26:36 +0100
REM compiler GCC version 9.2.1 20190827 (Red Hat 9.2.1-1)
REM options -cpp -mtune=generic -march=x86-64 -g -O0 -fpre-include=/usr/include/finclude/math-vector-fortran.h
REM seed 1746014991 1364251275 -56630882 948716881 -373123886 971276832 1889112517 119133667 -634424266 179213631 -756488243 537295131 423921369 -880948567 -1388158978 1299583123 1720119214 -382480409 -1301432886 523619825 -1100619335 -1631633806 731598430 -1473908088 616901806 2133494535 679852854 489462576 -177288117 1902204012 -492762447 -1110357440 348370280
REM
CELL 1.54180   15.00000   15.00000   15.00000   90.00000   90.00000   90.00000
LATT -1
SFAC C  
C      1  0.4750600000000  0.2555560000000  0.3491640000000 1.0
C      1  0.7241700000000  0.6005910000000  0.3491560000000 1.0
C      1  0.3008070000000  0.6438100000000  0.3491180000000 1.0
C      1  0.4827670000000  0.4110630000000  0.4674890000000 1.0
C      1  0.5856390000000  0.5295370000000  0.4674870000000 1.0
C      1  0.4316020000000  0.5593900000000  0.4674710000000 1.0
C      1  0.2729970000000  0.5379890000000  0.5018140000000 1.0
C      1  0.5806010000000  0.2844140000000  0.5018620000000 1.0
C      1  0.6464000000000  0.6775970000000  0.5018310000000 1.0
C      1  0.3394710000000  0.6843930000000  0.4247620000000 1.0
C      1  0.4205800000000  0.2687640000000  0.4248040000000 1.0
C      1  0.7399690000000  0.5468210000000  0.4248070000000 1.0
C      1  0.5162810000000  0.5813530000000  0.5045930000000 1.0
C      1  0.4214070000000  0.4734240000000  0.5045970000000 1.0
C      1  0.5623100000000  0.4452250000000  0.5046130000000 1.0
C      1  0.4041550000000  0.3992630000000  0.7163580000000 1.0
C      1  0.6351520000000  0.4674070000000  0.7163730000000 1.0
C      1  0.4606430000000  0.6333890000000  0.7163420000000 1.0
C      1  0.5237080000000  0.3326250000000  0.3369080000000 1.0
C      1  0.6331040000000  0.6041860000000  0.3368930000000 1.0
C      1  0.3432280000000  0.5631450000000  0.3368730000000 1.0
C      1  0.5376990000000  0.6705600000000  0.7270020000000 1.0
C      1  0.3334390000000  0.4474170000000  0.7270040000000 1.0
C      1  0.6288070000000  0.3820900000000  0.7270350000000 1.0
C      1  0.4827940000000  0.7094290000000  0.5816620000000 1.0
C      1  0.3272310000000  0.3804020000000  0.5816790000000 1.0
C      1  0.6899540000000  0.4101940000000  0.5817070000000 1.0
C      1  0.4060410000000  0.3459120000000  0.6340030000000 1.0
C      1  0.6804140000000  0.4957000000000  0.6340140000000 1.0
C      1  0.4135120000000  0.6584230000000  0.6339760000000 1.0
C      1  0.6117090000000  0.3532870000000  0.3660220000000 1.0
C      1  0.5712090000000  0.6700730000000  0.3659900000000 1.0
C      1  0.3171140000000  0.4766050000000  0.3659870000000 1.0
C      1  0.3426770000000  0.6138740000000  0.4919180000000 1.0
C      1  0.4800430000000  0.3068120000000  0.4919560000000 1.0
C      1  0.6772820000000  0.5793080000000  0.4919490000000 1.0
C      1  0.7190500000000  0.4533570000000  0.4196390000000 1.0
C      1  0.4308730000000  0.7130080000000  0.4195910000000 1.0
C      1  0.3500980000000  0.3336130000000  0.4196190000000 1.0
C      1  0.4792990000000  0.6600190000000  0.3536270000000 1.0
C      1  0.3717770000000  0.4020340000000  0.3536410000000 1.0
C      1  0.6489600000000  0.4379080000000  0.3536610000000 1.0
C      1  0.6460620000000  0.3235580000000  0.4504410000000 1.0
C      1  0.5797740000000  0.7147070000000  0.4503990000000 1.0
C      1  0.2741750000000  0.4617230000000  0.4503980000000 1.0
C      1  0.3053460000000  0.3770830000000  0.4895850000000 1.0
C      1  0.7037750000000  0.3928810000000  0.4896170000000 1.0
C      1  0.4908810000000  0.7300360000000  0.4895680000000 1.0
C      1  0.2862430000000  0.5377610000000  0.5961600000000 1.0
C      1  0.5741720000000  0.2960170000000  0.5962050000000 1.0
C      1  0.6395610000000  0.6662470000000  0.5961760000000 1.0
C      1  0.3418930000000  0.6181670000000  0.5919700000000 1.0
C      1  0.4767130000000  0.3040030000000  0.5920090000000 1.0
C      1  0.6813710000000  0.5778490000000  0.5920010000000 1.0
C      1  0.2947110000000  0.4551320000000  0.6371840000000 1.0
C      1  0.6414940000000  0.3446760000000  0.6372220000000 1.0
C      1  0.5637610000000  0.7002330000000  0.6371830000000 1.0
C      1  0.5942310000000  0.5176470000000  0.3596350000000 1.0
C      1  0.4376080000000  0.5727540000000  0.3596160000000 1.0
C      1  0.4681960000000  0.4095610000000  0.3596330000000 1.0
END
