TITL C-2158984-8299-935 -0.00296759564923556 3375 -416.81292964361 0 0 60 (C2v) n - 1
REM
REM in /scratch/bkarasulu/869
REM
REM
REM
REM
REM
REM ./C.cell (a2850807a9bf4ad07a5b6933b78d9264)
REM AIRSS Version 0.9.1 bugfix July 2018 build 013d7b7c2542+ Fri, 06 Jul 2018 19:26:36 +0100
REM compiler GCC version 9.2.1 20190827 (Red Hat 9.2.1-1)
REM options -cpp -mtune=generic -march=x86-64 -g -O0 -fpre-include=/usr/include/finclude/math-vector-fortran.h
REM seed -1613641844 1894093484 813742182 -130956628 1609834511 1868098932 -1710315980 652631263 882339665 1191859111 -1866974151 2082422981 -1124973159 1561436668 431952787 -1641134830 -938769586 -1458988162 653341618 -1176763045 1512089428 2052467684 1415679721 -1503631921 1190137056 1621596995 -1683804930 78927366 1579755446 125071934 -1808618497 171713313 -1786946069
REM
CELL 1.54180   15.00000   15.00000   15.00000   90.00000   90.00000   90.00000
LATT -1
SFAC C  
C      1  0.3582930000000  0.6069160000000  0.3889170000000 1.0
C      1  0.3582930000000  0.3930840000000  0.6110830000000 1.0
C      1  0.3582930000000  0.6069160000000  0.6110830000000 1.0
C      1  0.3582930000000  0.3930840000000  0.3889170000000 1.0
C      1  0.4738140000000  0.7198180000000  0.5455860000000 1.0
C      1  0.4738140000000  0.2801820000000  0.4544140000000 1.0
C      1  0.4738140000000  0.7198180000000  0.4544140000000 1.0
C      1  0.4738140000000  0.2801820000000  0.5455860000000 1.0
C      1  0.5598150000000  0.7058690000000  0.4101310000000 1.0
C      1  0.5598150000000  0.2941310000000  0.5898690000000 1.0
C      1  0.5598150000000  0.7058690000000  0.5898690000000 1.0
C      1  0.5598150000000  0.2941310000000  0.4101310000000 1.0
C      1  0.4017190000000  0.5760100000000  0.2329350000000 1.0
C      1  0.4017190000000  0.4239900000000  0.7670650000000 1.0
C      1  0.4017190000000  0.5760100000000  0.7670650000000 1.0
C      1  0.4017190000000  0.4239900000000  0.2329350000000 1.0
C      1  0.3541190000000  0.5497160000000  0.6941850000000 1.0
C      1  0.3541190000000  0.4502840000000  0.3058150000000 1.0
C      1  0.3541190000000  0.5497160000000  0.3058150000000 1.0
C      1  0.3541190000000  0.4502840000000  0.6941850000000 1.0
C      1  0.2833760000000  0.6286360000000  0.5418400000000 1.0
C      1  0.2833760000000  0.3713640000000  0.4581600000000 1.0
C      1  0.2833760000000  0.6286360000000  0.4581600000000 1.0
C      1  0.2833760000000  0.3713640000000  0.5418400000000 1.0
C      1  0.4294890000000  0.3262910000000  0.6196230000000 1.0
C      1  0.4294890000000  0.6737090000000  0.3803770000000 1.0
C      1  0.4294890000000  0.3262910000000  0.3803770000000 1.0
C      1  0.4294890000000  0.6737090000000  0.6196230000000 1.0
C      1  0.5546790000000  0.5934520000000  0.7125760000000 1.0
C      1  0.5546790000000  0.4065480000000  0.2874240000000 1.0
C      1  0.5546790000000  0.5934520000000  0.2874240000000 1.0
C      1  0.5546790000000  0.4065480000000  0.7125760000000 1.0
C      1  0.6355580000000  0.6702930000000  0.4506250000000 1.0
C      1  0.6355580000000  0.3297070000000  0.5493750000000 1.0
C      1  0.6355580000000  0.6702930000000  0.5493750000000 1.0
C      1  0.6355580000000  0.3297070000000  0.4506250000000 1.0
C      1  0.6760290000000  0.5968860000000  0.5987890000000 1.0
C      1  0.6760290000000  0.4031140000000  0.4012110000000 1.0
C      1  0.6760290000000  0.5968860000000  0.4012110000000 1.0
C      1  0.6760290000000  0.4031140000000  0.5987890000000 1.0
C      1  0.5154150000000  0.3358920000000  0.3352400000000 1.0
C      1  0.5154150000000  0.6641080000000  0.6647600000000 1.0
C      1  0.5154150000000  0.3358920000000  0.6647600000000 1.0
C      1  0.5154150000000  0.6641080000000  0.3352400000000 1.0
C      1  0.7364350000000  0.5480330000000  0.4510450000000 1.0
C      1  0.7364350000000  0.4519670000000  0.5489550000000 1.0
C      1  0.7364350000000  0.5480330000000  0.5489550000000 1.0
C      1  0.7364350000000  0.4519670000000  0.4510450000000 1.0
C      1  0.6297480000000  0.5488480000000  0.3294980000000 1.0
C      1  0.6297480000000  0.4511520000000  0.6705020000000 1.0
C      1  0.6297480000000  0.5488480000000  0.6705020000000 1.0
C      1  0.6297480000000  0.4511520000000  0.3294980000000 1.0
C      1  0.3999030000000  0.5464650000000  0.4529440000000 1.0
C      1  0.3999030000000  0.4535350000000  0.5470560000000 1.0
C      1  0.3999030000000  0.5464650000000  0.5470560000000 1.0
C      1  0.3999030000000  0.4535350000000  0.4529440000000 1.0
C      1  0.4916090000000  0.4525670000000  0.7679000000000 1.0
C      1  0.4916090000000  0.5474330000000  0.2321000000000 1.0
C      1  0.4916090000000  0.4525670000000  0.2321000000000 1.0
C      1  0.4916090000000  0.5474330000000  0.7679000000000 1.0
END
