TITL C-2158988-7926-488 -0.00206784170756708 3375 -413.379691922324 0 0 60 (Ci) n - 1
REM
REM in /scratch/bkarasulu/868
REM
REM
REM
REM
REM
REM ./C.cell (a2850807a9bf4ad07a5b6933b78d9264)
REM AIRSS Version 0.9.1 bugfix July 2018 build 013d7b7c2542+ Fri, 06 Jul 2018 19:26:36 +0100
REM compiler GCC version 9.2.1 20190827 (Red Hat 9.2.1-1)
REM options -cpp -mtune=generic -march=x86-64 -g -O0 -fpre-include=/usr/include/finclude/math-vector-fortran.h
REM seed 1686858273 -1464350906 -318031220 -1367694726 -928769729 -62138831 -426472192 -1734576222 1547769657 270209039 -1800161323 -902315573 1658199584 1305263391 113105359 -1270194637 1837523306 1825463521 1663499622 1603960734 -958571231 -1659630517 -937613530 -1128894813 137669468 -1345114623 -470264572 20914509 1578341143 1503749250 1483106351 -1628873098 691376150
REM
CELL 1.54180   15.00000   15.00000   15.00000   90.00000   90.00000   90.00000
LATT -1
SFAC C  
C      1  0.4758310000000  0.5934640000000  0.4979810000000 1.0
C      1  0.5241690000000  0.4065360000000  0.5020190000000 1.0
C      1  0.6743610000000  0.3935970000000  0.5842850000000 1.0
C      1  0.3256390000000  0.6064030000000  0.4157150000000 1.0
C      1  0.4100740000000  0.5690430000000  0.2746160000000 1.0
C      1  0.5899260000000  0.4309570000000  0.7253840000000 1.0
C      1  0.4924000000000  0.3120540000000  0.4975020000000 1.0
C      1  0.5076000000000  0.6879460000000  0.5024980000000 1.0
C      1  0.5191950000000  0.7127660000000  0.5941020000000 1.0
C      1  0.4808050000000  0.2872340000000  0.4058980000000 1.0
C      1  0.6157040000000  0.3617710000000  0.6583340000000 1.0
C      1  0.3842960000000  0.6382290000000  0.3416660000000 1.0
C      1  0.6298530000000  0.5842770000000  0.3399170000000 1.0
C      1  0.3701470000000  0.4157230000000  0.6600830000000 1.0
C      1  0.6569110000000  0.4363320000000  0.4166110000000 1.0
C      1  0.3430890000000  0.5636680000000  0.5833890000000 1.0
C      1  0.4753750000000  0.2848820000000  0.5838920000000 1.0
C      1  0.5246250000000  0.7151180000000  0.4161080000000 1.0
C      1  0.3677850000000  0.6043950000000  0.5016970000000 1.0
C      1  0.6322150000000  0.3956050000000  0.4983030000000 1.0
C      1  0.4868820000000  0.4564470000000  0.4207990000000 1.0
C      1  0.5131180000000  0.5435530000000  0.5792010000000 1.0
C      1  0.6315640000000  0.6522380000000  0.6439240000000 1.0
C      1  0.3684360000000  0.3477620000000  0.3560760000000 1.0
C      1  0.7488520000000  0.4435830000000  0.6131120000000 1.0
C      1  0.2511480000000  0.5564170000000  0.3868880000000 1.0
C      1  0.4907650000000  0.5428070000000  0.4150620000000 1.0
C      1  0.5092350000000  0.4571930000000  0.5849380000000 1.0
C      1  0.5425270000000  0.3287350000000  0.3438770000000 1.0
C      1  0.4574730000000  0.6712650000000  0.6561230000000 1.0
C      1  0.4802420000000  0.3255330000000  0.7166990000000 1.0
C      1  0.5197580000000  0.6744670000000  0.2833010000000 1.0
C      1  0.3989460000000  0.2638330000000  0.3677320000000 1.0
C      1  0.6010540000000  0.7361670000000  0.6322680000000 1.0
C      1  0.4996650000000  0.6163160000000  0.7272940000000 1.0
C      1  0.5003350000000  0.3836840000000  0.2727060000000 1.0
C      1  0.4540670000000  0.7017730000000  0.3472550000000 1.0
C      1  0.5459330000000  0.2982270000000  0.6527450000000 1.0
C      1  0.5763910000000  0.4433640000000  0.2715210000000 1.0
C      1  0.4236090000000  0.5566360000000  0.7284790000000 1.0
C      1  0.4125860000000  0.3293450000000  0.6491120000000 1.0
C      1  0.5874140000000  0.6706550000000  0.3508880000000 1.0
C      1  0.3014580000000  0.4847320000000  0.3586840000000 1.0
C      1  0.6985420000000  0.5152680000000  0.6413160000000 1.0
C      1  0.3677910000000  0.4858860000000  0.2871890000000 1.0
C      1  0.6322090000000  0.5141140000000  0.7128110000000 1.0
C      1  0.3366420000000  0.4639240000000  0.5825910000000 1.0
C      1  0.6633580000000  0.5360760000000  0.4174090000000 1.0
C      1  0.4206400000000  0.4648630000000  0.7288110000000 1.0
C      1  0.5793600000000  0.5351370000000  0.2711890000000 1.0
C      1  0.4989270000000  0.4113250000000  0.7479840000000 1.0
C      1  0.5010730000000  0.5886750000000  0.2520160000000 1.0
C      1  0.5905640000000  0.5981320000000  0.7133550000000 1.0
C      1  0.4094360000000  0.4018680000000  0.2866450000000 1.0
C      1  0.6633600000000  0.5818730000000  0.4950520000000 1.0
C      1  0.3366400000000  0.4181270000000  0.5049480000000 1.0
C      1  0.3821640000000  0.6081810000000  0.6567210000000 1.0
C      1  0.6178360000000  0.3918190000000  0.3432790000000 1.0
C      1  0.6779400000000  0.5910260000000  0.5828190000000 1.0
C      1  0.3220600000000  0.4089740000000  0.4171810000000 1.0
END
