TITL C-2158988-7926-1008 -0.00416594443039672 3375 -434.245173504629 0 0 60 (D2d) n - 1
REM
REM in /scratch/bkarasulu/868
REM
REM
REM
REM
REM
REM ./C.cell (a2850807a9bf4ad07a5b6933b78d9264)
REM AIRSS Version 0.9.1 bugfix July 2018 build 013d7b7c2542+ Fri, 06 Jul 2018 19:26:36 +0100
REM compiler GCC version 9.2.1 20190827 (Red Hat 9.2.1-1)
REM options -cpp -mtune=generic -march=x86-64 -g -O0 -fpre-include=/usr/include/finclude/math-vector-fortran.h
REM seed 881018597 1521132269 -1531095112 1879931609 -1921274263 -1069115058 -2042580120 728180168 -1637925728 245303749 -1776810179 694798607 -175534525 -143313564 -251325493 -1981486044 333061042 919347481 1110663384 -2123854078 -1325699856 -456335493 -233423518 -786114602 -2061134351 1048317712 1032229862 413745409 600826994 -1593948248 -2041762387 -1576516394 1617703616
REM
CELL 1.54180   15.00000   15.00000   15.00000   90.00000   90.00000   90.00000
LATT -1
SFAC C  
C      1  0.7294340000000  0.4224720000000  0.4251780000000 1.0
C      1  0.6590610000000  0.5756420000000  0.3168890000000 1.0
C      1  0.5503240000000  0.4116390000000  0.2595360000000 1.0
C      1  0.4251780000000  0.5775280000000  0.2705660000000 1.0
C      1  0.3168890000000  0.4243580000000  0.3409390000000 1.0
C      1  0.2595360000000  0.5883610000000  0.4496760000000 1.0
C      1  0.2705660000000  0.4224720000000  0.5748220000000 1.0
C      1  0.3409390000000  0.5756420000000  0.6831110000000 1.0
C      1  0.4496760000000  0.4116390000000  0.7404640000000 1.0
C      1  0.5748220000000  0.5775280000000  0.7294340000000 1.0
C      1  0.6831110000000  0.4243580000000  0.6590610000000 1.0
C      1  0.7404640000000  0.5883610000000  0.5503240000000 1.0
C      1  0.5845210000000  0.6438780000000  0.4525390000000 1.0
C      1  0.5486650000000  0.3561220000000  0.4161670000000 1.0
C      1  0.5006810000000  0.6453090000000  0.4048490000000 1.0
C      1  0.4525390000000  0.3561220000000  0.4154790000000 1.0
C      1  0.4161670000000  0.6438780000000  0.4513350000000 1.0
C      1  0.4048490000000  0.3546910000000  0.4993190000000 1.0
C      1  0.4154790000000  0.6438780000000  0.5474610000000 1.0
C      1  0.4513350000000  0.3561220000000  0.5838330000000 1.0
C      1  0.4993190000000  0.6453090000000  0.5951510000000 1.0
C      1  0.5474610000000  0.3561220000000  0.5845210000000 1.0
C      1  0.5838330000000  0.6438780000000  0.5486650000000 1.0
C      1  0.5951510000000  0.3546910000000  0.5006810000000 1.0
C      1  0.3356330000000  0.6163940000000  0.4017590000000 1.0
C      1  0.3117130000000  0.3815560000000  0.4986530000000 1.0
C      1  0.3342440000000  0.6163940000000  0.5958800000000 1.0
C      1  0.4017590000000  0.3836060000000  0.6643670000000 1.0
C      1  0.4986530000000  0.6184440000000  0.6882870000000 1.0
C      1  0.5958800000000  0.3836060000000  0.6657560000000 1.0
C      1  0.6643670000000  0.6163940000000  0.5982410000000 1.0
C      1  0.6882870000000  0.3815560000000  0.5013470000000 1.0
C      1  0.6657560000000  0.6163940000000  0.4041200000000 1.0
C      1  0.5982410000000  0.3836060000000  0.3356330000000 1.0
C      1  0.5013470000000  0.6184440000000  0.3117130000000 1.0
C      1  0.4041200000000  0.3836060000000  0.3342440000000 1.0
C      1  0.3146320000000  0.4243570000000  0.6564250000000 1.0
C      1  0.4219030000000  0.5775270000000  0.7283390000000 1.0
C      1  0.5468790000000  0.4116400000000  0.7411590000000 1.0
C      1  0.6564250000000  0.5756430000000  0.6853680000000 1.0
C      1  0.7283390000000  0.4224730000000  0.5780970000000 1.0
C      1  0.7411590000000  0.5883600000000  0.4531210000000 1.0
C      1  0.6853670000000  0.4243570000000  0.3435750000000 1.0
C      1  0.5780970000000  0.5775270000000  0.2716610000000 1.0
C      1  0.4531210000000  0.4116400000000  0.2588410000000 1.0
C      1  0.3435750000000  0.5756430000000  0.3146320000000 1.0
C      1  0.2716610000000  0.4224730000000  0.4219030000000 1.0
C      1  0.2588410000000  0.5883600000000  0.5468790000000 1.0
C      1  0.7780350000000  0.4992820000000  0.4527700000000 1.0
C      1  0.7096250000000  0.5000000000000  0.2933520000000 1.0
C      1  0.5512030000000  0.5007180000000  0.2226690000000 1.0
C      1  0.4527700000000  0.5007180000000  0.2219650000000 1.0
C      1  0.2933520000000  0.5000000000000  0.2903750000000 1.0
C      1  0.2226690000000  0.4992820000000  0.4487970000000 1.0
C      1  0.2219650000000  0.4992820000000  0.5472300000000 1.0
C      1  0.2903750000000  0.5000000000000  0.7066480000000 1.0
C      1  0.4487970000000  0.5007180000000  0.7773310000000 1.0
C      1  0.5472300000000  0.5007180000000  0.7780350000000 1.0
C      1  0.7066480000000  0.5000000000000  0.7096250000000 1.0
C      1  0.7773310000000  0.4992820000000  0.5512030000000 1.0
END
