TITL C-2159255-4746-233 -0.00364746278705745 3375 -392.013622572716 0 0 60 (Cs) n - 1
REM
REM in /scratch/bkarasulu/871
REM
REM
REM
REM
REM
REM ./C.cell (a2850807a9bf4ad07a5b6933b78d9264)
REM AIRSS Version 0.9.1 bugfix July 2018 build 013d7b7c2542+ Fri, 06 Jul 2018 19:26:36 +0100
REM compiler GCC version 9.2.1 20190827 (Red Hat 9.2.1-1)
REM options -cpp -mtune=generic -march=x86-64 -g -O0 -fpre-include=/usr/include/finclude/math-vector-fortran.h
REM seed -217106580 835764368 228426834 985202923 989417489 -1942764747 -127836664 1981656088 382235699 -982250823 -305545381 1038400575 1073689828 -395266425 2001038885 1723334601 -72809469 1655207361 1819823122 -19729124 1840315660 1559373095 -476592001 1919086642 1918578378 1519389511 -799044719 688226288 450540762 845378232 429259203 1554155376 535008198
REM
CELL 1.54180   15.00000   15.00000   15.00000   90.00000   90.00000   90.00000
LATT -1
SFAC C  
C      1  0.3947410000000  0.4250920000000  0.6857690000000 1.0
C      1  0.3955610000000  0.3080040000000  0.5631670000000 1.0
C      1  0.3713040000000  0.2782810000000  0.4768690000000 1.0
C      1  0.3955740000000  0.3238720000000  0.3978020000000 1.0
C      1  0.3947620000000  0.4621410000000  0.2997030000000 1.0
C      1  0.3678400000000  0.5507220000000  0.2819350000000 1.0
C      1  0.3941190000000  0.6242220000000  0.3344790000000 1.0
C      1  0.3968950000000  0.7168470000000  0.4708270000000 1.0
C      1  0.3968940000000  0.7076960000000  0.5662100000000 1.0
C      1  0.3941000000000  0.5908300000000  0.6824570000000 1.0
C      1  0.3678150000000  0.5086780000000  0.7200570000000 1.0
C      1  0.5268370000000  0.3402000000000  0.4828220000000 1.0
C      1  0.4865520000000  0.3636560000000  0.3938030000000 1.0
C      1  0.4866710000000  0.4468850000000  0.3344030000000 1.0
C      1  0.5289210000000  0.5387050000000  0.3419240000000 1.0
C      1  0.4847520000000  0.6221540000000  0.3752700000000 1.0
C      1  0.4876330000000  0.6727330000000  0.4622560000000 1.0
C      1  0.4876320000000  0.6627580000000  0.5662480000000 1.0
C      1  0.4847390000000  0.5965580000000  0.6420290000000 1.0
C      1  0.5289030000000  0.5082890000000  0.6589000000000 1.0
C      1  0.4866550000000  0.4167140000000  0.6488130000000 1.0
C      1  0.4865390000000  0.3463000000000  0.5746680000000 1.0
C      1  0.3147680000000  0.6555970000000  0.5621630000000 1.0
C      1  0.3092120000000  0.5964670000000  0.6312750000000 1.0
C      1  0.2843170000000  0.5076560000000  0.6595040000000 1.0
C      1  0.3082090000000  0.4167730000000  0.6378520000000 1.0
C      1  0.3073470000000  0.3519690000000  0.5738290000000 1.0
C      1  0.2840660000000  0.3329620000000  0.4821100000000 1.0
C      1  0.3073610000000  0.3690640000000  0.3956840000000 1.0
C      1  0.3082240000000  0.4448620000000  0.3451530000000 1.0
C      1  0.2843340000000  0.5382050000000  0.3411800000000 1.0
C      1  0.3092260000000  0.6200250000000  0.3857890000000 1.0
C      1  0.3147690000000  0.6649310000000  0.4648850000000 1.0
C      1  0.5461800000000  0.2924940000000  0.3332280000000 1.0
C      1  0.5459260000000  0.4135100000000  0.2464370000000 1.0
C      1  0.5659640000000  0.5609330000000  0.2549870000000 1.0
C      1  0.5384320000000  0.6952860000000  0.3129770000000 1.0
C      1  0.5497980000000  0.7530190000000  0.4485970000000 1.0
C      1  0.5498220000000  0.7389660000000  0.5949210000000 1.0
C      1  0.5384250000000  0.6565050000000  0.7170970000000 1.0
C      1  0.5659310000000  0.5135740000000  0.7484840000000 1.0
C      1  0.5459080000000  0.3672150000000  0.7288250000000 1.0
C      1  0.5461470000000  0.2649050000000  0.6206100000000 1.0
C      1  0.5647060000000  0.2516190000000  0.4743240000000 1.0
C      1  0.5744570000000  0.6525060000000  0.2424370000000 1.0
C      1  0.5577850000000  0.7694230000000  0.3593570000000 1.0
C      1  0.5835300000000  0.7880410000000  0.5257890000000 1.0
C      1  0.5578600000000  0.7380870000000  0.6856470000000 1.0
C      1  0.5744140000000  0.6010840000000  0.7782310000000 1.0
C      1  0.5777740000000  0.4297540000000  0.7855570000000 1.0
C      1  0.5685860000000  0.2828120000000  0.7063280000000 1.0
C      1  0.5772430000000  0.2104970000000  0.5559440000000 1.0
C      1  0.5772760000000  0.2267860000000  0.3863720000000 1.0
C      1  0.5686140000000  0.3263720000000  0.2524770000000 1.0
C      1  0.5777990000000  0.4856980000000  0.2026410000000 1.0
C      1  0.4126840000000  0.4946790000000  0.4976380000000 1.0
C      1  0.6624800000000  0.4892340000000  0.4971320000000 1.0
C      1  0.4943420000000  0.5041910000000  0.4985570000000 1.0
C      1  0.5799410000000  0.5044950000000  0.4985900000000 1.0
C      1  0.7479850000000  0.4781070000000  0.4960700000000 1.0
END
