TITL C-2159255-4746-1092 -0.00154557564713501 3375 -409.866908298562 0 0 60 (C2h) n - 1
REM
REM in /scratch/bkarasulu/871
REM
REM
REM
REM
REM
REM ./C.cell (a2850807a9bf4ad07a5b6933b78d9264)
REM AIRSS Version 0.9.1 bugfix July 2018 build 013d7b7c2542+ Fri, 06 Jul 2018 19:26:36 +0100
REM compiler GCC version 9.2.1 20190827 (Red Hat 9.2.1-1)
REM options -cpp -mtune=generic -march=x86-64 -g -O0 -fpre-include=/usr/include/finclude/math-vector-fortran.h
REM seed 1055480937 -512520147 -361829700 1509190783 -819137226 83717319 -1911669319 -1534985359 1749815097 -439956115 -708966489 -680306197 -1070565918 -268808670 580453814 286660816 -878204491 -142337932 -355102270 203730560 -918401518 453716515 -841292320 1189213803 1148759716 -1380452508 -823049200 51615066 -1287527134 -1125894400 -1003218629 -434350272 2036615763
REM
CELL 1.54180   15.00000   15.00000   15.00000   90.00000   90.00000   90.00000
LATT -1
SFAC C  
C      1  0.5664300000000  0.5988280000000  0.4407020000000 1.0
C      1  0.5709570000000  0.4557200000000  0.5021960000000 1.0
C      1  0.5837800000000  0.5544650000000  0.5242190000000 1.0
C      1  0.5145470000000  0.4455880000000  0.5860220000000 1.0
C      1  0.4940800000000  0.5443150000000  0.5707220000000 1.0
C      1  0.4335700000000  0.4011720000000  0.5592980000000 1.0
C      1  0.4290430000000  0.5442800000000  0.4978040000000 1.0
C      1  0.4162200000000  0.4455350000000  0.4757810000000 1.0
C      1  0.4854530000000  0.5544120000000  0.4139780000000 1.0
C      1  0.5059200000000  0.4556850000000  0.4292780000000 1.0
C      1  0.4639340000000  0.6954250000000  0.4218060000000 1.0
C      1  0.5142440000000  0.3120660000000  0.4224070000000 1.0
C      1  0.5554110000000  0.6933250000000  0.4504840000000 1.0
C      1  0.5788010000000  0.3121010000000  0.4947860000000 1.0
C      1  0.5734850000000  0.6954850000000  0.5446310000000 1.0
C      1  0.5360660000000  0.3045750000000  0.5781940000000 1.0
C      1  0.4857560000000  0.6879340000000  0.5775930000000 1.0
C      1  0.4445890000000  0.3066750000000  0.5495160000000 1.0
C      1  0.4211990000000  0.6878990000000  0.5052140000000 1.0
C      1  0.4265150000000  0.3045150000000  0.4553690000000 1.0
C      1  0.4388030000000  0.6219480000000  0.3527020000000 1.0
C      1  0.5272410000000  0.3844570000000  0.3576230000000 1.0
C      1  0.6346590000000  0.6185450000000  0.3798380000000 1.0
C      1  0.6446090000000  0.3845210000000  0.4892120000000 1.0
C      1  0.6393120000000  0.6220560000000  0.5775060000000 1.0
C      1  0.5611970000000  0.3780520000000  0.6472980000000 1.0
C      1  0.4727590000000  0.6155430000000  0.6423770000000 1.0
C      1  0.3653410000000  0.3814550000000  0.6201620000000 1.0
C      1  0.3553910000000  0.6154790000000  0.5107880000000 1.0
C      1  0.3606880000000  0.3779440000000  0.4224940000000 1.0
C      1  0.5013830000000  0.4069020000000  0.7173870000000 1.0
C      1  0.3854130000000  0.5757600000000  0.6648500000000 1.0
C      1  0.2881300000000  0.4084980000000  0.5737950000000 1.0
C      1  0.3030960000000  0.5789980000000  0.4377050000000 1.0
C      1  0.3720660000000  0.4180650000000  0.3317640000000 1.0
C      1  0.4986170000000  0.5930980000000  0.2826130000000 1.0
C      1  0.6145870000000  0.4242400000000  0.3351500000000 1.0
C      1  0.7118700000000  0.5915020000000  0.4262050000000 1.0
C      1  0.6969040000000  0.4210020000000  0.5622950000000 1.0
C      1  0.6279340000000  0.5819350000000  0.6682360000000 1.0
C      1  0.6616900000000  0.5000880000000  0.6812810000000 1.0
C      1  0.4999590000000  0.5012790000000  0.7403520000000 1.0
C      1  0.4034470000000  0.5024990000000  0.7194590000000 1.0
C      1  0.2709710000000  0.5024270000000  0.5709330000000 1.0
C      1  0.2612060000000  0.5011490000000  0.4726700000000 1.0
C      1  0.3383100000000  0.4999120000000  0.3187190000000 1.0
C      1  0.5000410000000  0.4987210000000  0.2596480000000 1.0
C      1  0.5965530000000  0.4975010000000  0.2805410000000 1.0
C      1  0.7290290000000  0.4975730000000  0.4290670000000 1.0
C      1  0.7387940000000  0.4988510000000  0.5273300000000 1.0
C      1  0.2842290000000  0.4067850000000  0.4739220000000 1.0
C      1  0.3473870000000  0.5817830000000  0.3536960000000 1.0
C      1  0.4605710000000  0.4208740000000  0.2973260000000 1.0
C      1  0.5973980000000  0.5914400000000  0.2978630000000 1.0
C      1  0.6768640000000  0.4242740000000  0.4049720000000 1.0
C      1  0.7157710000000  0.5932150000000  0.5260780000000 1.0
C      1  0.6526130000000  0.4182170000000  0.6463040000000 1.0
C      1  0.5394290000000  0.5791260000000  0.7026740000000 1.0
C      1  0.4026020000000  0.4085600000000  0.7021370000000 1.0
C      1  0.3231360000000  0.5757260000000  0.5950280000000 1.0
END
