TITL C-2159252-5904-15 -0.00251412236818803 3375 -419.850267661138 0 0 60 (C5v) n - 1
REM
REM in /scratch/bkarasulu/870
REM
REM
REM
REM
REM
REM ./C.cell (a2850807a9bf4ad07a5b6933b78d9264)
REM AIRSS Version 0.9.1 bugfix July 2018 build 013d7b7c2542+ Fri, 06 Jul 2018 19:26:36 +0100
REM compiler GCC version 9.2.1 20190827 (Red Hat 9.2.1-1)
REM options -cpp -mtune=generic -march=x86-64 -g -O0 -fpre-include=/usr/include/finclude/math-vector-fortran.h
REM seed -1259016913 1587186215 1916246708 -1945084410 -974201217 -1428264828 -276772038 -93032133 732344406 -22108762 1623000526 -618985746 -1972413459 1101928224 -1446721478 -591792965 602877790 -914477070 -1742373855 1640269200 -1017381956 336671454 1559986790 951906752 -808151862 727330173 -508994157 2016183706 1213535757 -1932252493 -204118713 -1968262591 -1578584836
REM
CELL 1.54180   15.00000   15.00000   15.00000   90.00000   90.00000   90.00000
LATT -1
SFAC C  
C      1  0.6552110000000  0.4527520000000  0.6622510000000 1.0
C      1  0.5928950000000  0.6330110000000  0.6622540000000 1.0
C      1  0.4022020000000  0.6294490000000  0.6622540000000 1.0
C      1  0.3466620000000  0.4469890000000  0.6622510000000 1.0
C      1  0.5030300000000  0.3377830000000  0.6622480000000 1.0
C      1  0.6897730000000  0.3880630000000  0.4392510000000 1.0
C      1  0.6651040000000  0.6458950000000  0.4392560000000 1.0
C      1  0.4122660000000  0.7021070000000  0.4392580000000 1.0
C      1  0.2806710000000  0.4790160000000  0.4392530000000 1.0
C      1  0.4521830000000  0.2849250000000  0.4392490000000 1.0
C      1  0.6586730000000  0.3689680000000  0.6147000000000 1.0
C      1  0.6736500000000  0.6104140000000  0.6147060000000 1.0
C      1  0.4486490000000  0.6992690000000  0.6147080000000 1.0
C      1  0.2946120000000  0.5127380000000  0.6147050000000 1.0
C      1  0.4244150000000  0.3086000000000  0.6146990000000 1.0
C      1  0.3223470000000  0.6038510000000  0.6147060000000 1.0
C      1  0.3463320000000  0.3631330000000  0.6147010000000 1.0
C      1  0.5826800000000  0.3115570000000  0.6147000000000 1.0
C      1  0.7047690000000  0.5204000000000  0.6147040000000 1.0
C      1  0.5438730000000  0.7010470000000  0.6147080000000 1.0
C      1  0.5466330000000  0.5667680000000  0.7104890000000 1.0
C      1  0.4509060000000  0.5649800000000  0.7104890000000 1.0
C      1  0.4230250000000  0.4733860000000  0.7104870000000 1.0
C      1  0.5015210000000  0.4185660000000  0.7104860000000 1.0
C      1  0.5779150000000  0.4762790000000  0.7104870000000 1.0
C      1  0.3295620000000  0.6396270000000  0.4392570000000 1.0
C      1  0.3145390000000  0.3810530000000  0.4392510000000 1.0
C      1  0.5558170000000  0.2868610000000  0.4392490000000 1.0
C      1  0.7199590000000  0.4872230000000  0.4392530000000 1.0
C      1  0.5801240000000  0.7052440000000  0.4392580000000 1.0
C      1  0.5535390000000  0.2711150000000  0.5335990000000 1.0
C      1  0.7342270000000  0.4801900000000  0.5336030000000 1.0
C      1  0.5912200000000  0.7166390000000  0.5336080000000 1.0
C      1  0.3221510000000  0.6537000000000  0.5336070000000 1.0
C      1  0.2988630000000  0.3783520000000  0.5336010000000 1.0
C      1  0.4529030000000  0.5623430000000  0.4927500000000 1.0
C      1  0.4261540000000  0.4744730000000  0.4927490000000 1.0
C      1  0.5014580000000  0.4218800000000  0.4927480000000 1.0
C      1  0.5747470000000  0.4772460000000  0.4927490000000 1.0
C      1  0.5447380000000  0.5640570000000  0.4927500000000 1.0
C      1  0.4960580000000  0.7109980000000  0.3857120000000 1.0
C      1  0.2981110000000  0.5614550000000  0.3857090000000 1.0
C      1  0.3791690000000  0.3269870000000  0.3857050000000 1.0
C      1  0.6272080000000  0.3316210000000  0.3857040000000 1.0
C      1  0.6994520000000  0.5689520000000  0.3857090000000 1.0
C      1  0.2666760000000  0.4714560000000  0.5336030000000 1.0
C      1  0.4550470000000  0.2692750000000  0.5335990000000 1.0
C      1  0.7055400000000  0.3859490000000  0.5336010000000 1.0
C      1  0.6719840000000  0.6602350000000  0.5336060000000 1.0
C      1  0.4007530000000  0.7130810000000  0.5336070000000 1.0
C      1  0.4185010000000  0.5248130000000  0.2671940000000 1.0
C      1  0.4512220000000  0.4301610000000  0.2671920000000 1.0
C      1  0.5513510000000  0.4320310000000  0.2671910000000 1.0
C      1  0.5805150000000  0.5278380000000  0.2671940000000 1.0
C      1  0.4984090000000  0.5851800000000  0.2671950000000 1.0
C      1  0.4968890000000  0.6665910000000  0.3064930000000 1.0
C      1  0.3406040000000  0.5485220000000  0.3064910000000 1.0
C      1  0.4046000000000  0.3634040000000  0.3064870000000 1.0
C      1  0.6004330000000  0.3670610000000  0.3064870000000 1.0
C      1  0.6574730000000  0.5544390000000  0.3064910000000 1.0
END
