TITL C-2159255-4746-198 -0.00112189315858616 3375 -392.591240481437 0 0 60 (C4) n - 1
REM
REM in /scratch/bkarasulu/871
REM
REM
REM
REM
REM
REM ./C.cell (a2850807a9bf4ad07a5b6933b78d9264)
REM AIRSS Version 0.9.1 bugfix July 2018 build 013d7b7c2542+ Fri, 06 Jul 2018 19:26:36 +0100
REM compiler GCC version 9.2.1 20190827 (Red Hat 9.2.1-1)
REM options -cpp -mtune=generic -march=x86-64 -g -O0 -fpre-include=/usr/include/finclude/math-vector-fortran.h
REM seed -737655769 -1288463848 -97753003 1987164340 1289596792 -221196709 752689826 71027511 1417984211 142995985 -1003460537 -849889252 -1191375005 1116021936 -154657000 385010159 -1167714951 -865662173 -621993848 -501499979 -622198331 486134745 -1899920440 -1211578921 751220458 -529251835 -238641062 -1009765767 330195864 -1941842019 -1415211634 -950037277 -124273133
REM
CELL 1.54180   15.00000   15.00000   15.00000   90.00000   90.00000   90.00000
LATT -1
SFAC C  
C      1  0.3715420000000  0.6512540000000  0.3570780000000 1.0
C      1  0.6429220000000  0.6512540000000  0.3715420000000 1.0
C      1  0.6284580000000  0.6512540000000  0.6429220000000 1.0
C      1  0.3570780000000  0.6512540000000  0.6284580000000 1.0
C      1  0.6284580000000  0.3579600000000  0.3570780000000 1.0
C      1  0.3570780000000  0.3579600000000  0.3715420000000 1.0
C      1  0.3715420000000  0.3579600000000  0.6429220000000 1.0
C      1  0.6429220000000  0.3579600000000  0.6284580000000 1.0
C      1  0.3045750000000  0.5810940000000  0.5963770000000 1.0
C      1  0.4036230000000  0.5810940000000  0.3045750000000 1.0
C      1  0.6954250000000  0.5810940000000  0.4036230000000 1.0
C      1  0.5963770000000  0.5810940000000  0.6954250000000 1.0
C      1  0.6954250000000  0.4281200000000  0.5963770000000 1.0
C      1  0.5963770000000  0.4281200000000  0.3045750000000 1.0
C      1  0.3045750000000  0.4281200000000  0.4036230000000 1.0
C      1  0.4036230000000  0.4281200000000  0.6954250000000 1.0
C      1  0.5657220000000  0.4301670000000  0.6507200000000 1.0
C      1  0.3492800000000  0.4301670000000  0.5657220000000 1.0
C      1  0.4342780000000  0.4301670000000  0.3492800000000 1.0
C      1  0.6507200000000  0.4301670000000  0.4342780000000 1.0
C      1  0.4342780000000  0.5790470000000  0.6507200000000 1.0
C      1  0.6507200000000  0.5790470000000  0.5657220000000 1.0
C      1  0.5657220000000  0.5790470000000  0.3492800000000 1.0
C      1  0.3492800000000  0.5790470000000  0.4342780000000 1.0
C      1  0.3988760000000  0.3028990000000  0.5080670000000 1.0
C      1  0.4919330000000  0.3028990000000  0.3988760000000 1.0
C      1  0.6011240000000  0.3028990000000  0.4919330000000 1.0
C      1  0.5080670000000  0.3028990000000  0.6011240000000 1.0
C      1  0.6011240000000  0.7063150000000  0.5080670000000 1.0
C      1  0.5080670000000  0.7063150000000  0.3988760000000 1.0
C      1  0.3988760000000  0.7063150000000  0.4919330000000 1.0
C      1  0.4919330000000  0.7063150000000  0.6011240000000 1.0
C      1  0.3992480000000  0.2828280000000  0.4156660000000 1.0
C      1  0.5843340000000  0.2828280000000  0.3992480000000 1.0
C      1  0.6007520000000  0.2828280000000  0.5843340000000 1.0
C      1  0.4156660000000  0.2828280000000  0.6007520000000 1.0
C      1  0.6007520000000  0.7263860000000  0.4156660000000 1.0
C      1  0.4156660000000  0.7263860000000  0.3992480000000 1.0
C      1  0.3992480000000  0.7263860000000  0.5843340000000 1.0
C      1  0.5843340000000  0.7263860000000  0.6007520000000 1.0
C      1  0.4856180000000  0.6078860000000  0.5694640000000 1.0
C      1  0.4305360000000  0.6078860000000  0.4856180000000 1.0
C      1  0.5143820000000  0.6078860000000  0.4305360000000 1.0
C      1  0.5694640000000  0.6078860000000  0.5143820000000 1.0
C      1  0.5143820000000  0.4013280000000  0.5694640000000 1.0
C      1  0.5694640000000  0.4013280000000  0.4856180000000 1.0
C      1  0.4856180000000  0.4013280000000  0.4305360000000 1.0
C      1  0.4305360000000  0.4013280000000  0.5143820000000 1.0
C      1  0.2818620000000  0.4566580000000  0.4953550000000 1.0
C      1  0.5046450000000  0.4566580000000  0.2818620000000 1.0
C      1  0.7181380000000  0.4566580000000  0.5046450000000 1.0
C      1  0.4953550000000  0.4566580000000  0.7181380000000 1.0
C      1  0.7181380000000  0.5525560000000  0.4953550000000 1.0
C      1  0.4953550000000  0.5525560000000  0.2818620000000 1.0
C      1  0.2818620000000  0.5525560000000  0.5046450000000 1.0
C      1  0.5046450000000  0.5525560000000  0.7181380000000 1.0
C      1  0.3652120000000  0.5046070000000  0.6347880000000 1.0
C      1  0.3652120000000  0.5046070000000  0.3652120000000 1.0
C      1  0.6347880000000  0.5046070000000  0.3652120000000 1.0
C      1  0.6347880000000  0.5046070000000  0.6347880000000 1.0
END
