TITL C-2158984-8299-488 -0.00191078202452153 3375 -414.049819514892 0 0 60 (C5) n - 1
REM
REM in /scratch/bkarasulu/869
REM
REM
REM
REM
REM
REM ./C.cell (a2850807a9bf4ad07a5b6933b78d9264)
REM AIRSS Version 0.9.1 bugfix July 2018 build 013d7b7c2542+ Fri, 06 Jul 2018 19:26:36 +0100
REM compiler GCC version 9.2.1 20190827 (Red Hat 9.2.1-1)
REM options -cpp -mtune=generic -march=x86-64 -g -O0 -fpre-include=/usr/include/finclude/math-vector-fortran.h
REM seed 1507833663 -300403491 2108065682 404359133 -114839370 -322283843 -2002846061 -1861027425 986697939 964080205 -124846685 -2079394943 1219866207 1235462818 -892122749 142336254 488675711 735396682 1208780109 1372970309 -855192304 -553862121 584961136 243682906 597005499 920894231 -75594793 538747008 -1450403480 -913831473 1160622509 958144403 469187236
REM
CELL 1.54180   15.00000   15.00000   15.00000   90.00000   90.00000   90.00000
LATT -1
SFAC C  
C      1  0.6937260000000  0.3696060000000  0.5816180000000 1.0
C      1  0.6937270000000  0.3820840000000  0.4012090000000 1.0
C      1  0.6937270000000  0.5575190000000  0.3573260000000 1.0
C      1  0.6937260000000  0.6534660000000  0.5106150000000 1.0
C      1  0.6937260000000  0.5373290000000  0.6492350000000 1.0
C      1  0.6180140000000  0.4314590000000  0.2933120000000 1.0
C      1  0.6180130000000  0.6753910000000  0.3709430000000 1.0
C      1  0.6180120000000  0.6769400000000  0.6269260000000 1.0
C      1  0.6180130000000  0.4339640000000  0.7075040000000 1.0
C      1  0.6180140000000  0.2822470000000  0.5013170000000 1.0
C      1  0.3191350000000  0.3729810000000  0.4004190000000 1.0
C      1  0.3191340000000  0.5554540000000  0.3484260000000 1.0
C      1  0.3191330000000  0.6612900000000  0.5059020000000 1.0
C      1  0.3191330000000  0.5442270000000  0.6552200000000 1.0
C      1  0.3191350000000  0.3660420000000  0.5900280000000 1.0
C      1  0.6182420000000  0.6023800000000  0.3103180000000 1.0
C      1  0.6182420000000  0.7120380000000  0.5387540000000 1.0
C      1  0.6182410000000  0.5286660000000  0.7136360000000 1.0
C      1  0.6182420000000  0.3056800000000  0.5932790000000 1.0
C      1  0.6182420000000  0.3512400000000  0.3440160000000 1.0
C      1  0.3764370000000  0.6732000000000  0.5848060000000 1.0
C      1  0.3764380000000  0.4728650000000  0.6909310000000 1.0
C      1  0.3764380000000  0.3100270000000  0.5331930000000 1.0
C      1  0.3764390000000  0.4097260000000  0.3295830000000 1.0
C      1  0.3764380000000  0.6341770000000  0.3614840000000 1.0
C      1  0.5303130000000  0.3508470000000  0.6082070000000 1.0
C      1  0.5303140000000  0.3509990000000  0.3915840000000 1.0
C      1  0.5303140000000  0.5570660000000  0.3247870000000 1.0
C      1  0.5303130000000  0.6842730000000  0.5001290000000 1.0
C      1  0.5303130000000  0.5568200000000  0.6752940000000 1.0
C      1  0.5301200000000  0.4655220000000  0.2876700000000 1.0
C      1  0.5301190000000  0.6912820000000  0.4015960000000 1.0
C      1  0.5301180000000  0.6526980000000  0.6515110000000 1.0
C      1  0.5301190000000  0.4030900000000  0.6920450000000 1.0
C      1  0.5301200000000  0.2874080000000  0.4671780000000 1.0
C      1  0.5398830000000  0.5780320000000  0.5014520000000 1.0
C      1  0.5398810000000  0.5227330000000  0.5746610000000 1.0
C      1  0.5398800000000  0.4360200000000  0.5446920000000 1.0
C      1  0.5398810000000  0.4377250000000  0.4529620000000 1.0
C      1  0.5398830000000  0.5254940000000  0.4262380000000 1.0
C      1  0.4700100000000  0.3026630000000  0.5434000000000 1.0
C      1  0.4700100000000  0.3977450000000  0.3257330000000 1.0
C      1  0.4700100000000  0.6341360000000  0.3488990000000 1.0
C      1  0.4700090000000  0.6851580000000  0.5808790000000 1.0
C      1  0.4700090000000  0.4802960000000  0.7010900000000 1.0
C      1  0.6944520000000  0.4659440000000  0.3477520000000 1.0
C      1  0.6944510000000  0.6342730000000  0.4205640000000 1.0
C      1  0.6944500000000  0.6170420000000  0.6031540000000 1.0
C      1  0.6944500000000  0.4380640000000  0.6431900000000 1.0
C      1  0.6944510000000  0.3446810000000  0.4853430000000 1.0
C      1  0.3427470000000  0.6330830000000  0.6620220000000 1.0
C      1  0.3427480000000  0.3870310000000  0.6766370000000 1.0
C      1  0.3427490000000  0.2970960000000  0.4471440000000 1.0
C      1  0.3427470000000  0.4875680000000  0.2906920000000 1.0
C      1  0.3427470000000  0.6952180000000  0.4234970000000 1.0
C      1  0.2669240000000  0.4321670000000  0.5451610000000 1.0
C      1  0.2669240000000  0.4360850000000  0.4494430000000 1.0
C      1  0.2669240000000  0.5283300000000  0.4235910000000 1.0
C      1  0.2669230000000  0.5814220000000  0.5033330000000 1.0
C      1  0.2669240000000  0.5219890000000  0.5784670000000 1.0
END
