TITL C-2158984-8299-1013 -0.00289478422419494 3375 -419.757427440149 0 0 60 (C1) n - 1
REM
REM in /scratch/bkarasulu/869
REM
REM
REM
REM
REM
REM ./C.cell (a2850807a9bf4ad07a5b6933b78d9264)
REM AIRSS Version 0.9.1 bugfix July 2018 build 013d7b7c2542+ Fri, 06 Jul 2018 19:26:36 +0100
REM compiler GCC version 9.2.1 20190827 (Red Hat 9.2.1-1)
REM options -cpp -mtune=generic -march=x86-64 -g -O0 -fpre-include=/usr/include/finclude/math-vector-fortran.h
REM seed 1826650687 289000156 605312043 -981777957 1698447958 285062109 -1008856950 -1809469545 -1949487663 1979282815 411831263 -2139022228 -1249624492 -704397935 -2117019360 -734687784 636455266 1318616798 -417115580 -1093899624 -1764271433 -2133053965 450523572 -1289442742 -1049525486 -957578332 -1875641540 1762895614 -307162448 1910554999 1875705221 1984695217 -639324365
REM
CELL 1.54180   15.00000   15.00000   15.00000   90.00000   90.00000   90.00000
LATT -1
SFAC C  
C      1  0.5208000000000  0.2936580000000  0.3564370000000 1.0
C      1  0.5081870000000  0.5234520000000  0.2437450000000 1.0
C      1  0.4913300000000  0.6834480000000  0.3333530000000 1.0
C      1  0.5068140000000  0.7319780000000  0.5606210000000 1.0
C      1  0.5024660000000  0.6282510000000  0.7104910000000 1.0
C      1  0.5031700000000  0.3951720000000  0.7193990000000 1.0
C      1  0.5029890000000  0.2600850000000  0.5925240000000 1.0
C      1  0.3768360000000  0.3184010000000  0.4117910000000 1.0
C      1  0.3355400000000  0.4517730000000  0.3285270000000 1.0
C      1  0.3484230000000  0.6244130000000  0.3384650000000 1.0
C      1  0.3268590000000  0.6448730000000  0.5047480000000 1.0
C      1  0.3223550000000  0.5951420000000  0.6348160000000 1.0
C      1  0.3248810000000  0.4568500000000  0.7052140000000 1.0
C      1  0.3333730000000  0.3862880000000  0.5644160000000 1.0
C      1  0.6405260000000  0.5492420000000  0.6582390000000 1.0
C      1  0.6449970000000  0.4513180000000  0.6656290000000 1.0
C      1  0.6490780000000  0.3209920000000  0.5347080000000 1.0
C      1  0.6486300000000  0.3205040000000  0.4357830000000 1.0
C      1  0.6218540000000  0.4812230000000  0.3091310000000 1.0
C      1  0.6353610000000  0.6408940000000  0.4092860000000 1.0
C      1  0.6419970000000  0.6601850000000  0.5053720000000 1.0
C      1  0.4475420000000  0.2628070000000  0.5156790000000 1.0
C      1  0.4835520000000  0.3683390000000  0.3098470000000 1.0
C      1  0.4250050000000  0.5627240000000  0.2387990000000 1.0
C      1  0.4472850000000  0.7154340000000  0.4126030000000 1.0
C      1  0.4317100000000  0.7247360000000  0.6215290000000 1.0
C      1  0.4512340000000  0.5515760000000  0.7375960000000 1.0
C      1  0.4265830000000  0.3374970000000  0.6995670000000 1.0
C      1  0.3656740000000  0.3186380000000  0.5078520000000 1.0
C      1  0.3891730000000  0.3795480000000  0.3403810000000 1.0
C      1  0.3459110000000  0.5343980000000  0.3004290000000 1.0
C      1  0.3602210000000  0.6684400000000  0.4215120000000 1.0
C      1  0.3546980000000  0.6759150000000  0.5917060000000 1.0
C      1  0.3583970000000  0.5420370000000  0.7041650000000 1.0
C      1  0.3488250000000  0.3834620000000  0.6600280000000 1.0
C      1  0.7198600000000  0.4501750000000  0.6038510000000 1.0
C      1  0.7101920000000  0.3954620000000  0.5316840000000 1.0
C      1  0.6990590000000  0.4044660000000  0.4367100000000 1.0
C      1  0.6820370000000  0.4789670000000  0.3820910000000 1.0
C      1  0.6943630000000  0.5645920000000  0.4212710000000 1.0
C      1  0.7076160000000  0.5895850000000  0.5144050000000 1.0
C      1  0.7149150000000  0.5468940000000  0.5949410000000 1.0
C      1  0.5839610000000  0.3806060000000  0.6703840000000 1.0
C      1  0.5855790000000  0.3129170000000  0.6033660000000 1.0
C      1  0.6115290000000  0.2809770000000  0.3648520000000 1.0
C      1  0.5867160000000  0.5665330000000  0.2805600000000 1.0
C      1  0.5787720000000  0.6451150000000  0.3339060000000 1.0
C      1  0.5838540000000  0.6781410000000  0.5778750000000 1.0
C      1  0.5808100000000  0.6204680000000  0.6544280000000 1.0
C      1  0.4234430000000  0.6488210000000  0.2799500000000 1.0
C      1  0.4891170000000  0.7593720000000  0.4771780000000 1.0
C      1  0.4582410000000  0.7080170000000  0.7078150000000 1.0
C      1  0.4924610000000  0.4750460000000  0.7587150000000 1.0
C      1  0.4494770000000  0.2567730000000  0.6682280000000 1.0
C      1  0.4577910000000  0.2640950000000  0.4202230000000 1.0
C      1  0.5394630000000  0.4372550000000  0.2763530000000 1.0
C      1  0.3362630000000  0.4763340000000  0.5244850000000 1.0
C      1  0.4208890000000  0.5007140000000  0.5004760000000 1.0
C      1  0.5040540000000  0.4933820000000  0.4885410000000 1.0
C      1  0.2964950000000  0.5599620000000  0.5468660000000 1.0
END
