TITL C-2159255-4746-783 -0.0028087721935397 3375 -387.240173045037 0 0 60 (D3h) n - 1
REM
REM in /scratch/bkarasulu/871
REM
REM
REM
REM
REM
REM ./C.cell (a2850807a9bf4ad07a5b6933b78d9264)
REM AIRSS Version 0.9.1 bugfix July 2018 build 013d7b7c2542+ Fri, 06 Jul 2018 19:26:36 +0100
REM compiler GCC version 9.2.1 20190827 (Red Hat 9.2.1-1)
REM options -cpp -mtune=generic -march=x86-64 -g -O0 -fpre-include=/usr/include/finclude/math-vector-fortran.h
REM seed -1945300194 -1591388117 88526793 1507186804 -565363230 -241654818 -1137634491 -780719784 1094312065 874075757 1093466175 -1230488131 2122050833 854663203 1184719229 483169894 -1892365274 -1584055178 -1297092617 152434591 -1729573017 1325608961 1187777136 -1114774068 -1977996330 -820139345 -1774390953 67682040 -942756296 -229891659 1538650811 85289153 1443089902
REM
CELL 1.54180   15.00000   15.00000   15.00000   90.00000   90.00000   90.00000
LATT -1
SFAC C  
C      1  0.5526270000000  0.5481360000000  0.2441760000000 1.0
C      1  0.2521370000000  0.5481360000000  0.5823330000000 1.0
C      1  0.6952330000000  0.5481350000000  0.6734840000000 1.0
C      1  0.5526270000000  0.4518640000000  0.2441760000000 1.0
C      1  0.2521370000000  0.4518640000000  0.5823330000000 1.0
C      1  0.6952330000000  0.4518650000000  0.6734840000000 1.0
C      1  0.4473730000000  0.5481360000000  0.2441760000000 1.0
C      1  0.7478630000000  0.5481360000000  0.5823330000000 1.0
C      1  0.3047670000000  0.5481350000000  0.6734840000000 1.0
C      1  0.4473730000000  0.4518640000000  0.2441760000000 1.0
C      1  0.7478630000000  0.4518640000000  0.5823330000000 1.0
C      1  0.3047670000000  0.4518650000000  0.6734840000000 1.0
C      1  0.4576160000000  0.6201360000000  0.7550910000000 1.0
C      1  0.7421060000000  0.6201390000000  0.4091620000000 1.0
C      1  0.3002800000000  0.6201390000000  0.3357510000000 1.0
C      1  0.4576160000000  0.3798640000000  0.7550910000000 1.0
C      1  0.7421060000000  0.3798610000000  0.4091620000000 1.0
C      1  0.3002800000000  0.3798610000000  0.3357510000000 1.0
C      1  0.5423840000000  0.6201360000000  0.7550910000000 1.0
C      1  0.2578940000000  0.6201390000000  0.4091620000000 1.0
C      1  0.6997200000000  0.6201390000000  0.3357510000000 1.0
C      1  0.5423840000000  0.3798640000000  0.7550910000000 1.0
C      1  0.2578940000000  0.3798610000000  0.4091620000000 1.0
C      1  0.6997200000000  0.3798610000000  0.3357510000000 1.0
C      1  0.6258890000000  0.6153180000000  0.7073930000000 1.0
C      1  0.6166620000000  0.6153180000000  0.2872800000000 1.0
C      1  0.2574490000000  0.6153190000000  0.5053280000000 1.0
C      1  0.6258890000000  0.3846820000000  0.7073930000000 1.0
C      1  0.6166620000000  0.3846820000000  0.2872800000000 1.0
C      1  0.2574490000000  0.3846810000000  0.5053280000000 1.0
C      1  0.3741110000000  0.6153180000000  0.7073930000000 1.0
C      1  0.3833380000000  0.6153180000000  0.2872800000000 1.0
C      1  0.7425510000000  0.6153190000000  0.5053280000000 1.0
C      1  0.3741110000000  0.3846820000000  0.7073930000000 1.0
C      1  0.3833380000000  0.3846820000000  0.2872800000000 1.0
C      1  0.7425510000000  0.3846810000000  0.5053280000000 1.0
C      1  0.4007430000000  0.5517310000000  0.4984940000000 1.0
C      1  0.5483240000000  0.5517310000000  0.5867120000000 1.0
C      1  0.5509330000000  0.5517300000000  0.4147950000000 1.0
C      1  0.4007430000000  0.4482690000000  0.4984940000000 1.0
C      1  0.5483240000000  0.4482690000000  0.5867120000000 1.0
C      1  0.5509330000000  0.4482700000000  0.4147950000000 1.0
C      1  0.5992570000000  0.5517310000000  0.4984940000000 1.0
C      1  0.4516760000000  0.5517310000000  0.5867120000000 1.0
C      1  0.4490670000000  0.5517300000000  0.4147950000000 1.0
C      1  0.5992570000000  0.4482690000000  0.4984940000000 1.0
C      1  0.4516760000000  0.4482690000000  0.5867120000000 1.0
C      1  0.4490670000000  0.4482700000000  0.4147950000000 1.0
C      1  0.6060420000000  0.3728870000000  0.6170020000000 1.0
C      1  0.5483050000000  0.3728890000000  0.3496640000000 1.0
C      1  0.3456550000000  0.3728850000000  0.5333340000000 1.0
C      1  0.6060420000000  0.6271130000000  0.6170020000000 1.0
C      1  0.5483050000000  0.6271110000000  0.3496640000000 1.0
C      1  0.3456550000000  0.6271150000000  0.5333340000000 1.0
C      1  0.3939580000000  0.3728870000000  0.6170020000000 1.0
C      1  0.4516950000000  0.3728890000000  0.3496640000000 1.0
C      1  0.6543450000000  0.3728850000000  0.5333340000000 1.0
C      1  0.3939580000000  0.6271130000000  0.6170020000000 1.0
C      1  0.4516950000000  0.6271110000000  0.3496640000000 1.0
C      1  0.6543450000000  0.6271150000000  0.5333340000000 1.0
END
