TITL C-2158988-7926-1011 -0.0016843761202151 3375 -406.260211124235 0 0 60 (C6) n - 1
REM
REM in /scratch/bkarasulu/868
REM
REM
REM
REM
REM
REM ./C.cell (a2850807a9bf4ad07a5b6933b78d9264)
REM AIRSS Version 0.9.1 bugfix July 2018 build 013d7b7c2542+ Fri, 06 Jul 2018 19:26:36 +0100
REM compiler GCC version 9.2.1 20190827 (Red Hat 9.2.1-1)
REM options -cpp -mtune=generic -march=x86-64 -g -O0 -fpre-include=/usr/include/finclude/math-vector-fortran.h
REM seed -776331390 -1791648486 -1118938298 -923795128 -745187942 923539317 1055129493 -1378067730 1428550981 -1778118803 -589629143 575187297 -538306087 1490154537 -2083494572 112239051 1151289264 202540407 -1132040608 -1725643707 -164604929 1874488614 -2130224574 1633129125 -1000326894 1073102197 -1466783774 -1765078712 316442668 -1640366225 926268333 1250545551 411666312
REM
CELL 1.54180   15.00000   15.00000   15.00000   90.00000   90.00000   90.00000
LATT -1
SFAC C  
C      1  0.5508820000000  0.5784420000000  0.7209880000000 1.0
C      1  0.4575090000000  0.5832860000000  0.7209880000000 1.0
C      1  0.4066270000000  0.5048440000000  0.7209880000000 1.0
C      1  0.4491180000000  0.4215580000000  0.7209880000000 1.0
C      1  0.5424910000000  0.4167140000000  0.7209880000000 1.0
C      1  0.5933730000000  0.4951560000000  0.7209880000000 1.0
C      1  0.4491180000000  0.5784420000000  0.2790120000000 1.0
C      1  0.5424910000000  0.5832860000000  0.2790120000000 1.0
C      1  0.5933730000000  0.5048440000000  0.2790120000000 1.0
C      1  0.5508820000000  0.4215580000000  0.2790120000000 1.0
C      1  0.4575090000000  0.4167140000000  0.2790120000000 1.0
C      1  0.4066270000000  0.4951560000000  0.2790120000000 1.0
C      1  0.5648470000000  0.2758550000000  0.3552010000000 1.0
C      1  0.7265390000000  0.4440880000000  0.3552010000000 1.0
C      1  0.6616910000000  0.6682310000000  0.3552010000000 1.0
C      1  0.4351530000000  0.7241450000000  0.3552010000000 1.0
C      1  0.2734610000000  0.5559120000000  0.3552010000000 1.0
C      1  0.3383090000000  0.3317690000000  0.3552010000000 1.0
C      1  0.4351530000000  0.2758550000000  0.6447990000000 1.0
C      1  0.2734610000000  0.4440880000000  0.6447990000000 1.0
C      1  0.3383090000000  0.6682310000000  0.6447990000000 1.0
C      1  0.5648470000000  0.7241450000000  0.6447990000000 1.0
C      1  0.7265390000000  0.5559120000000  0.6447990000000 1.0
C      1  0.6616910000000  0.3317690000000  0.6447990000000 1.0
C      1  0.6787530000000  0.5134350000000  0.3253890000000 1.0
C      1  0.5777410000000  0.6615220000000  0.3253890000000 1.0
C      1  0.3989880000000  0.6480870000000  0.3253890000000 1.0
C      1  0.3212470000000  0.4865650000000  0.3253890000000 1.0
C      1  0.4222590000000  0.3384780000000  0.3253890000000 1.0
C      1  0.6010120000000  0.3519130000000  0.3253890000000 1.0
C      1  0.3212470000000  0.5134350000000  0.6746110000000 1.0
C      1  0.4222590000000  0.6615220000000  0.6746110000000 1.0
C      1  0.6010120000000  0.6480870000000  0.6746110000000 1.0
C      1  0.6787530000000  0.4865650000000  0.6746110000000 1.0
C      1  0.5777410000000  0.3384780000000  0.6746110000000 1.0
C      1  0.3989880000000  0.3519130000000  0.6746110000000 1.0
C      1  0.3443840000000  0.3998660000000  0.6105600000000 1.0
C      1  0.5089110000000  0.3151650000000  0.6105600000000 1.0
C      1  0.6645260000000  0.4153000000000  0.6105600000000 1.0
C      1  0.6556160000000  0.6001340000000  0.6105600000000 1.0
C      1  0.4910890000000  0.6848350000000  0.6105600000000 1.0
C      1  0.3354740000000  0.5847000000000  0.6105600000000 1.0
C      1  0.6556160000000  0.3998660000000  0.3894400000000 1.0
C      1  0.4910890000000  0.3151650000000  0.3894400000000 1.0
C      1  0.3354740000000  0.4153000000000  0.3894400000000 1.0
C      1  0.3443840000000  0.6001340000000  0.3894400000000 1.0
C      1  0.5089110000000  0.6848350000000  0.3894400000000 1.0
C      1  0.6645260000000  0.5847000000000  0.3894400000000 1.0
C      1  0.5880130000000  0.4483250000000  0.4477360000000 1.0
C      1  0.5887580000000  0.5503840000000  0.4477360000000 1.0
C      1  0.5007450000000  0.6020590000000  0.4477360000000 1.0
C      1  0.4119870000000  0.5516750000000  0.4477360000000 1.0
C      1  0.4112420000000  0.4496160000000  0.4477360000000 1.0
C      1  0.4992550000000  0.3979410000000  0.4477360000000 1.0
C      1  0.4119870000000  0.4483250000000  0.5522640000000 1.0
C      1  0.4112420000000  0.5503840000000  0.5522640000000 1.0
C      1  0.4992550000000  0.6020590000000  0.5522640000000 1.0
C      1  0.5880130000000  0.5516750000000  0.5522640000000 1.0
C      1  0.5887580000000  0.4496160000000  0.5522640000000 1.0
C      1  0.5007450000000  0.3979410000000  0.5522640000000 1.0
END
