TITL C-2159255-4746-400 -0.00356405906934311 3375 -421.097381986247 0 0 60 (D2d) n - 1
REM
REM in /scratch/bkarasulu/871
REM
REM
REM
REM
REM
REM ./C.cell (a2850807a9bf4ad07a5b6933b78d9264)
REM AIRSS Version 0.9.1 bugfix July 2018 build 013d7b7c2542+ Fri, 06 Jul 2018 19:26:36 +0100
REM compiler GCC version 9.2.1 20190827 (Red Hat 9.2.1-1)
REM options -cpp -mtune=generic -march=x86-64 -g -O0 -fpre-include=/usr/include/finclude/math-vector-fortran.h
REM seed -90098180 -665639370 945557382 403899245 -816018539 1466910075 1202478455 -193223710 -772548053 251345943 -1391241285 -1768708827 -1835901837 766585048 965644650 948583254 1896783137 -2026072980 1351661920 1610238963 -83247646 -641120440 987924623 1094113228 -181476728 378556816 -577747774 -145947046 -730791171 -397793938 -80319550 -715141619 1430042394
REM
CELL 1.54180   15.00000   15.00000   15.00000   90.00000   90.00000   90.00000
LATT -1
SFAC C  
C      1  0.6097790000000  0.6115880000000  0.3368960000000 1.0
C      1  0.5296760000000  0.6609320000000  0.3415510000000 1.0
C      1  0.4372400000000  0.6434100000000  0.3368950000000 1.0
C      1  0.3674840000000  0.5713770000000  0.3375840000000 1.0
C      1  0.3507440000000  0.4805890000000  0.3375830000000 1.0
C      1  0.3902210000000  0.3884130000000  0.3368950000000 1.0
C      1  0.4703240000000  0.3390680000000  0.3415510000000 1.0
C      1  0.5627600000000  0.3565900000000  0.3368950000000 1.0
C      1  0.6325170000000  0.4286240000000  0.3375840000000 1.0
C      1  0.6492560000000  0.5194110000000  0.3375840000000 1.0
C      1  0.6434080000000  0.5627580000000  0.6631050000000 1.0
C      1  0.5713740000000  0.6325160000000  0.6624160000000 1.0
C      1  0.4805870000000  0.6492570000000  0.6624170000000 1.0
C      1  0.3884110000000  0.6097810000000  0.6631050000000 1.0
C      1  0.3390690000000  0.5296760000000  0.6584490000000 1.0
C      1  0.3565920000000  0.4372410000000  0.6631040000000 1.0
C      1  0.4286260000000  0.3674840000000  0.6624160000000 1.0
C      1  0.5194120000000  0.3507420000000  0.6624170000000 1.0
C      1  0.6115890000000  0.3902190000000  0.6631050000000 1.0
C      1  0.6609310000000  0.4703230000000  0.6584490000000 1.0
C      1  0.6315030000000  0.6902840000000  0.6109620000000 1.0
C      1  0.4450190000000  0.7246740000000  0.6109650000000 1.0
C      1  0.3558640000000  0.6854830000000  0.6142190000000 1.0
C      1  0.2530560000000  0.5455370000000  0.6130310000000 1.0
C      1  0.2991830000000  0.3781290000000  0.6142170000000 1.0
C      1  0.3684970000000  0.3097160000000  0.6109610000000 1.0
C      1  0.5549810000000  0.2753260000000  0.6109640000000 1.0
C      1  0.6441360000000  0.3145160000000  0.6142190000000 1.0
C      1  0.7469440000000  0.4544630000000  0.6130310000000 1.0
C      1  0.7008170000000  0.6218710000000  0.6142170000000 1.0
C      1  0.4544630000000  0.2530560000000  0.3869690000000 1.0
C      1  0.6218720000000  0.2991810000000  0.3857830000000 1.0
C      1  0.6902840000000  0.3684960000000  0.3890390000000 1.0
C      1  0.7246730000000  0.5549800000000  0.3890360000000 1.0
C      1  0.6854810000000  0.6441350000000  0.3857810000000 1.0
C      1  0.5455370000000  0.7469450000000  0.3869690000000 1.0
C      1  0.3781280000000  0.7008190000000  0.3857830000000 1.0
C      1  0.3097160000000  0.6315040000000  0.3890390000000 1.0
C      1  0.2753270000000  0.4450210000000  0.3890360000000 1.0
C      1  0.3145190000000  0.3558650000000  0.3857810000000 1.0
C      1  0.3843920000000  0.7363560000000  0.4727020000000 1.0
C      1  0.2763650000000  0.6255530000000  0.4770300000000 1.0
C      1  0.2462900000000  0.4624740000000  0.4770270000000 1.0
C      1  0.3076940000000  0.3204310000000  0.4726990000000 1.0
C      1  0.4534260000000  0.2474340000000  0.4790620000000 1.0
C      1  0.6156080000000  0.2636440000000  0.4727020000000 1.0
C      1  0.7236350000000  0.3744470000000  0.4770300000000 1.0
C      1  0.7537100000000  0.5375260000000  0.4770270000000 1.0
C      1  0.6923060000000  0.6795690000000  0.4726990000000 1.0
C      1  0.5465740000000  0.7525660000000  0.4790630000000 1.0
C      1  0.6255520000000  0.7236340000000  0.5229710000000 1.0
C      1  0.4624730000000  0.7537110000000  0.5229730000000 1.0
C      1  0.3204290000000  0.6923080000000  0.5273010000000 1.0
C      1  0.2474340000000  0.5465750000000  0.5209370000000 1.0
C      1  0.2636460000000  0.3843930000000  0.5272980000000 1.0
C      1  0.3744480000000  0.2763660000000  0.5229700000000 1.0
C      1  0.5375270000000  0.2462890000000  0.5229730000000 1.0
C      1  0.6795710000000  0.3076920000000  0.5273010000000 1.0
C      1  0.7525660000000  0.4534250000000  0.5209370000000 1.0
C      1  0.7363540000000  0.6156070000000  0.5272980000000 1.0
END
