TITL C-2158984-8299-944 -0.00242088472147259 3375 -400.35875659924 0 0 60 (D2h) n - 1
REM
REM in /scratch/bkarasulu/869
REM
REM
REM
REM
REM
REM ./C.cell (a2850807a9bf4ad07a5b6933b78d9264)
REM AIRSS Version 0.9.1 bugfix July 2018 build 013d7b7c2542+ Fri, 06 Jul 2018 19:26:36 +0100
REM compiler GCC version 9.2.1 20190827 (Red Hat 9.2.1-1)
REM options -cpp -mtune=generic -march=x86-64 -g -O0 -fpre-include=/usr/include/finclude/math-vector-fortran.h
REM seed -1754077804 828790981 -1778303632 1314394855 -648632258 -387662679 795556816 -395774682 -1444771823 -705154919 1268554262 -1536636095 1493187507 -182404889 154468064 583983282 1820421688 1851107535 -2140385434 1678113044 -773883783 -1705857510 -1257714372 1106990678 -992807491 745892129 -587909516 1544499323 1531018760 -1456239381 101790247 1331270913 728403083
REM
CELL 1.54180   15.00000   15.00000   15.00000   90.00000   90.00000   90.00000
LATT -1
SFAC C  
C      1  0.7057120000000  0.4511240000000  0.4518100000000 1.0
C      1  0.7057120000000  0.5488760000000  0.5481900000000 1.0
C      1  0.2942880000000  0.4511240000000  0.4518100000000 1.0
C      1  0.2942880000000  0.5488760000000  0.5481900000000 1.0
C      1  0.7057120000000  0.4511240000000  0.5481900000000 1.0
C      1  0.7057120000000  0.5488760000000  0.4518100000000 1.0
C      1  0.2942880000000  0.4511240000000  0.5481900000000 1.0
C      1  0.2942880000000  0.5488760000000  0.4518100000000 1.0
C      1  0.4527060000000  0.4521890000000  0.4090770000000 1.0
C      1  0.4527060000000  0.5478110000000  0.5909230000000 1.0
C      1  0.5472940000000  0.4521890000000  0.4090770000000 1.0
C      1  0.5472940000000  0.5478110000000  0.5909230000000 1.0
C      1  0.4527060000000  0.4521890000000  0.5909230000000 1.0
C      1  0.4527060000000  0.5478110000000  0.4090770000000 1.0
C      1  0.5472940000000  0.4521890000000  0.5909230000000 1.0
C      1  0.5472940000000  0.5478110000000  0.4090770000000 1.0
C      1  0.5526550000000  0.4168540000000  0.7429700000000 1.0
C      1  0.5526550000000  0.5831460000000  0.2570300000000 1.0
C      1  0.4473450000000  0.4168540000000  0.7429700000000 1.0
C      1  0.4473450000000  0.5831460000000  0.2570300000000 1.0
C      1  0.5526550000000  0.4168540000000  0.2570300000000 1.0
C      1  0.5526550000000  0.5831460000000  0.7429700000000 1.0
C      1  0.4473450000000  0.4168540000000  0.2570300000000 1.0
C      1  0.4473450000000  0.5831460000000  0.7429700000000 1.0
C      1  0.4525840000000  0.2698090000000  0.5503470000000 1.0
C      1  0.4525840000000  0.7301910000000  0.4496530000000 1.0
C      1  0.5474160000000  0.2698090000000  0.5503470000000 1.0
C      1  0.5474160000000  0.7301910000000  0.4496530000000 1.0
C      1  0.4525840000000  0.2698090000000  0.4496530000000 1.0
C      1  0.4525840000000  0.7301910000000  0.5503470000000 1.0
C      1  0.5474160000000  0.2698090000000  0.4496530000000 1.0
C      1  0.5474160000000  0.7301910000000  0.5503470000000 1.0
C      1  0.3623200000000  0.3080710000000  0.5477470000000 1.0
C      1  0.3623200000000  0.6919290000000  0.4522530000000 1.0
C      1  0.6376800000000  0.3080710000000  0.5477470000000 1.0
C      1  0.6376800000000  0.6919290000000  0.4522530000000 1.0
C      1  0.3623200000000  0.3080710000000  0.4522530000000 1.0
C      1  0.3623200000000  0.6919290000000  0.5477470000000 1.0
C      1  0.6376800000000  0.3080710000000  0.4522530000000 1.0
C      1  0.6376800000000  0.6919290000000  0.5477470000000 1.0
C      1  0.6636580000000  0.6184830000000  0.3992610000000 1.0
C      1  0.6636580000000  0.3815170000000  0.6007390000000 1.0
C      1  0.3363420000000  0.6184830000000  0.3992610000000 1.0
C      1  0.3363420000000  0.3815170000000  0.6007390000000 1.0
C      1  0.6636580000000  0.6184830000000  0.6007390000000 1.0
C      1  0.6636580000000  0.3815170000000  0.3992610000000 1.0
C      1  0.3363420000000  0.6184830000000  0.6007390000000 1.0
C      1  0.3363420000000  0.3815170000000  0.3992610000000 1.0
C      1  0.5954080000000  0.5908020000000  0.3372780000000 1.0
C      1  0.5954080000000  0.4091980000000  0.6627220000000 1.0
C      1  0.4045920000000  0.5908020000000  0.3372780000000 1.0
C      1  0.4045920000000  0.4091980000000  0.6627220000000 1.0
C      1  0.5954080000000  0.5908020000000  0.6627220000000 1.0
C      1  0.5954080000000  0.4091980000000  0.3372780000000 1.0
C      1  0.4045920000000  0.5908020000000  0.6627220000000 1.0
C      1  0.4045920000000  0.4091980000000  0.3372780000000 1.0
C      1  0.4492950000000  0.5000000000000  0.7926410000000 1.0
C      1  0.5507050000000  0.5000000000000  0.2073590000000 1.0
C      1  0.4492950000000  0.5000000000000  0.2073590000000 1.0
C      1  0.5507050000000  0.5000000000000  0.7926410000000 1.0
END
