TITL C-2159255-4746-384 -0.00183256805057087 3375 -377.928401110456 0 0 60 (Th) n - 1
REM
REM in /scratch/bkarasulu/871
REM
REM
REM
REM
REM
REM ./C.cell (a2850807a9bf4ad07a5b6933b78d9264)
REM AIRSS Version 0.9.1 bugfix July 2018 build 013d7b7c2542+ Fri, 06 Jul 2018 19:26:36 +0100
REM compiler GCC version 9.2.1 20190827 (Red Hat 9.2.1-1)
REM options -cpp -mtune=generic -march=x86-64 -g -O0 -fpre-include=/usr/include/finclude/math-vector-fortran.h
REM seed 1668496243 942416549 2099712218 203399667 -201229610 -1942017203 -1878469284 -486538460 -1075400758 -1942466373 1236495156 268947150 51080404 1449611326 -870812907 1162640696 1596439240 -1927817996 -1403755020 710252233 256827994 -2133460165 619155599 1231691635 -1904545309 -1592943411 -1921546569 -637766694 1490242696 502838013 22762480 249098796 1887823596
REM
CELL 1.54180   15.00000   15.00000   15.00000   90.00000   90.00000   90.00000
LATT -1
SFAC C  
C      1  0.5850450000000  0.6599210000000  0.5890830000000 1.0
C      1  0.5890830000000  0.5850450000000  0.6599210000000 1.0
C      1  0.6599210000000  0.5890830000000  0.5850450000000 1.0
C      1  0.4149550000000  0.3400790000000  0.5890830000000 1.0
C      1  0.4149550000000  0.6599210000000  0.4109170000000 1.0
C      1  0.5850450000000  0.3400790000000  0.4109170000000 1.0
C      1  0.4109170000000  0.4149550000000  0.6599210000000 1.0
C      1  0.4109170000000  0.5850450000000  0.3400790000000 1.0
C      1  0.5890830000000  0.4149550000000  0.3400790000000 1.0
C      1  0.3400790000000  0.4109170000000  0.5850450000000 1.0
C      1  0.3400790000000  0.5890830000000  0.4149550000000 1.0
C      1  0.6599210000000  0.4109170000000  0.4149550000000 1.0
C      1  0.5850450000000  0.6599210000000  0.4109170000000 1.0
C      1  0.5890830000000  0.5850450000000  0.3400790000000 1.0
C      1  0.6599210000000  0.5890830000000  0.4149550000000 1.0
C      1  0.4149550000000  0.3400790000000  0.4109170000000 1.0
C      1  0.4149550000000  0.6599210000000  0.5890830000000 1.0
C      1  0.5850450000000  0.3400790000000  0.5890830000000 1.0
C      1  0.4109170000000  0.4149550000000  0.3400790000000 1.0
C      1  0.4109170000000  0.5850450000000  0.6599210000000 1.0
C      1  0.5890830000000  0.4149550000000  0.6599210000000 1.0
C      1  0.3400790000000  0.4109170000000  0.4149550000000 1.0
C      1  0.3400790000000  0.5890830000000  0.5850450000000 1.0
C      1  0.6599210000000  0.4109170000000  0.5850450000000 1.0
C      1  0.3731660000000  0.7375150000000  0.5422840000000 1.0
C      1  0.5422840000000  0.3731660000000  0.7375150000000 1.0
C      1  0.7375150000000  0.5422840000000  0.3731660000000 1.0
C      1  0.6268340000000  0.2624850000000  0.5422840000000 1.0
C      1  0.6268340000000  0.7375150000000  0.4577160000000 1.0
C      1  0.3731660000000  0.2624850000000  0.4577160000000 1.0
C      1  0.4577160000000  0.6268340000000  0.7375150000000 1.0
C      1  0.4577160000000  0.3731660000000  0.2624850000000 1.0
C      1  0.5422840000000  0.6268340000000  0.2624850000000 1.0
C      1  0.2624850000000  0.4577160000000  0.3731660000000 1.0
C      1  0.2624850000000  0.5422840000000  0.6268340000000 1.0
C      1  0.7375150000000  0.4577160000000  0.6268340000000 1.0
C      1  0.3731660000000  0.7375150000000  0.4577160000000 1.0
C      1  0.5422840000000  0.3731660000000  0.2624850000000 1.0
C      1  0.7375150000000  0.5422840000000  0.6268340000000 1.0
C      1  0.6268340000000  0.2624850000000  0.4577160000000 1.0
C      1  0.6268340000000  0.7375150000000  0.5422840000000 1.0
C      1  0.3731660000000  0.2624850000000  0.5422840000000 1.0
C      1  0.4577160000000  0.6268340000000  0.2624850000000 1.0
C      1  0.4577160000000  0.3731660000000  0.7375150000000 1.0
C      1  0.5422840000000  0.6268340000000  0.7375150000000 1.0
C      1  0.2624850000000  0.4577160000000  0.6268340000000 1.0
C      1  0.2624850000000  0.5422840000000  0.3731660000000 1.0
C      1  0.7375150000000  0.4577160000000  0.3731660000000 1.0
C      1  0.5000000000000  0.3524840000000  0.4544400000000 1.0
C      1  0.4544400000000  0.5000000000000  0.3524840000000 1.0
C      1  0.3524840000000  0.4544400000000  0.5000000000000 1.0
C      1  0.5000000000000  0.6475160000000  0.4544400000000 1.0
C      1  0.5000000000000  0.3524840000000  0.5455600000000 1.0
C      1  0.5000000000000  0.6475160000000  0.5455600000000 1.0
C      1  0.5455600000000  0.5000000000000  0.3524840000000 1.0
C      1  0.5455600000000  0.5000000000000  0.6475160000000 1.0
C      1  0.4544400000000  0.5000000000000  0.6475160000000 1.0
C      1  0.6475160000000  0.5455600000000  0.5000000000000 1.0
C      1  0.6475160000000  0.4544400000000  0.5000000000000 1.0
C      1  0.3524840000000  0.5455600000000  0.5000000000000 1.0
END
