TITL C-2158988-7926-463 -0.00218993331772134 3375 -398.247003870547 0 0 60 (C1) n - 1
REM
REM in /scratch/bkarasulu/868
REM
REM
REM
REM
REM
REM ./C.cell (a2850807a9bf4ad07a5b6933b78d9264)
REM AIRSS Version 0.9.1 bugfix July 2018 build 013d7b7c2542+ Fri, 06 Jul 2018 19:26:36 +0100
REM compiler GCC version 9.2.1 20190827 (Red Hat 9.2.1-1)
REM options -cpp -mtune=generic -march=x86-64 -g -O0 -fpre-include=/usr/include/finclude/math-vector-fortran.h
REM seed 1158042462 -1971121163 -1347529251 -915799965 -940959832 882065995 551601350 57719478 -1778586836 1133634810 -161264873 754137066 2022659207 -1402203524 729768563 123855874 977065603 2115404316 -1531258832 -461715710 208668522 -246246782 1608406254 -2065457370 -1116246892 2004202706 1037877624 -1959985582 20196295 -1993118118 -2092761847 122738970 -283636432
REM
CELL 1.54180   15.00000   15.00000   15.00000   90.00000   90.00000   90.00000
LATT -1
SFAC C  
C      1  0.4795280000000  0.7277990000000  0.4492050000000 1.0
C      1  0.7288580000000  0.4883720000000  0.5849460000000 1.0
C      1  0.5364950000000  0.6139560000000  0.5385880000000 1.0
C      1  0.4396560000000  0.4265840000000  0.6820590000000 1.0
C      1  0.7588610000000  0.6506870000000  0.5869330000000 1.0
C      1  0.4090680000000  0.7010680000000  0.5085040000000 1.0
C      1  0.4295170000000  0.3895880000000  0.5948960000000 1.0
C      1  0.6632980000000  0.3391970000000  0.5637540000000 1.0
C      1  0.5685580000000  0.7482250000000  0.4857320000000 1.0
C      1  0.6273580000000  0.5918800000000  0.5461320000000 1.0
C      1  0.3735860000000  0.4518160000000  0.5379610000000 1.0
C      1  0.6759690000000  0.4924800000000  0.4142380000000 1.0
C      1  0.2333250000000  0.4511320000000  0.3948120000000 1.0
C      1  0.5153260000000  0.6771470000000  0.6194300000000 1.0
C      1  0.4788320000000  0.4441740000000  0.2863100000000 1.0
C      1  0.4893070000000  0.5392340000000  0.5688310000000 1.0
C      1  0.7678720000000  0.5674040000000  0.5441210000000 1.0
C      1  0.3619940000000  0.5637580000000  0.4209670000000 1.0
C      1  0.5805320000000  0.3525670000000  0.7161760000000 1.0
C      1  0.6086670000000  0.6999130000000  0.4091010000000 1.0
C      1  0.4718280000000  0.3557800000000  0.3256710000000 1.0
C      1  0.5931080000000  0.7311410000000  0.5781480000000 1.0
C      1  0.3735510000000  0.3097800000000  0.4128070000000 1.0
C      1  0.6317710000000  0.5094250000000  0.6000400000000 1.0
C      1  0.5166310000000  0.3620740000000  0.5631440000000 1.0
C      1  0.3730840000000  0.3619430000000  0.3258000000000 1.0
C      1  0.4872430000000  0.6067810000000  0.3200490000000 1.0
C      1  0.7269870000000  0.4061760000000  0.5399300000000 1.0
C      1  0.5324310000000  0.3058050000000  0.4820470000000 1.0
C      1  0.4726770000000  0.3060370000000  0.4090600000000 1.0
C      1  0.5336130000000  0.4334270000000  0.7103570000000 1.0
C      1  0.6859860000000  0.6571810000000  0.4119410000000 1.0
C      1  0.7175500000000  0.4103560000000  0.4385480000000 1.0
C      1  0.3955260000000  0.5948680000000  0.3304750000000 1.0
C      1  0.6278400000000  0.3032770000000  0.4771810000000 1.0
C      1  0.2856540000000  0.4417850000000  0.6679050000000 1.0
C      1  0.2516660000000  0.3532670000000  0.5164920000000 1.0
C      1  0.4347530000000  0.7176880000000  0.5966630000000 1.0
C      1  0.3831540000000  0.4490910000000  0.2809840000000 1.0
C      1  0.3143720000000  0.2972640000000  0.4773830000000 1.0
C      1  0.5452370000000  0.4603530000000  0.5445840000000 1.0
C      1  0.3647740000000  0.4786410000000  0.7048650000000 1.0
C      1  0.3895160000000  0.5475960000000  0.5687840000000 1.0
C      1  0.2876730000000  0.4160330000000  0.5810400000000 1.0
C      1  0.6896350000000  0.3254920000000  0.4114160000000 1.0
C      1  0.3655560000000  0.6155270000000  0.5015470000000 1.0
C      1  0.4024310000000  0.5566980000000  0.6674040000000 1.0
C      1  0.4126210000000  0.4689280000000  0.4435900000000 1.0
C      1  0.5150350000000  0.4771470000000  0.4556380000000 1.0
C      1  0.5740400000000  0.5177210000000  0.6845070000000 1.0
C      1  0.1996780000000  0.3926450000000  0.4465540000000 1.0
C      1  0.5831460000000  0.4945320000000  0.3882680000000 1.0
C      1  0.5320910000000  0.5177670000000  0.3103400000000 1.0
C      1  0.6714600000000  0.6737650000000  0.5848900000000 1.0
C      1  0.3372880000000  0.5288830000000  0.2908240000000 1.0
C      1  0.2796950000000  0.5236310000000  0.3703010000000 1.0
C      1  0.5912140000000  0.3370280000000  0.6271750000000 1.0
C      1  0.5021250000000  0.5828180000000  0.6675100000000 1.0
C      1  0.7017360000000  0.5747410000000  0.4604820000000 1.0
C      1  0.5190190000000  0.6799280000000  0.3729590000000 1.0
END
