TITL C-2159255-4746-36 -0.00125191296873823 3375 -401.187190237866 0 0 60 (C2) n - 1
REM
REM in /scratch/bkarasulu/871
REM
REM
REM
REM
REM
REM ./C.cell (a2850807a9bf4ad07a5b6933b78d9264)
REM AIRSS Version 0.9.1 bugfix July 2018 build 013d7b7c2542+ Fri, 06 Jul 2018 19:26:36 +0100
REM compiler GCC version 9.2.1 20190827 (Red Hat 9.2.1-1)
REM options -cpp -mtune=generic -march=x86-64 -g -O0 -fpre-include=/usr/include/finclude/math-vector-fortran.h
REM seed -1537594470 1899006810 1625564571 64757399 -1989477691 -487509034 -1372335383 14179069 1206667045 -100764887 693294606 2124559945 -401280699 1604546291 -115910 1335109151 1858693269 1329521772 -924807355 40094156 -639730321 -1989068405 325999663 -1692967628 253154443 -701962648 1267966425 780636685 1934032016 1928523079 -590201569 2103166669 11381769
REM
CELL 1.54180   15.00000   15.00000   15.00000   90.00000   90.00000   90.00000
LATT -1
SFAC C  
C      1  0.4549410000000  0.6518710000000  0.2955840000000 1.0
C      1  0.5450590000000  0.6518710000000  0.7044160000000 1.0
C      1  0.4201650000000  0.4915390000000  0.2726040000000 1.0
C      1  0.5798350000000  0.4915390000000  0.7273960000000 1.0
C      1  0.3925200000000  0.6779280000000  0.4390090000000 1.0
C      1  0.6074800000000  0.6779280000000  0.5609910000000 1.0
C      1  0.7117880000000  0.5451530000000  0.5629530000000 1.0
C      1  0.2882120000000  0.5451530000000  0.4370470000000 1.0
C      1  0.5573990000000  0.4924400000000  0.3927160000000 1.0
C      1  0.4426010000000  0.4924400000000  0.6072840000000 1.0
C      1  0.3979620000000  0.4184690000000  0.3319040000000 1.0
C      1  0.6020380000000  0.4184690000000  0.6680960000000 1.0
C      1  0.6030770000000  0.3263510000000  0.4057630000000 1.0
C      1  0.3969230000000  0.3263510000000  0.5942370000000 1.0
C      1  0.4527390000000  0.3972150000000  0.4805060000000 1.0
C      1  0.5472610000000  0.3972150000000  0.5194940000000 1.0
C      1  0.4630030000000  0.3303580000000  0.6671640000000 1.0
C      1  0.5369970000000  0.3303580000000  0.3328360000000 1.0
C      1  0.6975730000000  0.4580290000000  0.4634110000000 1.0
C      1  0.3024270000000  0.4580290000000  0.5365890000000 1.0
C      1  0.3279920000000  0.3859890000000  0.3912020000000 1.0
C      1  0.6720080000000  0.3859890000000  0.6087980000000 1.0
C      1  0.5560570000000  0.5483960000000  0.5527570000000 1.0
C      1  0.4439430000000  0.5483960000000  0.4472430000000 1.0
C      1  0.4528080000000  0.3930480000000  0.7324780000000 1.0
C      1  0.5471920000000  0.3930480000000  0.2675220000000 1.0
C      1  0.4506430000000  0.5660440000000  0.5415150000000 1.0
C      1  0.5493570000000  0.5660440000000  0.4584850000000 1.0
C      1  0.5477250000000  0.6311560000000  0.3045400000000 1.0
C      1  0.4522750000000  0.6311560000000  0.6954600000000 1.0
C      1  0.6115340000000  0.4218610000000  0.4363060000000 1.0
C      1  0.3884660000000  0.4218610000000  0.5636940000000 1.0
C      1  0.3970980000000  0.5783700000000  0.3074550000000 1.0
C      1  0.6029020000000  0.5783700000000  0.6925450000000 1.0
C      1  0.7114530000000  0.5528160000000  0.4659030000000 1.0
C      1  0.2885470000000  0.5528160000000  0.5340970000000 1.0
C      1  0.3975270000000  0.6596840000000  0.5428660000000 1.0
C      1  0.6024730000000  0.6596840000000  0.4571340000000 1.0
C      1  0.2889750000000  0.4491530000000  0.4419010000000 1.0
C      1  0.7110250000000  0.4491530000000  0.5580990000000 1.0
C      1  0.6871220000000  0.6262330000000  0.4252180000000 1.0
C      1  0.3128780000000  0.6262330000000  0.5747820000000 1.0
C      1  0.6374040000000  0.5920170000000  0.6008810000000 1.0
C      1  0.3625960000000  0.5920170000000  0.3991190000000 1.0
C      1  0.4610230000000  0.4609270000000  0.4082230000000 1.0
C      1  0.5389770000000  0.4609270000000  0.5917770000000 1.0
C      1  0.5551780000000  0.3282120000000  0.6538180000000 1.0
C      1  0.4448220000000  0.3282120000000  0.3461820000000 1.0
C      1  0.6213640000000  0.2759120000000  0.4813170000000 1.0
C      1  0.3786360000000  0.2759120000000  0.5186830000000 1.0
C      1  0.5660930000000  0.5388780000000  0.3062080000000 1.0
C      1  0.4339070000000  0.5388780000000  0.6937920000000 1.0
C      1  0.6059240000000  0.3216270000000  0.5641330000000 1.0
C      1  0.3940760000000  0.3216270000000  0.4358670000000 1.0
C      1  0.5157680000000  0.4766450000000  0.2521770000000 1.0
C      1  0.4842320000000  0.4766450000000  0.7478230000000 1.0
C      1  0.4461630000000  0.6962070000000  0.6184260000000 1.0
C      1  0.5538370000000  0.6962070000000  0.3815740000000 1.0
C      1  0.5422710000000  0.7074740000000  0.6210160000000 1.0
C      1  0.4577290000000  0.7074740000000  0.3789840000000 1.0
END
