TITL C-2159252-5904-424 -0.00201431580128568 3375 -418.362196547641 0 0 60 (C5v) n - 1
REM
REM in /scratch/bkarasulu/870
REM
REM
REM
REM
REM
REM ./C.cell (a2850807a9bf4ad07a5b6933b78d9264)
REM AIRSS Version 0.9.1 bugfix July 2018 build 013d7b7c2542+ Fri, 06 Jul 2018 19:26:36 +0100
REM compiler GCC version 9.2.1 20190827 (Red Hat 9.2.1-1)
REM options -cpp -mtune=generic -march=x86-64 -g -O0 -fpre-include=/usr/include/finclude/math-vector-fortran.h
REM seed -1826628662 -971255233 1682265260 -1886558759 668348216 749427039 -1069328876 -137373827 -480740307 2101877507 -1486485191 -1704307355 -2009299892 -1858367722 -1826342919 -813505158 -734053406 406569771 1610973733 -1002751673 -1175402506 -936387968 -734862562 -706456919 -376051551 -1317327765 341399403 518778669 1865228954 1914679166 -1833142533 1354172586 34603158
REM
CELL 1.54180   15.00000   15.00000   15.00000   90.00000   90.00000   90.00000
LATT -1
SFAC C  
C      1  0.4754440000000  0.4950700000000  0.2659500000000 1.0
C      1  0.4754440000000  0.2758830000000  0.4323650000000 1.0
C      1  0.4754450000000  0.3664180000000  0.6922480000000 1.0
C      1  0.4754470000000  0.6415580000000  0.6864520000000 1.0
C      1  0.4754470000000  0.7210710000000  0.4229860000000 1.0
C      1  0.7009720000000  0.3974080000000  0.5953830000000 1.0
C      1  0.7009730000000  0.5590110000000  0.6270440000000 1.0
C      1  0.7009730000000  0.6390610000000  0.4831340000000 1.0
C      1  0.7009720000000  0.5269320000000  0.3625300000000 1.0
C      1  0.7009710000000  0.3775830000000  0.4319050000000 1.0
C      1  0.3832040000000  0.6298390000000  0.6636130000000 1.0
C      1  0.3832030000000  0.6957290000000  0.4270750000000 1.0
C      1  0.3832010000000  0.4911270000000  0.2913170000000 1.0
C      1  0.3832000000000  0.2987890000000  0.4439530000000 1.0
C      1  0.3832010000000  0.3845190000000  0.6740440000000 1.0
C      1  0.5571640000000  0.3064960000000  0.5717710000000 1.0
C      1  0.5571660000000  0.5084610000000  0.7062120000000 1.0
C      1  0.5571660000000  0.6987330000000  0.5556740000000 1.0
C      1  0.5571640000000  0.6143610000000  0.3281960000000 1.0
C      1  0.5571630000000  0.3719460000000  0.3381450000000 1.0
C      1  0.3832000000000  0.3462630000000  0.3586080000000 1.0
C      1  0.3832010000000  0.3180200000000  0.6025210000000 1.0
C      1  0.3832030000000  0.5412680000000  0.7047550000000 1.0
C      1  0.3832040000000  0.7074860000000  0.5240250000000 1.0
C      1  0.3832020000000  0.5869660000000  0.3100930000000 1.0
C      1  0.4754440000000  0.2985480000000  0.6192480000000 1.0
C      1  0.4754470000000  0.5511590000000  0.7284440000000 1.0
C      1  0.4754480000000  0.7330720000000  0.5219370000000 1.0
C      1  0.4754450000000  0.5928860000000  0.2851140000000 1.0
C      1  0.4754440000000  0.3243360000000  0.3452580000000 1.0
C      1  0.7382790000000  0.3651880000000  0.5163490000000 1.0
C      1  0.7382800000000  0.4738880000000  0.6332660000000 1.0
C      1  0.7382810000000  0.6186720000000  0.5660120000000 1.0
C      1  0.7382800000000  0.5994540000000  0.4075300000000 1.0
C      1  0.7382790000000  0.4427910000000  0.3768390000000 1.0
C      1  0.5571630000000  0.4589240000000  0.2977430000000 1.0
C      1  0.5571630000000  0.2949500000000  0.4765640000000 1.0
C      1  0.5571650000000  0.4143470000000  0.6877730000000 1.0
C      1  0.5571660000000  0.6521130000000  0.6394850000000 1.0
C      1  0.5571650000000  0.6796640000000  0.3984340000000 1.0
C      1  0.6114540000000  0.5342400000000  0.3252340000000 1.0
C      1  0.6114540000000  0.3443690000000  0.4134300000000 1.0
C      1  0.6114550000000  0.3695740000000  0.6212620000000 1.0
C      1  0.6114560000000  0.5750220000000  0.6615140000000 1.0
C      1  0.6114560000000  0.6767910000000  0.4785590000000 1.0
C      1  0.2999390000000  0.4200740000000  0.5096940000000 1.0
C      1  0.2999400000000  0.4845210000000  0.5790120000000 1.0
C      1  0.2999410000000  0.5703620000000  0.5391390000000 1.0
C      1  0.2999410000000  0.5589670000000  0.4451780000000 1.0
C      1  0.2999400000000  0.4660840000000  0.4269800000000 1.0
C      1  0.3428110000000  0.3353520000000  0.5199690000000 1.0
C      1  0.3428130000000  0.4681130000000  0.6627610000000 1.0
C      1  0.3428150000000  0.6449410000000  0.5806240000000 1.0
C      1  0.3428150000000  0.6214670000000  0.3870680000000 1.0
C      1  0.3428120000000  0.4301310000000  0.3495810000000 1.0
C      1  0.4749130000000  0.4305870000000  0.4613870000000 1.0
C      1  0.4749150000000  0.4418280000000  0.5540840000000 1.0
C      1  0.4749170000000  0.5334610000000  0.5720390000000 1.0
C      1  0.4749170000000  0.5788530000000  0.4904380000000 1.0
C      1  0.4749150000000  0.5152730000000  0.4220510000000 1.0
END
