TITL C-2159252-5904-199 -0.00186136879740827 3375 -385.392473673284 0 0 60 (C2) n - 1
REM
REM in /scratch/bkarasulu/870
REM
REM
REM
REM
REM
REM ./C.cell (a2850807a9bf4ad07a5b6933b78d9264)
REM AIRSS Version 0.9.1 bugfix July 2018 build 013d7b7c2542+ Fri, 06 Jul 2018 19:26:36 +0100
REM compiler GCC version 9.2.1 20190827 (Red Hat 9.2.1-1)
REM options -cpp -mtune=generic -march=x86-64 -g -O0 -fpre-include=/usr/include/finclude/math-vector-fortran.h
REM seed 901438780 70649135 702690735 287945081 2080577542 -527027578 506395319 49577706 -12899509 1333223431 638846029 -1054376591 1531504291 -226035684 -422410601 -859077449 -970985802 -1751150280 1971238546 -1948847831 491886470 1231879671 -1397432765 603176081 -1522137784 2146734615 -774531780 917826242 2113541814 -1105144001 -507484889 1014751016 -1175624906
REM
CELL 1.54180   15.00000   15.00000   15.00000   90.00000   90.00000   90.00000
LATT -1
SFAC C  
C      1  0.6591080000000  0.6305310000000  0.6543390000000 1.0
C      1  0.3408910000000  0.3694690000000  0.6543390000000 1.0
C      1  0.5613200000000  0.6220150000000  0.4958870000000 1.0
C      1  0.4386800000000  0.3779850000000  0.4958880000000 1.0
C      1  0.4218120000000  0.3360470000000  0.3982070000000 1.0
C      1  0.5781880000000  0.6639540000000  0.3982070000000 1.0
C      1  0.5365980000000  0.6170360000000  0.3277900000000 1.0
C      1  0.4634020000000  0.3829640000000  0.3277910000000 1.0
C      1  0.6178260000000  0.4690820000000  0.4015730000000 1.0
C      1  0.3821750000000  0.5309170000000  0.4015740000000 1.0
C      1  0.4139330000000  0.5144090000000  0.2387340000000 1.0
C      1  0.5860670000000  0.4855910000000  0.2387340000000 1.0
C      1  0.4282660000000  0.5343180000000  0.4863250000000 1.0
C      1  0.5717350000000  0.4656810000000  0.4863240000000 1.0
C      1  0.7211710000000  0.5849090000000  0.4899470000000 1.0
C      1  0.2788290000000  0.4150910000000  0.4899470000000 1.0
C      1  0.4529500000000  0.4773900000000  0.3241910000000 1.0
C      1  0.5470500000000  0.5226110000000  0.3241900000000 1.0
C      1  0.6219390000000  0.7079260000000  0.6250050000000 1.0
C      1  0.3780600000000  0.2920730000000  0.6250050000000 1.0
C      1  0.4246610000000  0.4599110000000  0.5454010000000 1.0
C      1  0.5753400000000  0.5400890000000  0.5453990000000 1.0
C      1  0.4023570000000  0.2898200000000  0.5364090000000 1.0
C      1  0.5976430000000  0.7101800000000  0.5364090000000 1.0
C      1  0.4406340000000  0.7052520000000  0.5422070000000 1.0
C      1  0.5593660000000  0.2947470000000  0.5422060000000 1.0
C      1  0.6327520000000  0.4157000000000  0.2510820000000 1.0
C      1  0.3672480000000  0.5843000000000  0.2510830000000 1.0
C      1  0.6934670000000  0.6735020000000  0.5023920000000 1.0
C      1  0.3065340000000  0.3264980000000  0.5023920000000 1.0
C      1  0.3935070000000  0.4402470000000  0.6892570000000 1.0
C      1  0.6064920000000  0.5597530000000  0.6892580000000 1.0
C      1  0.5140710000000  0.5476100000000  0.6520260000000 1.0
C      1  0.4859280000000  0.4523910000000  0.6520230000000 1.0
C      1  0.2988240000000  0.6366400000000  0.5837420000000 1.0
C      1  0.7011760000000  0.3633600000000  0.5837420000000 1.0
C      1  0.4568540000000  0.6710370000000  0.3482360000000 1.0
C      1  0.5431460000000  0.3289630000000  0.3482360000000 1.0
C      1  0.3861460000000  0.6675860000000  0.6080770000000 1.0
C      1  0.6138540000000  0.3324150000000  0.6080770000000 1.0
C      1  0.4906960000000  0.2434390000000  0.4982270000000 1.0
C      1  0.5093040000000  0.7565610000000  0.4982270000000 1.0
C      1  0.6997530000000  0.4953460000000  0.4591740000000 1.0
C      1  0.3002480000000  0.5046540000000  0.4591740000000 1.0
C      1  0.4241730000000  0.5934720000000  0.6645130000000 1.0
C      1  0.5758260000000  0.4065280000000  0.6645110000000 1.0
C      1  0.5090000000000  0.7320880000000  0.4059810000000 1.0
C      1  0.4910000000000  0.2679120000000  0.4059810000000 1.0
C      1  0.3587310000000  0.5281960000000  0.6808610000000 1.0
C      1  0.6412680000000  0.4718050000000  0.6808600000000 1.0
C      1  0.3808770000000  0.6146250000000  0.3428290000000 1.0
C      1  0.6191230000000  0.3853750000000  0.3428290000000 1.0
C      1  0.7265410000000  0.4376750000000  0.5342060000000 1.0
C      1  0.2734590000000  0.5623260000000  0.5342060000000 1.0
C      1  0.7173940000000  0.4500590000000  0.6271910000000 1.0
C      1  0.2826060000000  0.5499410000000  0.6271910000000 1.0
C      1  0.4666970000000  0.6169510000000  0.5081720000000 1.0
C      1  0.5333040000000  0.3830480000000  0.5081710000000 1.0
C      1  0.2810230000000  0.3797000000000  0.5780220000000 1.0
C      1  0.7189770000000  0.6202990000000  0.5780220000000 1.0
END
