TITL C-2159255-4746-620 -0.00140969584659541 3375 -407.866805386413 0 0 60 (C5) n - 1
REM
REM in /scratch/bkarasulu/871
REM
REM
REM
REM
REM
REM ./C.cell (a2850807a9bf4ad07a5b6933b78d9264)
REM AIRSS Version 0.9.1 bugfix July 2018 build 013d7b7c2542+ Fri, 06 Jul 2018 19:26:36 +0100
REM compiler GCC version 9.2.1 20190827 (Red Hat 9.2.1-1)
REM options -cpp -mtune=generic -march=x86-64 -g -O0 -fpre-include=/usr/include/finclude/math-vector-fortran.h
REM seed -1604450536 -1108571786 -841181442 -2109443222 1615182320 -818905208 -1410763436 -99024683 -2098361651 934334243 -1541540579 1579115775 -2066318339 1066965329 -1834100323 -365764028 745455065 -1488727908 1435459203 1028585062 806921668 -430920523 966453665 1896927719 436670883 -729760135 -1029687810 -2098372363 -684825342 1134539247 113915014 1814537979 -527112783
REM
CELL 1.54180   15.00000   15.00000   15.00000   90.00000   90.00000   90.00000
LATT -1
SFAC C  
C      1  0.5995570000000  0.3268410000000  0.4858190000000 1.0
C      1  0.5995570000000  0.4330040000000  0.6603020000000 1.0
C      1  0.5995570000000  0.6317530000000  0.6132530000000 1.0
C      1  0.5995570000000  0.6484240000000  0.4096920000000 1.0
C      1  0.5995570000000  0.4599780000000  0.3309330000000 1.0
C      1  0.4004430000000  0.3268410000000  0.4858190000000 1.0
C      1  0.4004430000000  0.4330040000000  0.6603020000000 1.0
C      1  0.4004430000000  0.6317530000000  0.6132530000000 1.0
C      1  0.4004430000000  0.6484240000000  0.4096920000000 1.0
C      1  0.4004430000000  0.4599780000000  0.3309330000000 1.0
C      1  0.5518150000000  0.4741000000000  0.5782930000000 1.0
C      1  0.5518150000000  0.5664570000000  0.5488260000000 1.0
C      1  0.5518150000000  0.5669730000000  0.4518840000000 1.0
C      1  0.5518150000000  0.4749340000000  0.4214360000000 1.0
C      1  0.5518150000000  0.4175360000000  0.4995610000000 1.0
C      1  0.4481850000000  0.4741000000000  0.5782930000000 1.0
C      1  0.4481850000000  0.5664570000000  0.5488260000000 1.0
C      1  0.4481850000000  0.5669730000000  0.4518840000000 1.0
C      1  0.4481850000000  0.4749340000000  0.4214360000000 1.0
C      1  0.4481850000000  0.4175360000000  0.4995610000000 1.0
C      1  0.6730570000000  0.3571500000000  0.4268190000000 1.0
C      1  0.6730570000000  0.3862580000000  0.6132440000000 1.0
C      1  0.6730570000000  0.5725530000000  0.6431700000000 1.0
C      1  0.6730560000000  0.6585830000000  0.4752400000000 1.0
C      1  0.6730570000000  0.5254560000000  0.3415270000000 1.0
C      1  0.3269430000000  0.3571500000000  0.4268190000000 1.0
C      1  0.3269430000000  0.3862580000000  0.6132440000000 1.0
C      1  0.3269430000000  0.5725530000000  0.6431700000000 1.0
C      1  0.3269440000000  0.6585830000000  0.4752400000000 1.0
C      1  0.3269430000000  0.5254560000000  0.3415270000000 1.0
C      1  0.3854860000000  0.3643580000000  0.3502120000000 1.0
C      1  0.3854860000000  0.3156270000000  0.5827160000000 1.0
C      1  0.3854860000000  0.5216940000000  0.7009100000000 1.0
C      1  0.3854860000000  0.6977810000000  0.5414530000000 1.0
C      1  0.3854870000000  0.6005410000000  0.3247090000000 1.0
C      1  0.6145140000000  0.3643580000000  0.3502120000000 1.0
C      1  0.6145140000000  0.3156270000000  0.5827160000000 1.0
C      1  0.6145140000000  0.5216940000000  0.7009100000000 1.0
C      1  0.6145140000000  0.6977810000000  0.5414530000000 1.0
C      1  0.6145130000000  0.6005410000000  0.3247090000000 1.0
C      1  0.2826060000000  0.5799340000000  0.4891850000000 1.0
C      1  0.2826060000000  0.5144150000000  0.4206360000000 1.0
C      1  0.2826060000000  0.4289750000000  0.4617650000000 1.0
C      1  0.2826060000000  0.4416890000000  0.5557330000000 1.0
C      1  0.2826060000000  0.5349870000000  0.5726800000000 1.0
C      1  0.7173940000000  0.5799340000000  0.4891850000000 1.0
C      1  0.7173940000000  0.5144150000000  0.4206360000000 1.0
C      1  0.7173940000000  0.4289750000000  0.4617650000000 1.0
C      1  0.7173940000000  0.4416890000000  0.5557330000000 1.0
C      1  0.7173940000000  0.5349870000000  0.5726800000000 1.0
C      1  0.4549660000000  0.7148750000000  0.4725910000000 1.0
C      1  0.4549660000000  0.5403310000000  0.2871720000000 1.0
C      1  0.4549660000000  0.3100520000000  0.3958760000000 1.0
C      1  0.4549660000000  0.3422740000000  0.6484740000000 1.0
C      1  0.4549660000000  0.5924670000000  0.6958880000000 1.0
C      1  0.5450340000000  0.7148750000000  0.4725910000000 1.0
C      1  0.5450340000000  0.5403310000000  0.2871720000000 1.0
C      1  0.5450340000000  0.3100520000000  0.3958760000000 1.0
C      1  0.5450340000000  0.3422740000000  0.6484740000000 1.0
C      1  0.5450340000000  0.5924670000000  0.6958880000000 1.0
END
