TITL C-2159255-4746-1157 -0.00186454448073777 3375 -398.923223691514 0 0 60 (T23) n - 1
REM
REM in /scratch/bkarasulu/871
REM
REM
REM
REM
REM
REM ./C.cell (a2850807a9bf4ad07a5b6933b78d9264)
REM AIRSS Version 0.9.1 bugfix July 2018 build 013d7b7c2542+ Fri, 06 Jul 2018 19:26:36 +0100
REM compiler GCC version 9.2.1 20190827 (Red Hat 9.2.1-1)
REM options -cpp -mtune=generic -march=x86-64 -g -O0 -fpre-include=/usr/include/finclude/math-vector-fortran.h
REM seed 1487007462 -1391060402 -431762472 -1644526853 432238577 843736357 486736220 -1024303583 1412120418 466029055 -709276211 -37638424 735083026 -795165599 1820570625 -1275577370 2019663004 990863056 1017555217 1509608051 32130907 885628429 -1435853747 164402866 1539312081 432375022 1605101966 1048027175 258802418 -686003323 173815719 -939868305 1004586418
REM
CELL 1.54180   15.00000   15.00000   15.00000   90.00000   90.00000   90.00000
LATT -1
SFAC C  
C      1  0.4525540000000  0.3082570000000  0.4287960000000 1.0
C      1  0.4287960000000  0.4525540000000  0.3082570000000 1.0
C      1  0.3082570000000  0.4287960000000  0.4525540000000 1.0
C      1  0.4525540000000  0.6917430000000  0.5712040000000 1.0
C      1  0.5474460000000  0.6917430000000  0.4287960000000 1.0
C      1  0.5474460000000  0.3082570000000  0.5712040000000 1.0
C      1  0.4287960000000  0.5474460000000  0.6917430000000 1.0
C      1  0.5712040000000  0.5474460000000  0.3082570000000 1.0
C      1  0.5712040000000  0.4525540000000  0.6917430000000 1.0
C      1  0.3082570000000  0.5712040000000  0.5474460000000 1.0
C      1  0.6917430000000  0.5712040000000  0.4525540000000 1.0
C      1  0.6917430000000  0.4287960000000  0.5474460000000 1.0
C      1  0.5067810000000  0.3955300000000  0.2934420000000 1.0
C      1  0.2934420000000  0.5067810000000  0.3955300000000 1.0
C      1  0.3955300000000  0.2934420000000  0.5067810000000 1.0
C      1  0.5067810000000  0.6044700000000  0.7065580000000 1.0
C      1  0.4932190000000  0.6044700000000  0.2934420000000 1.0
C      1  0.4932190000000  0.3955300000000  0.7065580000000 1.0
C      1  0.2934420000000  0.4932190000000  0.6044700000000 1.0
C      1  0.7065580000000  0.4932190000000  0.3955300000000 1.0
C      1  0.7065580000000  0.5067810000000  0.6044700000000 1.0
C      1  0.3955300000000  0.7065580000000  0.4932190000000 1.0
C      1  0.6044700000000  0.7065580000000  0.5067810000000 1.0
C      1  0.6044700000000  0.2934420000000  0.4932190000000 1.0
C      1  0.6578850000000  0.5085120000000  0.6875860000000 1.0
C      1  0.6875860000000  0.6578850000000  0.5085120000000 1.0
C      1  0.5085120000000  0.6875860000000  0.6578850000000 1.0
C      1  0.6578850000000  0.4914880000000  0.3124140000000 1.0
C      1  0.3421150000000  0.4914880000000  0.6875860000000 1.0
C      1  0.3421150000000  0.5085120000000  0.3124140000000 1.0
C      1  0.6875860000000  0.3421150000000  0.4914880000000 1.0
C      1  0.3124140000000  0.3421150000000  0.5085120000000 1.0
C      1  0.3124140000000  0.6578850000000  0.4914880000000 1.0
C      1  0.5085120000000  0.3124140000000  0.3421150000000 1.0
C      1  0.4914880000000  0.3124140000000  0.6578850000000 1.0
C      1  0.4914880000000  0.6875860000000  0.3421150000000 1.0
C      1  0.5330700000000  0.6028650000000  0.4671240000000 1.0
C      1  0.4671240000000  0.5330700000000  0.6028650000000 1.0
C      1  0.6028650000000  0.4671240000000  0.5330700000000 1.0
C      1  0.5330700000000  0.3971350000000  0.5328760000000 1.0
C      1  0.4669300000000  0.3971350000000  0.4671240000000 1.0
C      1  0.4669300000000  0.6028650000000  0.5328760000000 1.0
C      1  0.4671240000000  0.4669300000000  0.3971350000000 1.0
C      1  0.5328760000000  0.4669300000000  0.6028650000000 1.0
C      1  0.5328760000000  0.5330700000000  0.3971350000000 1.0
C      1  0.6028650000000  0.5328760000000  0.4669300000000 1.0
C      1  0.3971350000000  0.5328760000000  0.5330700000000 1.0
C      1  0.3971350000000  0.4671240000000  0.4669300000000 1.0
C      1  0.4573890000000  0.2760580000000  0.5816810000000 1.0
C      1  0.5816810000000  0.4573890000000  0.2760580000000 1.0
C      1  0.2760580000000  0.5816810000000  0.4573890000000 1.0
C      1  0.4573890000000  0.7239420000000  0.4183190000000 1.0
C      1  0.5426110000000  0.7239420000000  0.5816810000000 1.0
C      1  0.5426110000000  0.2760580000000  0.4183190000000 1.0
C      1  0.5816810000000  0.5426110000000  0.7239420000000 1.0
C      1  0.4183190000000  0.5426110000000  0.2760580000000 1.0
C      1  0.4183190000000  0.4573890000000  0.7239420000000 1.0
C      1  0.2760580000000  0.4183190000000  0.5426110000000 1.0
C      1  0.7239420000000  0.4183190000000  0.4573890000000 1.0
C      1  0.7239420000000  0.5816810000000  0.5426110000000 1.0
END
