TITL C-2158984-8299-574 -0.00333814248887575 3375 -396.851047980959 0 0 60 (C2v) n - 1
REM
REM in /scratch/bkarasulu/869
REM
REM
REM
REM
REM
REM ./C.cell (a2850807a9bf4ad07a5b6933b78d9264)
REM AIRSS Version 0.9.1 bugfix July 2018 build 013d7b7c2542+ Fri, 06 Jul 2018 19:26:36 +0100
REM compiler GCC version 9.2.1 20190827 (Red Hat 9.2.1-1)
REM options -cpp -mtune=generic -march=x86-64 -g -O0 -fpre-include=/usr/include/finclude/math-vector-fortran.h
REM seed 898262225 1989486367 -1833281780 2099059630 227488199 1215525769 -969743799 299386419 -149043582 1153994806 2068145703 1698223778 -1085727951 -1551727504 -662416685 2064170988 1408620542 -2104673964 828978141 -1519125323 -887888495 2031154761 -1508209810 -1880359611 -1209916507 1748830119 1483910569 1007680016 406393038 540712277 2009800140 1166180475 -215120844
REM
CELL 1.54180   15.00000   15.00000   15.00000   90.00000   90.00000   90.00000
LATT -1
SFAC C  
C      1  0.6196690000000  0.5950100000000  0.5835020000000 1.0
C      1  0.6190280000000  0.4113670000000  0.4156950000000 1.0
C      1  0.6190280000000  0.5950100000000  0.4156950000000 1.0
C      1  0.6196690000000  0.4113670000000  0.5835010000000 1.0
C      1  0.4561680000000  0.5684950000000  0.6718080000000 1.0
C      1  0.4548570000000  0.4378810000000  0.3286410000000 1.0
C      1  0.4548570000000  0.5684950000000  0.3286410000000 1.0
C      1  0.4561680000000  0.4378810000000  0.6718080000000 1.0
C      1  0.4870320000000  0.2051220000000  0.4524350000000 1.0
C      1  0.4873960000000  0.8012550000000  0.5477720000000 1.0
C      1  0.4873960000000  0.2051220000000  0.5477710000000 1.0
C      1  0.4870310000000  0.8012550000000  0.4524350000000 1.0
C      1  0.4585160000000  0.3803570000000  0.4045120000000 1.0
C      1  0.4592470000000  0.6260200000000  0.5959110000000 1.0
C      1  0.4592470000000  0.3803570000000  0.5959110000000 1.0
C      1  0.4585160000000  0.6260200000000  0.4045120000000 1.0
C      1  0.3008150000000  0.5998740000000  0.5805000000000 1.0
C      1  0.3002060000000  0.4065020000000  0.4211330000000 1.0
C      1  0.3002060000000  0.5998740000000  0.4211330000000 1.0
C      1  0.3008150000000  0.4065020000000  0.5805000000000 1.0
C      1  0.5625020000000  0.2559570000000  0.4232220000000 1.0
C      1  0.5630870000000  0.7504190000000  0.5764070000000 1.0
C      1  0.5630870000000  0.2559570000000  0.5764070000000 1.0
C      1  0.5625020000000  0.7504190000000  0.4232220000000 1.0
C      1  0.5489350000000  0.6631360000000  0.3896380000000 1.0
C      1  0.5497780000000  0.3432400000000  0.6100930000000 1.0
C      1  0.5497780000000  0.6631360000000  0.6100940000000 1.0
C      1  0.5489350000000  0.3432400000000  0.3896380000000 1.0
C      1  0.3690330000000  0.6657550000000  0.4119980000000 1.0
C      1  0.3697100000000  0.3406210000000  0.5891090000000 1.0
C      1  0.3697100000000  0.6657550000000  0.5891090000000 1.0
C      1  0.3690330000000  0.3406210000000  0.4119980000000 1.0
C      1  0.7013790000000  0.5495230000000  0.6144700000000 1.0
C      1  0.7004990000000  0.4568540000000  0.3841030000000 1.0
C      1  0.7004990000000  0.5495230000000  0.3841030000000 1.0
C      1  0.7013790000000  0.4568540000000  0.6144700000000 1.0
C      1  0.6415530000000  0.3659660000000  0.4995130000000 1.0
C      1  0.6415530000000  0.6404110000000  0.4995140000000 1.0
C      1  0.5231240000000  0.5031880000000  0.3308240000000 1.0
C      1  0.5244160000000  0.5031880000000  0.6691030000000 1.0
C      1  0.3314660000000  0.5031880000000  0.4147900000000 1.0
C      1  0.3321230000000  0.5031880000000  0.5866040000000 1.0
C      1  0.3543900000000  0.2942630000000  0.5006110000000 1.0
C      1  0.3543900000000  0.7121140000000  0.5006110000000 1.0
C      1  0.3873850000000  0.5031880000000  0.6671700000000 1.0
C      1  0.3861110000000  0.5031880000000  0.3338050000000 1.0
C      1  0.4062390000000  0.7914040000000  0.5004130000000 1.0
C      1  0.4062390000000  0.2149730000000  0.5004120000000 1.0
C      1  0.4552170000000  0.5759520000000  0.5002260000000 1.0
C      1  0.4552170000000  0.4304250000000  0.5002250000000 1.0
C      1  0.5724060000000  0.5031880000000  0.4173610000000 1.0
C      1  0.5730350000000  0.5031880000000  0.5821920000000 1.0
C      1  0.2743410000000  0.3651260000000  0.5009170000000 1.0
C      1  0.2743410000000  0.6412500000000  0.5009170000000 1.0
C      1  0.6148610000000  0.7309720000000  0.4996160000000 1.0
C      1  0.6148610000000  0.2754050000000  0.4996150000000 1.0
C      1  0.5201100000000  0.5031880000000  0.4999780000000 1.0
C      1  0.7513920000000  0.5031880000000  0.4518130000000 1.0
C      1  0.7517530000000  0.5031880000000  0.5463730000000 1.0
C      1  0.3873760000000  0.5031880000000  0.5004850000000 1.0
END
