TITL C-2159255-4746-1339 -0.00600754136299897 3375 -410.848247858138 0 0 60 (D5h) n - 1
REM
REM in /scratch/bkarasulu/871
REM
REM
REM
REM
REM
REM ./C.cell (a2850807a9bf4ad07a5b6933b78d9264)
REM AIRSS Version 0.9.1 bugfix July 2018 build 013d7b7c2542+ Fri, 06 Jul 2018 19:26:36 +0100
REM compiler GCC version 9.2.1 20190827 (Red Hat 9.2.1-1)
REM options -cpp -mtune=generic -march=x86-64 -g -O0 -fpre-include=/usr/include/finclude/math-vector-fortran.h
REM seed -1284308538 -302356831 -1444643883 -702889760 1443037369 984706834 -314889566 -128804559 1993750728 -1010576099 1597035266 472549858 -106340639 2094334035 -1831313717 1784299938 1572730394 374616483 1582359477 443746830 -1276594662 -697348471 -213404989 -1360978979 397130240 -687901436 -383144112 -1337357486 2043040091 -813435744 123613532 -1705581062 849748795
REM
CELL 1.54180   15.00000   15.00000   15.00000   90.00000   90.00000   90.00000
LATT -1
SFAC C  
C      1  0.6772750000000  0.4513430000000  0.5951300000000 1.0
C      1  0.4643060000000  0.4513430000000  0.6979950000000 1.0
C      1  0.3006650000000  0.4513430000000  0.5272370000000 1.0
C      1  0.4124980000000  0.4513430000000  0.3188380000000 1.0
C      1  0.6452540000000  0.4513430000000  0.3608000000000 1.0
C      1  0.6772750000000  0.5486570000000  0.5951300000000 1.0
C      1  0.4643060000000  0.5486570000000  0.6979950000000 1.0
C      1  0.3006650000000  0.5486570000000  0.5272370000000 1.0
C      1  0.4124980000000  0.5486570000000  0.3188380000000 1.0
C      1  0.6452540000000  0.5486570000000  0.3608000000000 1.0
C      1  0.4303780000000  0.2311250000000  0.6098040000000 1.0
C      1  0.3740560000000  0.2311250000000  0.4677170000000 1.0
C      1  0.4917840000000  0.2311250000000  0.3702440000000 1.0
C      1  0.6208670000000  0.2311250000000  0.4520900000000 1.0
C      1  0.5829160000000  0.2311250000000  0.6001460000000 1.0
C      1  0.4303780000000  0.7688750000000  0.6098040000000 1.0
C      1  0.3740560000000  0.7688750000000  0.4677170000000 1.0
C      1  0.4917840000000  0.7688750000000  0.3702440000000 1.0
C      1  0.6208670000000  0.7688750000000  0.4520900000000 1.0
C      1  0.5829160000000  0.7688750000000  0.6001460000000 1.0
C      1  0.4086650000000  0.1973590000000  0.3896850000000 1.0
C      1  0.5766920000000  0.1973590000000  0.3790460000000 1.0
C      1  0.6387340000000  0.1973590000000  0.5355620000000 1.0
C      1  0.5090500000000  0.1973590000000  0.6429330000000 1.0
C      1  0.3668600000000  0.1973590000000  0.5527760000000 1.0
C      1  0.4086650000000  0.8026410000000  0.3896850000000 1.0
C      1  0.5766920000000  0.8026410000000  0.3790460000000 1.0
C      1  0.6387340000000  0.8026410000000  0.5355620000000 1.0
C      1  0.5090500000000  0.8026410000000  0.6429330000000 1.0
C      1  0.3668600000000  0.8026410000000  0.5527760000000 1.0
C      1  0.5639540000000  0.5486570000000  0.3092500000000 1.0
C      1  0.7011790000000  0.5486570000000  0.5018790000000 1.0
C      1  0.5603800000000  0.5486570000000  0.6919120000000 1.0
C      1  0.3361390000000  0.5486570000000  0.6167280000000 1.0
C      1  0.3383490000000  0.5486570000000  0.3802300000000 1.0
C      1  0.5639540000000  0.4513430000000  0.3092500000000 1.0
C      1  0.7011790000000  0.4513430000000  0.5018790000000 1.0
C      1  0.5603800000000  0.4513430000000  0.6919120000000 1.0
C      1  0.3361390000000  0.4513430000000  0.6167280000000 1.0
C      1  0.3383490000000  0.4513430000000  0.3802300000000 1.0
C      1  0.4943330000000  0.6659630000000  0.4104950000000 1.0
C      1  0.5833730000000  0.6659630000000  0.4669520000000 1.0
C      1  0.5571940000000  0.6659630000000  0.5690800000000 1.0
C      1  0.4519750000000  0.6659630000000  0.5757420000000 1.0
C      1  0.4131250000000  0.6659630000000  0.4777310000000 1.0
C      1  0.4943330000000  0.3340370000000  0.4104950000000 1.0
C      1  0.5833730000000  0.3340370000000  0.4669520000000 1.0
C      1  0.5571940000000  0.3340370000000  0.5690800000000 1.0
C      1  0.4519750000000  0.3340370000000  0.5757420000000 1.0
C      1  0.4131250000000  0.3340370000000  0.4777310000000 1.0
C      1  0.3407170000000  0.4023900000000  0.4591710000000 1.0
C      1  0.4896100000000  0.4023900000000  0.3358960000000 1.0
C      1  0.6528610000000  0.4023910000000  0.4394080000000 1.0
C      1  0.6048630000000  0.4023910000000  0.6266550000000 1.0
C      1  0.4119480000000  0.4023910000000  0.6388690000000 1.0
C      1  0.3407170000000  0.5976100000000  0.4591710000000 1.0
C      1  0.4896100000000  0.5976100000000  0.3358960000000 1.0
C      1  0.6528610000000  0.5976090000000  0.4394080000000 1.0
C      1  0.6048630000000  0.5976090000000  0.6266550000000 1.0
C      1  0.4119480000000  0.5976090000000  0.6388690000000 1.0
END
