TITL C-2158984-8299-989 -0.00155214546169362 3375 -381.630247877301 0 0 60 (Td) n - 1
REM
REM in /scratch/bkarasulu/869
REM
REM
REM
REM
REM
REM ./C.cell (a2850807a9bf4ad07a5b6933b78d9264)
REM AIRSS Version 0.9.1 bugfix July 2018 build 013d7b7c2542+ Fri, 06 Jul 2018 19:26:36 +0100
REM compiler GCC version 9.2.1 20190827 (Red Hat 9.2.1-1)
REM options -cpp -mtune=generic -march=x86-64 -g -O0 -fpre-include=/usr/include/finclude/math-vector-fortran.h
REM seed 26313685 1950043226 1328416609 -573449126 1537716 1798312178 -866183452 1697172377 2000292372 379183387 1304163304 -59295342 1361393032 -1432651443 1849705840 588489880 -67515723 1412126364 -1694330081 2001809014 1535122960 -1752387725 526632767 -630404319 1572560973 1693727253 227661779 -674683117 -1098691616 803317272 986471948 1989802002 1467551958
REM
CELL 1.54180   15.00000   15.00000   15.00000   90.00000   90.00000   90.00000
LATT -1
SFAC C  
C      1  0.5005880000000  0.6918030000000  0.5741840000000 1.0
C      1  0.6918030000000  0.5741840000000  0.5005880000000 1.0
C      1  0.5741840000000  0.5005880000000  0.6918030000000 1.0
C      1  0.4994120000000  0.6918030000000  0.4258160000000 1.0
C      1  0.4994120000000  0.3081970000000  0.5741840000000 1.0
C      1  0.5005880000000  0.3081970000000  0.4258160000000 1.0
C      1  0.3081970000000  0.5741840000000  0.4994120000000 1.0
C      1  0.3081970000000  0.4258160000000  0.5005880000000 1.0
C      1  0.6918030000000  0.4258160000000  0.4994120000000 1.0
C      1  0.4258160000000  0.5005880000000  0.3081970000000 1.0
C      1  0.4258160000000  0.4994120000000  0.6918030000000 1.0
C      1  0.5741840000000  0.4994120000000  0.3081970000000 1.0
C      1  0.5741840000000  0.6918030000000  0.5005880000000 1.0
C      1  0.5005880000000  0.5741840000000  0.6918030000000 1.0
C      1  0.6918030000000  0.5005880000000  0.5741840000000 1.0
C      1  0.4258160000000  0.6918030000000  0.4994120000000 1.0
C      1  0.5741840000000  0.3081970000000  0.4994120000000 1.0
C      1  0.4258160000000  0.3081970000000  0.5005880000000 1.0
C      1  0.4994120000000  0.5741840000000  0.3081970000000 1.0
C      1  0.5005880000000  0.4258160000000  0.3081970000000 1.0
C      1  0.4994120000000  0.4258160000000  0.6918030000000 1.0
C      1  0.3081970000000  0.5005880000000  0.4258160000000 1.0
C      1  0.6918030000000  0.4994120000000  0.4258160000000 1.0
C      1  0.3081970000000  0.4994120000000  0.5741840000000 1.0
C      1  0.2919470000000  0.6410850000000  0.4258120000000 1.0
C      1  0.6410850000000  0.4258120000000  0.2919470000000 1.0
C      1  0.4258120000000  0.2919470000000  0.6410850000000 1.0
C      1  0.7080530000000  0.6410850000000  0.5741880000000 1.0
C      1  0.7080530000000  0.3589150000000  0.4258120000000 1.0
C      1  0.2919470000000  0.3589150000000  0.5741880000000 1.0
C      1  0.3589150000000  0.4258120000000  0.7080530000000 1.0
C      1  0.3589150000000  0.5741880000000  0.2919470000000 1.0
C      1  0.6410850000000  0.5741880000000  0.7080530000000 1.0
C      1  0.5741880000000  0.2919470000000  0.3589150000000 1.0
C      1  0.5741880000000  0.7080530000000  0.6410850000000 1.0
C      1  0.4258120000000  0.7080530000000  0.3589150000000 1.0
C      1  0.4258120000000  0.6410850000000  0.2919470000000 1.0
C      1  0.2919470000000  0.4258120000000  0.6410850000000 1.0
C      1  0.6410850000000  0.2919470000000  0.4258120000000 1.0
C      1  0.5741880000000  0.6410850000000  0.7080530000000 1.0
C      1  0.4258120000000  0.3589150000000  0.7080530000000 1.0
C      1  0.5741880000000  0.3589150000000  0.2919470000000 1.0
C      1  0.7080530000000  0.4258120000000  0.3589150000000 1.0
C      1  0.2919470000000  0.5741880000000  0.3589150000000 1.0
C      1  0.7080530000000  0.5741880000000  0.6410850000000 1.0
C      1  0.3589150000000  0.2919470000000  0.5741880000000 1.0
C      1  0.6410850000000  0.7080530000000  0.5741880000000 1.0
C      1  0.3589150000000  0.7080530000000  0.4258120000000 1.0
C      1  0.5403560000000  0.6107650000000  0.3892350000000 1.0
C      1  0.5403560000000  0.3892350000000  0.6107650000000 1.0
C      1  0.6107650000000  0.5403560000000  0.3892350000000 1.0
C      1  0.3892350000000  0.5403560000000  0.6107650000000 1.0
C      1  0.6107650000000  0.3892350000000  0.5403560000000 1.0
C      1  0.4596440000000  0.6107650000000  0.6107650000000 1.0
C      1  0.4596440000000  0.3892350000000  0.3892350000000 1.0
C      1  0.3892350000000  0.3892350000000  0.4596440000000 1.0
C      1  0.3892350000000  0.6107650000000  0.5403560000000 1.0
C      1  0.6107650000000  0.6107650000000  0.4596440000000 1.0
C      1  0.6107650000000  0.4596440000000  0.6107650000000 1.0
C      1  0.3892350000000  0.4596440000000  0.3892350000000 1.0
END
