TITL C-2158988-7926-461 -0.00083688064342358 3375 -375.195612506234 0 0 60 (Td) n - 1
REM
REM in /scratch/bkarasulu/868
REM
REM
REM
REM
REM
REM ./C.cell (a2850807a9bf4ad07a5b6933b78d9264)
REM AIRSS Version 0.9.1 bugfix July 2018 build 013d7b7c2542+ Fri, 06 Jul 2018 19:26:36 +0100
REM compiler GCC version 9.2.1 20190827 (Red Hat 9.2.1-1)
REM options -cpp -mtune=generic -march=x86-64 -g -O0 -fpre-include=/usr/include/finclude/math-vector-fortran.h
REM seed -722314130 -1299253562 562482066 -849306235 1579344620 -1554777826 -175397 -1770086917 1903667863 1606043876 621541677 -649784565 -1381658819 -1874057214 -441418680 -413546179 1035696145 -466149379 -788565422 1871050030 824719817 1893348923 241160472 -943601583 -952673580 -682476967 -1776797033 -1745825978 -1418540316 -1807878705 1367758621 -2130846382 2133623883
REM
CELL 1.54180   15.00000   15.00000   15.00000   90.00000   90.00000   90.00000
LATT -1
SFAC C  
C      1  0.4267060000000  0.5018540000000  0.3566390000000 1.0
C      1  0.5018540000000  0.3566390000000  0.4267060000000 1.0
C      1  0.3566390000000  0.4267060000000  0.5018540000000 1.0
C      1  0.5732940000000  0.4981460000000  0.3566390000000 1.0
C      1  0.4267060000000  0.4981460000000  0.6433610000000 1.0
C      1  0.5732940000000  0.5018540000000  0.6433610000000 1.0
C      1  0.4981460000000  0.6433610000000  0.4267060000000 1.0
C      1  0.5018540000000  0.6433610000000  0.5732940000000 1.0
C      1  0.4981460000000  0.3566390000000  0.5732940000000 1.0
C      1  0.6433610000000  0.5732940000000  0.5018540000000 1.0
C      1  0.3566390000000  0.5732940000000  0.4981460000000 1.0
C      1  0.6433610000000  0.4267060000000  0.4981460000000 1.0
C      1  0.5018540000000  0.4267060000000  0.3566390000000 1.0
C      1  0.3566390000000  0.5018540000000  0.4267060000000 1.0
C      1  0.4267060000000  0.3566390000000  0.5018540000000 1.0
C      1  0.4981460000000  0.5732940000000  0.3566390000000 1.0
C      1  0.4981460000000  0.4267060000000  0.6433610000000 1.0
C      1  0.5018540000000  0.5732940000000  0.6433610000000 1.0
C      1  0.6433610000000  0.4981460000000  0.4267060000000 1.0
C      1  0.6433610000000  0.5018540000000  0.5732940000000 1.0
C      1  0.3566390000000  0.4981460000000  0.5732940000000 1.0
C      1  0.5732940000000  0.6433610000000  0.5018540000000 1.0
C      1  0.5732940000000  0.3566390000000  0.4981460000000 1.0
C      1  0.4267060000000  0.6433610000000  0.4981460000000 1.0
C      1  0.6313320000000  0.5615360000000  0.7004980000000 1.0
C      1  0.5615360000000  0.7004980000000  0.6313320000000 1.0
C      1  0.7004980000000  0.6313320000000  0.5615360000000 1.0
C      1  0.3686680000000  0.4384640000000  0.7004980000000 1.0
C      1  0.6313320000000  0.4384640000000  0.2995020000000 1.0
C      1  0.3686680000000  0.5615360000000  0.2995020000000 1.0
C      1  0.4384640000000  0.2995020000000  0.6313320000000 1.0
C      1  0.5615360000000  0.2995020000000  0.3686680000000 1.0
C      1  0.4384640000000  0.7004980000000  0.3686680000000 1.0
C      1  0.2995020000000  0.3686680000000  0.5615360000000 1.0
C      1  0.7004980000000  0.3686680000000  0.4384640000000 1.0
C      1  0.2995020000000  0.6313320000000  0.4384640000000 1.0
C      1  0.5615360000000  0.6313320000000  0.7004980000000 1.0
C      1  0.7004980000000  0.5615360000000  0.6313320000000 1.0
C      1  0.6313320000000  0.7004980000000  0.5615360000000 1.0
C      1  0.4384640000000  0.3686680000000  0.7004980000000 1.0
C      1  0.4384640000000  0.6313320000000  0.2995020000000 1.0
C      1  0.5615360000000  0.3686680000000  0.2995020000000 1.0
C      1  0.2995020000000  0.4384640000000  0.6313320000000 1.0
C      1  0.2995020000000  0.5615360000000  0.3686680000000 1.0
C      1  0.7004980000000  0.4384640000000  0.3686680000000 1.0
C      1  0.3686680000000  0.2995020000000  0.5615360000000 1.0
C      1  0.3686680000000  0.7004980000000  0.4384640000000 1.0
C      1  0.6313320000000  0.2995020000000  0.4384640000000 1.0
C      1  0.3151770000000  0.6848230000000  0.6198620000000 1.0
C      1  0.6198620000000  0.3151770000000  0.6848230000000 1.0
C      1  0.6848230000000  0.3151770000000  0.6198620000000 1.0
C      1  0.3801380000000  0.6848230000000  0.6848230000000 1.0
C      1  0.6198620000000  0.6848230000000  0.3151770000000 1.0
C      1  0.3151770000000  0.6198620000000  0.6848230000000 1.0
C      1  0.6848230000000  0.6198620000000  0.3151770000000 1.0
C      1  0.3151770000000  0.3151770000000  0.3801380000000 1.0
C      1  0.6848230000000  0.6848230000000  0.3801380000000 1.0
C      1  0.3151770000000  0.3801380000000  0.3151770000000 1.0
C      1  0.6848230000000  0.3801380000000  0.6848230000000 1.0
C      1  0.3801380000000  0.3151770000000  0.3151770000000 1.0
END
