TITL C-2158984-8299-71 -0.00348974598448845 3375 -391.581872853754 0 0 60 (C2v) n - 1
REM
REM in /scratch/bkarasulu/869
REM
REM
REM
REM
REM
REM ./C.cell (a2850807a9bf4ad07a5b6933b78d9264)
REM AIRSS Version 0.9.1 bugfix July 2018 build 013d7b7c2542+ Fri, 06 Jul 2018 19:26:36 +0100
REM compiler GCC version 9.2.1 20190827 (Red Hat 9.2.1-1)
REM options -cpp -mtune=generic -march=x86-64 -g -O0 -fpre-include=/usr/include/finclude/math-vector-fortran.h
REM seed -297627300 1872830680 -1491620269 -1127024532 1500767653 1498945718 913482006 -1857149754 1653093122 -1753272933 -1424764099 -97680577 1729131796 -1240130460 2002754439 -878175511 -364856191 -1860268120 1245264135 2081331595 150665836 717237697 -597636603 -909451160 -170038195 1041540416 -495034995 2044197358 525244025 1517683733 -962723846 -1177532285 1161298342
REM
CELL 1.54180   15.00000   15.00000   15.00000   90.00000   90.00000   90.00000
LATT -1
SFAC C  
C      1  0.3236340000000  0.5455150000000  0.6588150000000 1.0
C      1  0.3720380000000  0.3687380000000  0.6539770000000 1.0
C      1  0.5487690000000  0.3237410000000  0.6516570000000 1.0
C      1  0.6763660000000  0.4544850000000  0.6588150000000 1.0
C      1  0.6279620000000  0.6312620000000  0.6539770000000 1.0
C      1  0.4512310000000  0.6762590000000  0.6516570000000 1.0
C      1  0.3236340000000  0.4544850000000  0.6588150000000 1.0
C      1  0.3720380000000  0.6312620000000  0.6539770000000 1.0
C      1  0.5487690000000  0.6762590000000  0.6516570000000 1.0
C      1  0.6763660000000  0.5455150000000  0.6588150000000 1.0
C      1  0.6279620000000  0.3687380000000  0.6539770000000 1.0
C      1  0.4512310000000  0.3237410000000  0.6516570000000 1.0
C      1  0.3324110000000  0.6962480000000  0.5021410000000 1.0
C      1  0.2583460000000  0.4529870000000  0.5066630000000 1.0
C      1  0.4110010000000  0.2547440000000  0.5032660000000 1.0
C      1  0.6675890000000  0.3037520000000  0.5021410000000 1.0
C      1  0.7416540000000  0.5470130000000  0.5066630000000 1.0
C      1  0.5889990000000  0.7452560000000  0.5032660000000 1.0
C      1  0.3324110000000  0.3037520000000  0.5021410000000 1.0
C      1  0.2583460000000  0.5470130000000  0.5066630000000 1.0
C      1  0.4110010000000  0.7452560000000  0.5032660000000 1.0
C      1  0.6675890000000  0.6962480000000  0.5021410000000 1.0
C      1  0.7416540000000  0.4529870000000  0.5066630000000 1.0
C      1  0.5889990000000  0.2547440000000  0.5032660000000 1.0
C      1  0.7441030000000  0.5866440000000  0.5903690000000 1.0
C      1  0.5466310000000  0.7534140000000  0.5855670000000 1.0
C      1  0.3050380000000  0.6658530000000  0.5856950000000 1.0
C      1  0.2558970000000  0.4133560000000  0.5903690000000 1.0
C      1  0.4533690000000  0.2465860000000  0.5855670000000 1.0
C      1  0.6949620000000  0.3341470000000  0.5856950000000 1.0
C      1  0.7441030000000  0.4133560000000  0.5903690000000 1.0
C      1  0.5466310000000  0.2465860000000  0.5855670000000 1.0
C      1  0.3050380000000  0.3341460000000  0.5856950000000 1.0
C      1  0.2558970000000  0.5866440000000  0.5903690000000 1.0
C      1  0.4533690000000  0.7534140000000  0.5855670000000 1.0
C      1  0.6949620000000  0.6658540000000  0.5856950000000 1.0
C      1  0.6890170000000  0.5450570000000  0.2842900000000 1.0
C      1  0.5425660000000  0.7484260000000  0.3311990000000 1.0
C      1  0.3334590000000  0.6044310000000  0.3394320000000 1.0
C      1  0.3109830000000  0.4549430000000  0.2842900000000 1.0
C      1  0.4574340000000  0.2515740000000  0.3311990000000 1.0
C      1  0.6665410000000  0.3955690000000  0.3394320000000 1.0
C      1  0.6890170000000  0.4549430000000  0.2842900000000 1.0
C      1  0.5425660000000  0.2515740000000  0.3311990000000 1.0
C      1  0.3334590000000  0.3955690000000  0.3394320000000 1.0
C      1  0.3109830000000  0.5450570000000  0.2842900000000 1.0
C      1  0.4574340000000  0.7484260000000  0.3311990000000 1.0
C      1  0.6665410000000  0.6044320000000  0.3394320000000 1.0
C      1  0.6281480000000  0.6313720000000  0.4226850000000 1.0
C      1  0.4511790000000  0.6963590000000  0.4252350000000 1.0
C      1  0.3481050000000  0.5464980000000  0.4590080000000 1.0
C      1  0.3718520000000  0.3686280000000  0.4226850000000 1.0
C      1  0.5488210000000  0.3036410000000  0.4252350000000 1.0
C      1  0.6518950000000  0.4535020000000  0.4590080000000 1.0
C      1  0.6281480000000  0.3686280000000  0.4226850000000 1.0
C      1  0.4511790000000  0.3036410000000  0.4252350000000 1.0
C      1  0.3481050000000  0.4535020000000  0.4590080000000 1.0
C      1  0.3718520000000  0.6313720000000  0.4226850000000 1.0
C      1  0.5488210000000  0.6963590000000  0.4252350000000 1.0
C      1  0.6518950000000  0.5464980000000  0.4590080000000 1.0
END
