TITL C-2158984-8299-1052 -0.0016949433815583 3375 -394.476363295637 0 0 60 (C1) n - 1
REM
REM in /scratch/bkarasulu/869
REM
REM
REM
REM
REM
REM ./C.cell (a2850807a9bf4ad07a5b6933b78d9264)
REM AIRSS Version 0.9.1 bugfix July 2018 build 013d7b7c2542+ Fri, 06 Jul 2018 19:26:36 +0100
REM compiler GCC version 9.2.1 20190827 (Red Hat 9.2.1-1)
REM options -cpp -mtune=generic -march=x86-64 -g -O0 -fpre-include=/usr/include/finclude/math-vector-fortran.h
REM seed -1320823636 1053895944 -233600719 1676916398 615123973 1175061435 -1790164047 -1484938566 -1346889332 556788908 -227623292 906785468 1700265561 164548562 -1131344489 1862696128 -1019898148 -276911904 1934265775 -1859673847 -1216243119 -86672153 1456345512 -754643613 1743290155 -1253626220 -410367858 1465502136 1308938445 -405554605 794453823 1338968825 1874823349
REM
CELL 1.54180   15.00000   15.00000   15.00000   90.00000   90.00000   90.00000
LATT -1
SFAC C  
C      1  0.3036620000000  0.6840450000000  0.4607110000000 1.0
C      1  0.4250820000000  0.6749020000000  0.3105380000000 1.0
C      1  0.5752590000000  0.6507260000000  0.3463190000000 1.0
C      1  0.7090090000000  0.6872450000000  0.4628490000000 1.0
C      1  0.6550090000000  0.6899850000000  0.6333440000000 1.0
C      1  0.4708170000000  0.6703160000000  0.6838180000000 1.0
C      1  0.3802070000000  0.6736130000000  0.6426110000000 1.0
C      1  0.4728000000000  0.5419020000000  0.5646780000000 1.0
C      1  0.4134580000000  0.5928550000000  0.5197410000000 1.0
C      1  0.4389780000000  0.5956480000000  0.4290850000000 1.0
C      1  0.5045090000000  0.5292070000000  0.3866860000000 1.0
C      1  0.5938030000000  0.5717020000000  0.4016740000000 1.0
C      1  0.6011750000000  0.6058860000000  0.4986640000000 1.0
C      1  0.5438260000000  0.5986280000000  0.5753880000000 1.0
C      1  0.3495060000000  0.5524600000000  0.3984270000000 1.0
C      1  0.4686710000000  0.5531070000000  0.2911260000000 1.0
C      1  0.6856100000000  0.5387850000000  0.4031580000000 1.0
C      1  0.6908470000000  0.5604690000000  0.5515200000000 1.0
C      1  0.5827130000000  0.5525560000000  0.6604760000000 1.0
C      1  0.4194060000000  0.5320560000000  0.6633470000000 1.0
C      1  0.3185440000000  0.5540960000000  0.5490960000000 1.0
C      1  0.4799800000000  0.3666330000000  0.3406590000000 1.0
C      1  0.6312460000000  0.3711830000000  0.3902320000000 1.0
C      1  0.6897260000000  0.3709800000000  0.5521610000000 1.0
C      1  0.5839370000000  0.3636710000000  0.6612910000000 1.0
C      1  0.4159090000000  0.3550890000000  0.6614420000000 1.0
C      1  0.3007560000000  0.3639470000000  0.5479260000000 1.0
C      1  0.3349330000000  0.3689930000000  0.3979230000000 1.0
C      1  0.6659620000000  0.4561030000000  0.4419660000000 1.0
C      1  0.6591050000000  0.4677390000000  0.5483780000000 1.0
C      1  0.5836120000000  0.4592470000000  0.6172800000000 1.0
C      1  0.4132480000000  0.4451870000000  0.6164650000000 1.0
C      1  0.3432070000000  0.4569390000000  0.5399080000000 1.0
C      1  0.3741030000000  0.4589330000000  0.4365330000000 1.0
C      1  0.4713130000000  0.4380390000000  0.4156850000000 1.0
C      1  0.6625170000000  0.3251840000000  0.6269520000000 1.0
C      1  0.5013510000000  0.3304930000000  0.6903510000000 1.0
C      1  0.3365640000000  0.3243010000000  0.6264090000000 1.0
C      1  0.2795310000000  0.3335340000000  0.4623880000000 1.0
C      1  0.3937480000000  0.3387780000000  0.3315510000000 1.0
C      1  0.5685330000000  0.3421440000000  0.3331480000000 1.0
C      1  0.6975040000000  0.3614580000000  0.4553000000000 1.0
C      1  0.7318770000000  0.5982390000000  0.4701530000000 1.0
C      1  0.6644440000000  0.6016600000000  0.6400230000000 1.0
C      1  0.4953970000000  0.5817180000000  0.7087520000000 1.0
C      1  0.3398150000000  0.5883940000000  0.6422520000000 1.0
C      1  0.2876650000000  0.5965590000000  0.4660410000000 1.0
C      1  0.3775130000000  0.5885910000000  0.3115840000000 1.0
C      1  0.5070860000000  0.6361880000000  0.2805600000000 1.0
C      1  0.6176200000000  0.7074810000000  0.4840970000000 1.0
C      1  0.5976690000000  0.7347800000000  0.5786230000000 1.0
C      1  0.5120460000000  0.6908200000000  0.5969430000000 1.0
C      1  0.4189050000000  0.6884210000000  0.5542700000000 1.0
C      1  0.3811310000000  0.7282530000000  0.4732560000000 1.0
C      1  0.4494180000000  0.6975710000000  0.4045300000000 1.0
C      1  0.5494070000000  0.7141870000000  0.4102730000000 1.0
C      1  0.4991930000000  0.4476750000000  0.5661180000000 1.0
C      1  0.5017990000000  0.3857200000000  0.4923640000000 1.0
C      1  0.4953130000000  0.2951180000000  0.5007570000000 1.0
C      1  0.5017760000000  0.2131290000000  0.4795590000000 1.0
END
