TITL C-2158984-8299-57 -0.00205497246612208 3375 -397.722691731372 0 0 60 (C3) n - 1
REM
REM in /scratch/bkarasulu/869
REM
REM
REM
REM
REM
REM ./C.cell (a2850807a9bf4ad07a5b6933b78d9264)
REM AIRSS Version 0.9.1 bugfix July 2018 build 013d7b7c2542+ Fri, 06 Jul 2018 19:26:36 +0100
REM compiler GCC version 9.2.1 20190827 (Red Hat 9.2.1-1)
REM options -cpp -mtune=generic -march=x86-64 -g -O0 -fpre-include=/usr/include/finclude/math-vector-fortran.h
REM seed -1367925485 -1564084647 -517269723 247253624 -52185692 -1897884779 1749803558 -1537396537 578994704 -825788890 1404399462 681541658 1199660226 799227910 -63950528 391649082 1614469580 -1737328038 -497505302 -822363503 -574603421 516163947 -1799300823 1523127037 -1412285332 -951888267 -1495499323 -305138122 1531688104 800117305 -537107461 615151195 -1939922727
REM
CELL 1.54180   15.00000   15.00000   15.00000   90.00000   90.00000   90.00000
LATT -1
SFAC C  
C      1  0.4496590000000  0.6719980000000  0.4279070000000 1.0
C      1  0.4627340000000  0.6719930000000  0.5796530000000 1.0
C      1  0.5876120000000  0.6719950000000  0.4924550000000 1.0
C      1  0.4885770000000  0.4231290000000  0.7444790000000 1.0
C      1  0.7174350000000  0.4231360000000  0.3876490000000 1.0
C      1  0.2939840000000  0.4231420000000  0.3678690000000 1.0
C      1  0.2515930000000  0.4435800000000  0.4463530000000 1.0
C      1  0.5777430000000  0.4435680000000  0.7419490000000 1.0
C      1  0.6706590000000  0.4435780000000  0.3116960000000 1.0
C      1  0.3979040000000  0.6169490000000  0.3205150000000 1.0
C      1  0.3956080000000  0.6169390000000  0.6781670000000 1.0
C      1  0.7064920000000  0.6169410000000  0.5013280000000 1.0
C      1  0.3351650000000  0.5628310000000  0.6310440000000 1.0
C      1  0.6959060000000  0.5628290000000  0.5772320000000 1.0
C      1  0.4689320000000  0.5628380000000  0.2917280000000 1.0
C      1  0.2922240000000  0.5884300000000  0.5448710000000 1.0
C      1  0.6427460000000  0.5884230000000  0.6575070000000 1.0
C      1  0.5650310000000  0.5884340000000  0.2976270000000 1.0
C      1  0.2841520000000  0.4035170000000  0.6154340000000 1.0
C      1  0.7078950000000  0.4035130000000  0.6292080000000 1.0
C      1  0.5079500000000  0.4035250000000  0.2553470000000 1.0
C      1  0.3248340000000  0.6557780000000  0.4866350000000 1.0
C      1  0.5760070000000  0.6557700000000  0.6583880000000 1.0
C      1  0.5991620000000  0.6557780000000  0.3549890000000 1.0
C      1  0.6343360000000  0.5169950000000  0.7182030000000 1.0
C      1  0.6218000000000  0.5170070000000  0.2745580000000 1.0
C      1  0.2438600000000  0.5170060000000  0.5072400000000 1.0
C      1  0.5472590000000  0.3355710000000  0.5376180000000 1.0
C      1  0.5089520000000  0.3355740000000  0.4402560000000 1.0
C      1  0.4437880000000  0.3355720000000  0.5221130000000 1.0
C      1  0.4240640000000  0.4323270000000  0.5211990000000 1.0
C      1  0.5563290000000  0.4323260000000  0.5551610000000 1.0
C      1  0.5196080000000  0.4323300000000  0.4236350000000 1.0
C      1  0.3806110000000  0.4448430000000  0.3515990000000 1.0
C      1  0.4311750000000  0.4448350000000  0.6775930000000 1.0
C      1  0.6882130000000  0.4448380000000  0.4708050000000 1.0
C      1  0.3743850000000  0.2828910000000  0.5624190000000 1.0
C      1  0.6168680000000  0.2828900000000  0.5775680000000 1.0
C      1  0.5087450000000  0.2828980000000  0.3599960000000 1.0
C      1  0.5885220000000  0.4760990000000  0.4757750000000 1.0
C      1  0.4347600000000  0.4761010000000  0.4354510000000 1.0
C      1  0.4767190000000  0.4760970000000  0.5887740000000 1.0
C      1  0.4438370000000  0.4690180000000  0.2809540000000 1.0
C      1  0.3383820000000  0.4690090000000  0.6581590000000 1.0
C      1  0.7177810000000  0.4690080000000  0.5608840000000 1.0
C      1  0.5359590000000  0.7023380000000  0.4122060000000 1.0
C      1  0.4059870000000  0.7023360000000  0.5127660000000 1.0
C      1  0.5580600000000  0.7023340000000  0.5750450000000 1.0
C      1  0.5050670000000  0.3138340000000  0.2805820000000 1.0
C      1  0.3074480000000  0.3138270000000  0.6053090000000 1.0
C      1  0.6874810000000  0.3138230000000  0.6140910000000 1.0
C      1  0.6685080000000  0.4344040000000  0.7098710000000 1.0
C      1  0.5974980000000  0.4344170000000  0.2491250000000 1.0
C      1  0.2339870000000  0.4344130000000  0.5409970000000 1.0
C      1  0.4804150000000  0.5679000000000  0.5526520000000 1.0
C      1  0.5553900000000  0.5679010000000  0.4906380000000 1.0
C      1  0.4641970000000  0.5679030000000  0.4567160000000 1.0
C      1  0.4751710000000  0.6575690000000  0.6783020000000 1.0
C      1  0.6668270000000  0.6575740000000  0.4323590000000 1.0
C      1  0.3580070000000  0.6575790000000  0.3893520000000 1.0
END
