TITL C-2159255-4746-1428 -0.00203532167439 3375 -409.961313371146 0 0 60 (C1) n - 1
REM
REM in /scratch/bkarasulu/871
REM
REM
REM
REM
REM
REM ./C.cell (a2850807a9bf4ad07a5b6933b78d9264)
REM AIRSS Version 0.9.1 bugfix July 2018 build 013d7b7c2542+ Fri, 06 Jul 2018 19:26:36 +0100
REM compiler GCC version 9.2.1 20190827 (Red Hat 9.2.1-1)
REM options -cpp -mtune=generic -march=x86-64 -g -O0 -fpre-include=/usr/include/finclude/math-vector-fortran.h
REM seed 158169245 815328580 1229668032 -422119981 -877150991 1465393805 1763120499 -1726600931 -827645568 1618785937 1496034277 2026366802 -1514565468 -1396586869 1548109790 978379031 1495834442 696495811 2002290455 735053985 -1058351537 -793305668 1855027619 -1124018134 -859107574 1904575971 -888594811 -1920204830 708511598 409491701 1381678879 -1256198011 1672631506
REM
CELL 1.54180   15.00000   15.00000   15.00000   90.00000   90.00000   90.00000
LATT -1
SFAC C  
C      1  0.7293840000000  0.4439230000000  0.4039580000000 1.0
C      1  0.5164630000000  0.4406400000000  0.4835780000000 1.0
C      1  0.7379990000000  0.5096070000000  0.4746530000000 1.0
C      1  0.5069380000000  0.5601760000000  0.2952270000000 1.0
C      1  0.5186570000000  0.4717520000000  0.2701380000000 1.0
C      1  0.3037040000000  0.5945420000000  0.6128720000000 1.0
C      1  0.5235000000000  0.2696560000000  0.5023640000000 1.0
C      1  0.4650310000000  0.5290970000000  0.6013440000000 1.0
C      1  0.3569940000000  0.7096000000000  0.4986050000000 1.0
C      1  0.7388590000000  0.3568120000000  0.4247650000000 1.0
C      1  0.4343920000000  0.3535300000000  0.6260060000000 1.0
C      1  0.6658470000000  0.4800890000000  0.3410890000000 1.0
C      1  0.3211670000000  0.4087000000000  0.4420590000000 1.0
C      1  0.2716600000000  0.5782590000000  0.4519760000000 1.0
C      1  0.3702730000000  0.4193400000000  0.6120030000000 1.0
C      1  0.3456500000000  0.6376100000000  0.4408550000000 1.0
C      1  0.6647790000000  0.3807030000000  0.5619540000000 1.0
C      1  0.4545530000000  0.3558390000000  0.7187740000000 1.0
C      1  0.5082070000000  0.3496990000000  0.5567370000000 1.0
C      1  0.4291030000000  0.5858190000000  0.4289870000000 1.0
C      1  0.3452170000000  0.4571470000000  0.5244440000000 1.0
C      1  0.5857920000000  0.3054210000000  0.4407640000000 1.0
C      1  0.4191240000000  0.5631200000000  0.3332150000000 1.0
C      1  0.5672520000000  0.5988440000000  0.5148370000000 1.0
C      1  0.5916540000000  0.6201610000000  0.6591550000000 1.0
C      1  0.4464180000000  0.7462710000000  0.5145600000000 1.0
C      1  0.5849600000000  0.4326940000000  0.3237760000000 1.0
C      1  0.6036570000000  0.5271250000000  0.6901880000000 1.0
C      1  0.5529280000000  0.4808170000000  0.7529800000000 1.0
C      1  0.7010300000000  0.5910270000000  0.4455110000000 1.0
C      1  0.4564790000000  0.2069570000000  0.4910590000000 1.0
C      1  0.5376670000000  0.3830900000000  0.3968190000000 1.0
C      1  0.3298360000000  0.5561790000000  0.6939640000000 1.0
C      1  0.3497680000000  0.6737700000000  0.5902490000000 1.0
C      1  0.6533170000000  0.5705630000000  0.3667670000000 1.0
C      1  0.4398940000000  0.5038550000000  0.5025940000000 1.0
C      1  0.6888340000000  0.4769750000000  0.5536270000000 1.0
C      1  0.3959190000000  0.2582420000000  0.4564900000000 1.0
C      1  0.6121010000000  0.7360370000000  0.4915400000000 1.0
C      1  0.5108480000000  0.6195840000000  0.5993420000000 1.0
C      1  0.6728430000000  0.6245810000000  0.6093270000000 1.0
C      1  0.3644090000000  0.4895850000000  0.3100200000000 1.0
C      1  0.3975670000000  0.4954040000000  0.6732540000000 1.0
C      1  0.5513690000000  0.4772950000000  0.6189700000000 1.0
C      1  0.2935710000000  0.4697820000000  0.3735590000000 1.0
C      1  0.3761240000000  0.3361770000000  0.4132040000000 1.0
C      1  0.4451960000000  0.6912500000000  0.5952670000000 1.0
C      1  0.5872180000000  0.5015000000000  0.5255010000000 1.0
C      1  0.6896160000000  0.5334880000000  0.6318990000000 1.0
C      1  0.4326620000000  0.4272070000000  0.2905520000000 1.0
C      1  0.2281940000000  0.5318260000000  0.3878410000000 1.0
C      1  0.5183160000000  0.6334970000000  0.4332610000000 1.0
C      1  0.5673170000000  0.6051660000000  0.3538740000000 1.0
C      1  0.6693030000000  0.3322870000000  0.4804660000000 1.0
C      1  0.6557870000000  0.6494400000000  0.5126360000000 1.0
C      1  0.4692070000000  0.4440280000000  0.7385030000000 1.0
C      1  0.2888480000000  0.5371100000000  0.5370770000000 1.0
C      1  0.5244970000000  0.7359860000000  0.4640590000000 1.0
C      1  0.4489520000000  0.3617870000000  0.3547310000000 1.0
C      1  0.5831480000000  0.3793280000000  0.6061740000000 1.0
END
