TITL C-2158988-7926-450 -0.00181980739413653 3375 -413.484439309529 0 0 60 (C1) n - 1
REM
REM in /scratch/bkarasulu/868
REM
REM
REM
REM
REM
REM ./C.cell (a2850807a9bf4ad07a5b6933b78d9264)
REM AIRSS Version 0.9.1 bugfix July 2018 build 013d7b7c2542+ Fri, 06 Jul 2018 19:26:36 +0100
REM compiler GCC version 9.2.1 20190827 (Red Hat 9.2.1-1)
REM options -cpp -mtune=generic -march=x86-64 -g -O0 -fpre-include=/usr/include/finclude/math-vector-fortran.h
REM seed 1764999304 1906178916 -1785128948 -1810575315 82503443 -502783350 -1203920599 463319542 -79576724 39850421 -123579617 -954289304 -23716903 2018430103 114397020 1344833173 1604248596 -771170177 657418038 1488219834 -957126135 -1600651754 -405472067 -1495715823 -1097964988 1875126081 456352731 -361001450 -1614623851 1853843446 -1108333626 -1298799466 -275472813
REM
CELL 1.54180   15.00000   15.00000   15.00000   90.00000   90.00000   90.00000
LATT -1
SFAC C  
C      1  0.7299900000000  0.5551860000000  0.4411060000000 1.0
C      1  0.6822500000000  0.6841970000000  0.5133980000000 1.0
C      1  0.4972470000000  0.3992000000000  0.5690130000000 1.0
C      1  0.4436690000000  0.3961490000000  0.7201790000000 1.0
C      1  0.7082560000000  0.5968310000000  0.5340630000000 1.0
C      1  0.5995820000000  0.5443990000000  0.2961690000000 1.0
C      1  0.4714090000000  0.2412320000000  0.4870950000000 1.0
C      1  0.3656880000000  0.5244540000000  0.6907440000000 1.0
C      1  0.4570270000000  0.5528920000000  0.7034010000000 1.0
C      1  0.4084390000000  0.2848560000000  0.4409640000000 1.0
C      1  0.3303760000000  0.6258270000000  0.4841670000000 1.0
C      1  0.4920800000000  0.6299790000000  0.6562630000000 1.0
C      1  0.5025180000000  0.5393580000000  0.5088910000000 1.0
C      1  0.3447340000000  0.6340990000000  0.5787800000000 1.0
C      1  0.3008560000000  0.3818510000000  0.6523360000000 1.0
C      1  0.4758430000000  0.3421550000000  0.6462490000000 1.0
C      1  0.6019030000000  0.7035660000000  0.5577970000000 1.0
C      1  0.4335010000000  0.5816360000000  0.3017510000000 1.0
C      1  0.5170180000000  0.4154030000000  0.2579290000000 1.0
C      1  0.4384100000000  0.4038730000000  0.4914660000000 1.0
C      1  0.6437300000000  0.4076890000000  0.3592630000000 1.0
C      1  0.5989740000000  0.3084560000000  0.4868950000000 1.0
C      1  0.5960440000000  0.3888780000000  0.5352540000000 1.0
C      1  0.3462890000000  0.3611490000000  0.4882540000000 1.0
C      1  0.5251220000000  0.6840550000000  0.3370550000000 1.0
C      1  0.3959420000000  0.6805370000000  0.4414880000000 1.0
C      1  0.3580770000000  0.4304450000000  0.7029680000000 1.0
C      1  0.7333310000000  0.6392670000000  0.3835880000000 1.0
C      1  0.4476490000000  0.4127770000000  0.3237480000000 1.0
C      1  0.4536240000000  0.7131210000000  0.5119190000000 1.0
C      1  0.5838220000000  0.6393590000000  0.6248420000000 1.0
C      1  0.2836490000000  0.4955930000000  0.5501430000000 1.0
C      1  0.3186320000000  0.3896950000000  0.3995950000000 1.0
C      1  0.5414770000000  0.7327110000000  0.4912610000000 1.0
C      1  0.3886180000000  0.3382720000000  0.3569740000000 1.0
C      1  0.6776480000000  0.7024910000000  0.4183680000000 1.0
C      1  0.5801740000000  0.3589760000000  0.4099640000000 1.0
C      1  0.5328360000000  0.5099780000000  0.4311700000000 1.0
C      1  0.3917200000000  0.5006120000000  0.3250420000000 1.0
C      1  0.4976030000000  0.4181700000000  0.4133730000000 1.0
C      1  0.5030930000000  0.4712280000000  0.7299570000000 1.0
C      1  0.6871080000000  0.4798520000000  0.4013770000000 1.0
C      1  0.5451970000000  0.2544250000000  0.5399000000000 1.0
C      1  0.3203790000000  0.4850000000000  0.3861370000000 1.0
C      1  0.5459770000000  0.2813940000000  0.6411930000000 1.0
C      1  0.6126970000000  0.5433020000000  0.3926420000000 1.0
C      1  0.4291360000000  0.6746100000000  0.5972920000000 1.0
C      1  0.2973140000000  0.5374950000000  0.4648900000000 1.0
C      1  0.5813310000000  0.7232330000000  0.4023170000000 1.0
C      1  0.6059420000000  0.3486050000000  0.6722620000000 1.0
C      1  0.5918300000000  0.4413580000000  0.7116430000000 1.0
C      1  0.6586250000000  0.5731790000000  0.6171020000000 1.0
C      1  0.4507050000000  0.4807090000000  0.5567400000000 1.0
C      1  0.5267310000000  0.6022870000000  0.2809390000000 1.0
C      1  0.3153390000000  0.5560350000000  0.6188670000000 1.0
C      1  0.2950430000000  0.4018020000000  0.5645650000000 1.0
C      1  0.4326120000000  0.6654040000000  0.3559440000000 1.0
C      1  0.5942100000000  0.4495230000000  0.2842210000000 1.0
C      1  0.6538810000000  0.4845730000000  0.6515950000000 1.0
C      1  0.6570940000000  0.3966080000000  0.6074910000000 1.0
END
