TITL C-2158988-7926-491 -0.0018048874878106 3375 -400.436562281035 0 0 60 (C3) n - 1
REM
REM in /scratch/bkarasulu/868
REM
REM
REM
REM
REM
REM ./C.cell (a2850807a9bf4ad07a5b6933b78d9264)
REM AIRSS Version 0.9.1 bugfix July 2018 build 013d7b7c2542+ Fri, 06 Jul 2018 19:26:36 +0100
REM compiler GCC version 9.2.1 20190827 (Red Hat 9.2.1-1)
REM options -cpp -mtune=generic -march=x86-64 -g -O0 -fpre-include=/usr/include/finclude/math-vector-fortran.h
REM seed -327608956 -745267939 1570187510 1790835250 -370601941 629683778 -1804186222 280898662 1364632869 136935487 -1528062647 732628594 -582355742 -1050060105 1442313643 -1029735345 2008147577 -1221359665 -675103419 1176677185 -2075188250 -375288619 958362443 -48493759 -15111805 -1432963615 1922277104 408035493 752854108 -504978092 2096645736 -1789281612 1262311378
REM
CELL 1.54180   15.00000   15.00000   15.00000   90.00000   90.00000   90.00000
LATT -1
SFAC C  
C      1  0.2672940000000  0.5307440000000  0.4549850000000 1.0
C      1  0.2672930000000  0.5236140000000  0.5491270000000 1.0
C      1  0.2672930000000  0.4456500000000  0.4958820000000 1.0
C      1  0.5297860000000  0.2607770000000  0.5636180000000 1.0
C      1  0.5297920000000  0.5645150000000  0.2610180000000 1.0
C      1  0.5297900000000  0.6747030000000  0.6753630000000 1.0
C      1  0.6664360000000  0.5717130000000  0.3710580000000 1.0
C      1  0.6664340000000  0.5758070000000  0.6265790000000 1.0
C      1  0.6664330000000  0.3524730000000  0.5023660000000 1.0
C      1  0.5179320000000  0.5079800000000  0.4107660000000 1.0
C      1  0.5179320000000  0.5732880000000  0.5515270000000 1.0
C      1  0.5179300000000  0.4187300000000  0.5377050000000 1.0
C      1  0.6826810000000  0.3966530000000  0.5809610000000 1.0
C      1  0.6826840000000  0.4815570000000  0.3700220000000 1.0
C      1  0.6826840000000  0.6217830000000  0.5490200000000 1.0
C      1  0.3876950000000  0.6517960000000  0.4233210000000 1.0
C      1  0.3876900000000  0.4905090000000  0.6697960000000 1.0
C      1  0.3876910000000  0.3577000000000  0.4068820000000 1.0
C      1  0.5432720000000  0.3977140000000  0.7464650000000 1.0
C      1  0.5432770000000  0.3377030000000  0.2881830000000 1.0
C      1  0.5432810000000  0.7645930000000  0.4653560000000 1.0
C      1  0.5524460000000  0.5802270000000  0.4620740000000 1.0
C      1  0.5524420000000  0.4927300000000  0.5884430000000 1.0
C      1  0.5524440000000  0.4270410000000  0.4494840000000 1.0
C      1  0.4408500000000  0.6395540000000  0.6746090000000 1.0
C      1  0.4408460000000  0.2790070000000  0.5335530000000 1.0
C      1  0.4408520000000  0.5814400000000  0.2918370000000 1.0
C      1  0.4849800000000  0.7273570000000  0.5229840000000 1.0
C      1  0.4849750000000  0.3664190000000  0.6854040000000 1.0
C      1  0.4849760000000  0.4062280000000  0.2916110000000 1.0
C      1  0.5325740000000  0.6721980000000  0.5849830000000 1.0
C      1  0.5325690000000  0.3403020000000  0.6066370000000 1.0
C      1  0.5325730000000  0.4874980000000  0.3083790000000 1.0
C      1  0.6009170000000  0.7117030000000  0.4227650000000 1.0
C      1  0.6009170000000  0.4610360000000  0.7219610000000 1.0
C      1  0.6009140000000  0.3272590000000  0.3552790000000 1.0
C      1  0.3759500000000  0.3402830000000  0.5738390000000 1.0
C      1  0.3759540000000  0.5159140000000  0.3247590000000 1.0
C      1  0.3759540000000  0.6438080000000  0.6013990000000 1.0
C      1  0.4255460000000  0.5380180000000  0.5428300000000 1.0
C      1  0.4255450000000  0.4438980000000  0.5115070000000 1.0
C      1  0.4255460000000  0.5180860000000  0.4456590000000 1.0
C      1  0.5487940000000  0.2787490000000  0.4195660000000 1.0
C      1  0.5487990000000  0.6802820000000  0.3486100000000 1.0
C      1  0.5487940000000  0.5409640000000  0.7318280000000 1.0
C      1  0.3994040000000  0.4170970000000  0.3315060000000 1.0
C      1  0.3994070000000  0.6873740000000  0.5124490000000 1.0
C      1  0.3994020000000  0.3955340000000  0.6560440000000 1.0
C      1  0.3423350000000  0.5608300000000  0.4050850000000 1.0
C      1  0.3423340000000  0.5517860000000  0.6001340000000 1.0
C      1  0.3423320000000  0.3873900000000  0.4947780000000 1.0
C      1  0.4521850000000  0.5503110000000  0.7088120000000 1.0
C      1  0.4521850000000  0.2940090000000  0.4391650000000 1.0
C      1  0.4521900000000  0.6556810000000  0.3520230000000 1.0
C      1  0.6505430000000  0.6281840000000  0.4572520000000 1.0
C      1  0.6505410000000  0.4729270000000  0.6323880000000 1.0
C      1  0.6505410000000  0.3988840000000  0.4103640000000 1.0
C      1  0.5983790000000  0.2787220000000  0.4970300000000 1.0
C      1  0.5983850000000  0.6132090000000  0.3098550000000 1.0
C      1  0.5983810000000  0.6080620000000  0.6931180000000 1.0
END
