TITL C-2158984-8299-967 -0.00250908084579639 3375 -396.295912804837 0 0 60 (Td) n - 1
REM
REM in /scratch/bkarasulu/869
REM
REM
REM
REM
REM
REM ./C.cell (a2850807a9bf4ad07a5b6933b78d9264)
REM AIRSS Version 0.9.1 bugfix July 2018 build 013d7b7c2542+ Fri, 06 Jul 2018 19:26:36 +0100
REM compiler GCC version 9.2.1 20190827 (Red Hat 9.2.1-1)
REM options -cpp -mtune=generic -march=x86-64 -g -O0 -fpre-include=/usr/include/finclude/math-vector-fortran.h
REM seed 1474762789 -1501510972 -2032018535 -1638338612 1857166091 -656094986 -281688331 -314909354 -1874931123 -425922458 1032125539 409975699 1557558160 -1570065759 -475988374 -1627101729 304883219 -1815769826 -2103209820 -1712282839 1325511987 1331752091 546724553 -2081425438 -1227884697 -117570808 -124259262 1995186275 -2027598818 957040537 932383049 660442874 1092747711
REM
CELL 1.54180   15.00000   15.00000   15.00000   90.00000   90.00000   90.00000
LATT -1
SFAC C  
C      1  0.4968980000000  0.6433510000000  0.5734290000000 1.0
C      1  0.5734290000000  0.4968980000000  0.6433510000000 1.0
C      1  0.6433510000000  0.5734290000000  0.4968980000000 1.0
C      1  0.4968980000000  0.3566490000000  0.4265710000000 1.0
C      1  0.5031020000000  0.3566490000000  0.5734290000000 1.0
C      1  0.5031020000000  0.6433510000000  0.4265710000000 1.0
C      1  0.5734290000000  0.5031020000000  0.3566490000000 1.0
C      1  0.4265710000000  0.5031020000000  0.6433510000000 1.0
C      1  0.4265710000000  0.4968980000000  0.3566490000000 1.0
C      1  0.6433510000000  0.4265710000000  0.5031020000000 1.0
C      1  0.3566490000000  0.4265710000000  0.4968980000000 1.0
C      1  0.3566490000000  0.5734290000000  0.5031020000000 1.0
C      1  0.4968980000000  0.5734290000000  0.6433510000000 1.0
C      1  0.5734290000000  0.6433510000000  0.4968980000000 1.0
C      1  0.6433510000000  0.4968980000000  0.5734290000000 1.0
C      1  0.4968980000000  0.4265710000000  0.3566490000000 1.0
C      1  0.5031020000000  0.5734290000000  0.3566490000000 1.0
C      1  0.5031020000000  0.4265710000000  0.6433510000000 1.0
C      1  0.5734290000000  0.3566490000000  0.5031020000000 1.0
C      1  0.4265710000000  0.6433510000000  0.5031020000000 1.0
C      1  0.4265710000000  0.3566490000000  0.4968980000000 1.0
C      1  0.6433510000000  0.5031020000000  0.4265710000000 1.0
C      1  0.3566490000000  0.4968980000000  0.4265710000000 1.0
C      1  0.3566490000000  0.5031020000000  0.5734290000000 1.0
C      1  0.3834630000000  0.2765100000000  0.5468140000000 1.0
C      1  0.5468140000000  0.3834630000000  0.2765100000000 1.0
C      1  0.2765100000000  0.5468140000000  0.3834630000000 1.0
C      1  0.3834630000000  0.7234900000000  0.4531860000000 1.0
C      1  0.6165370000000  0.7234900000000  0.5468140000000 1.0
C      1  0.6165370000000  0.2765100000000  0.4531860000000 1.0
C      1  0.5468140000000  0.6165370000000  0.7234900000000 1.0
C      1  0.4531860000000  0.6165370000000  0.2765100000000 1.0
C      1  0.4531860000000  0.3834630000000  0.7234900000000 1.0
C      1  0.2765100000000  0.4531860000000  0.6165370000000 1.0
C      1  0.7234900000000  0.4531860000000  0.3834630000000 1.0
C      1  0.7234900000000  0.5468140000000  0.6165370000000 1.0
C      1  0.3834630000000  0.5468140000000  0.2765100000000 1.0
C      1  0.5468140000000  0.2765100000000  0.3834630000000 1.0
C      1  0.2765100000000  0.3834630000000  0.5468140000000 1.0
C      1  0.3834630000000  0.4531860000000  0.7234900000000 1.0
C      1  0.6165370000000  0.5468140000000  0.7234900000000 1.0
C      1  0.6165370000000  0.4531860000000  0.2765100000000 1.0
C      1  0.5468140000000  0.7234900000000  0.6165370000000 1.0
C      1  0.4531860000000  0.2765100000000  0.6165370000000 1.0
C      1  0.4531860000000  0.7234900000000  0.3834630000000 1.0
C      1  0.2765100000000  0.6165370000000  0.4531860000000 1.0
C      1  0.7234900000000  0.3834630000000  0.4531860000000 1.0
C      1  0.7234900000000  0.6165370000000  0.5468140000000 1.0
C      1  0.2932350000000  0.7067650000000  0.4483360000000 1.0
C      1  0.2932350000000  0.4483360000000  0.7067650000000 1.0
C      1  0.7067650000000  0.2932350000000  0.4483360000000 1.0
C      1  0.7067650000000  0.4483360000000  0.2932350000000 1.0
C      1  0.4483360000000  0.2932350000000  0.7067650000000 1.0
C      1  0.4483360000000  0.7067650000000  0.2932350000000 1.0
C      1  0.5516640000000  0.7067650000000  0.7067650000000 1.0
C      1  0.5516640000000  0.2932350000000  0.2932350000000 1.0
C      1  0.7067650000000  0.5516640000000  0.7067650000000 1.0
C      1  0.2932350000000  0.2932350000000  0.5516640000000 1.0
C      1  0.7067650000000  0.7067650000000  0.5516640000000 1.0
C      1  0.2932350000000  0.5516640000000  0.2932350000000 1.0
END
