TITL C-2158984-8299-583 -0.00194428271104321 3375 -403.275310727952 0 0 60 (C2) n - 1
REM
REM in /scratch/bkarasulu/869
REM
REM
REM
REM
REM
REM ./C.cell (a2850807a9bf4ad07a5b6933b78d9264)
REM AIRSS Version 0.9.1 bugfix July 2018 build 013d7b7c2542+ Fri, 06 Jul 2018 19:26:36 +0100
REM compiler GCC version 9.2.1 20190827 (Red Hat 9.2.1-1)
REM options -cpp -mtune=generic -march=x86-64 -g -O0 -fpre-include=/usr/include/finclude/math-vector-fortran.h
REM seed 1187226537 -1870370868 649215900 -173629910 -1718815844 -1071069475 1090392223 -1611945573 -316394713 -901216862 -889363546 1960336578 -1217205313 -637478854 2089771340 -1228909809 -177083002 386728897 -1679132964 983098448 -2120352385 698700716 130978455 266305199 -1745019372 -279655965 -1272179180 -244830180 -1138329479 1539736087 -1321903336 911089485 -1414910623
REM
CELL 1.54180   15.00000   15.00000   15.00000   90.00000   90.00000   90.00000
LATT -1
SFAC C  
C      1  0.4582960000000  0.2858520000000  0.4408980000000 1.0
C      1  0.5417040000000  0.7141480000000  0.4408980000000 1.0
C      1  0.5540310000000  0.3183340000000  0.5373670000000 1.0
C      1  0.4459690000000  0.6816660000000  0.5373670000000 1.0
C      1  0.4983970000000  0.3767710000000  0.5946110000000 1.0
C      1  0.5016030000000  0.6232290000000  0.5946110000000 1.0
C      1  0.3400170000000  0.4030880000000  0.6523070000000 1.0
C      1  0.6599830000000  0.5969120000000  0.6523070000000 1.0
C      1  0.5782480000000  0.4093630000000  0.3004840000000 1.0
C      1  0.4217520000000  0.5906370000000  0.3004840000000 1.0
C      1  0.3672490000000  0.3162680000000  0.4354550000000 1.0
C      1  0.6327510000000  0.6837320000000  0.4354550000000 1.0
C      1  0.5354230000000  0.3630780000000  0.4452960000000 1.0
C      1  0.4645770000000  0.6369220000000  0.4452960000000 1.0
C      1  0.6439330000000  0.3355230000000  0.5800070000000 1.0
C      1  0.3560670000000  0.6644770000000  0.5800070000000 1.0
C      1  0.4919000000000  0.4520170000000  0.2832280000000 1.0
C      1  0.5081000000000  0.5479830000000  0.2832280000000 1.0
C      1  0.7418090000000  0.5537520000000  0.5132440000000 1.0
C      1  0.2581910000000  0.4462480000000  0.5132440000000 1.0
C      1  0.3439880000000  0.3396180000000  0.5243360000000 1.0
C      1  0.6560120000000  0.6603820000000  0.5243360000000 1.0
C      1  0.3563790000000  0.5226760000000  0.3011740000000 1.0
C      1  0.6436210000000  0.4773240000000  0.3011740000000 1.0
C      1  0.5406190000000  0.3867940000000  0.6854110000000 1.0
C      1  0.4593810000000  0.6132060000000  0.6854110000000 1.0
C      1  0.6004290000000  0.5049220000000  0.5370440000000 1.0
C      1  0.3995710000000  0.4950780000000  0.5370440000000 1.0
C      1  0.4829830000000  0.4486660000000  0.7375210000000 1.0
C      1  0.5170170000000  0.5513340000000  0.7375210000000 1.0
C      1  0.4075260000000  0.4000210000000  0.5690910000000 1.0
C      1  0.5924740000000  0.5999790000000  0.5690910000000 1.0
C      1  0.6040240000000  0.3553900000000  0.3773720000000 1.0
C      1  0.3959760000000  0.6446100000000  0.3773720000000 1.0
C      1  0.5377920000000  0.4726350000000  0.4682610000000 1.0
C      1  0.4622080000000  0.5273650000000  0.4682610000000 1.0
C      1  0.3039090000000  0.5234220000000  0.5416550000000 1.0
C      1  0.6960910000000  0.4765780000000  0.5416550000000 1.0
C      1  0.3764870000000  0.6537210000000  0.6703460000000 1.0
C      1  0.6235130000000  0.3462790000000  0.6703460000000 1.0
C      1  0.7003630000000  0.3854090000000  0.5159660000000 1.0
C      1  0.2996370000000  0.6145910000000  0.5159660000000 1.0
C      1  0.5369290000000  0.4690350000000  0.5999350000000 1.0
C      1  0.4630710000000  0.5309650000000  0.5999350000000 1.0
C      1  0.7236510000000  0.6230820000000  0.5773360000000 1.0
C      1  0.2763490000000  0.3769180000000  0.5773360000000 1.0
C      1  0.2822960000000  0.4510870000000  0.4180150000000 1.0
C      1  0.7177040000000  0.5489130000000  0.4180150000000 1.0
C      1  0.2929670000000  0.5349740000000  0.3732810000000 1.0
C      1  0.7070330000000  0.4650260000000  0.3732810000000 1.0
C      1  0.3123330000000  0.6158710000000  0.4192860000000 1.0
C      1  0.6876670000000  0.3841290000000  0.4192860000000 1.0
C      1  0.3924000000000  0.4312610000000  0.7177580000000 1.0
C      1  0.6076000000000  0.5687390000000  0.7177580000000 1.0
C      1  0.6553460000000  0.6114060000000  0.3763680000000 1.0
C      1  0.3446540000000  0.3885940000000  0.3763680000000 1.0
C      1  0.3958440000000  0.4368600000000  0.3049860000000 1.0
C      1  0.6041560000000  0.5631400000000  0.3049860000000 1.0
C      1  0.5049050000000  0.2392450000000  0.5019610000000 1.0
C      1  0.4950950000000  0.7607550000000  0.5019610000000 1.0
END
