TITL C-2158988-7926-821 -0.00155929827017962 3375 -392.210911597535 0 0 60 (C3h) n - 1
REM
REM in /scratch/bkarasulu/868
REM
REM
REM
REM
REM
REM ./C.cell (a2850807a9bf4ad07a5b6933b78d9264)
REM AIRSS Version 0.9.1 bugfix July 2018 build 013d7b7c2542+ Fri, 06 Jul 2018 19:26:36 +0100
REM compiler GCC version 9.2.1 20190827 (Red Hat 9.2.1-1)
REM options -cpp -mtune=generic -march=x86-64 -g -O0 -fpre-include=/usr/include/finclude/math-vector-fortran.h
REM seed 1080741281 -1194302881 464853480 1206091241 709164085 -1760047068 -325624918 1531088392 330433866 -78775337 1818579935 -359231246 367523517 -1545891331 -1791930771 -31441962 689126059 -860053514 -150576904 -639025447 -44341901 -187346746 -715342724 410984918 1983595495 -119559611 252207987 -2072951311 -1958904793 -961256097 1482391786 135820449 1418668716
REM
CELL 1.54180   15.00000   15.00000   15.00000   90.00000   90.00000   90.00000
LATT -1
SFAC C  
C      1  0.6405060000000  0.6128980000000  0.3350770000000 1.0
C      1  0.2869190000000  0.6128990000000  0.4607800000000 1.0
C      1  0.5725750000000  0.6128980000000  0.7041440000000 1.0
C      1  0.6405060000000  0.3871020000000  0.3350770000000 1.0
C      1  0.2869190000000  0.3871010000000  0.4607800000000 1.0
C      1  0.5725750000000  0.3871020000000  0.7041440000000 1.0
C      1  0.4385550000000  0.5463960000000  0.4309830000000 1.0
C      1  0.4709510000000  0.5463960000000  0.5877220000000 1.0
C      1  0.5904940000000  0.5463970000000  0.4812950000000 1.0
C      1  0.4385550000000  0.4536040000000  0.4309830000000 1.0
C      1  0.4709510000000  0.4536040000000  0.5877220000000 1.0
C      1  0.5904940000000  0.4536030000000  0.4812950000000 1.0
C      1  0.5061170000000  0.6706100000000  0.6528470000000 1.0
C      1  0.6293100000000  0.6706100000000  0.4182790000000 1.0
C      1  0.3645730000000  0.6706110000000  0.4288750000000 1.0
C      1  0.5061170000000  0.3293900000000  0.6528470000000 1.0
C      1  0.6293100000000  0.3293900000000  0.4182790000000 1.0
C      1  0.3645730000000  0.3293890000000  0.4288750000000 1.0
C      1  0.4471480000000  0.5899250000000  0.6754760000000 1.0
C      1  0.6783930000000  0.5899250000000  0.4580330000000 1.0
C      1  0.3744600000000  0.5899250000000  0.3664920000000 1.0
C      1  0.4471480000000  0.4100750000000  0.6754760000000 1.0
C      1  0.6783930000000  0.4100750000000  0.4580330000000 1.0
C      1  0.3744600000000  0.4100750000000  0.3664920000000 1.0
C      1  0.3995340000000  0.4494160000000  0.2830390000000 1.0
C      1  0.3623380000000  0.4494160000000  0.6954850000000 1.0
C      1  0.7381290000000  0.4494160000000  0.5214740000000 1.0
C      1  0.3995340000000  0.5505840000000  0.2830390000000 1.0
C      1  0.3623380000000  0.5505840000000  0.6954850000000 1.0
C      1  0.7381290000000  0.5505840000000  0.5214740000000 1.0
C      1  0.4134820000000  0.4192590000000  0.5187380000000 1.0
C      1  0.5594860000000  0.4192590000000  0.5655580000000 1.0
C      1  0.5270320000000  0.4192590000000  0.4157050000000 1.0
C      1  0.4134820000000  0.5807410000000  0.5187380000000 1.0
C      1  0.5594860000000  0.5807410000000  0.5655580000000 1.0
C      1  0.5270320000000  0.5807410000000  0.4157050000000 1.0
C      1  0.7003040000000  0.4530870000000  0.3698650000000 1.0
C      1  0.2871480000000  0.4530870000000  0.3916000000000 1.0
C      1  0.5125480000000  0.4530870000000  0.7385370000000 1.0
C      1  0.7003040000000  0.5469130000000  0.3698650000000 1.0
C      1  0.2871480000000  0.5469130000000  0.3916000000000 1.0
C      1  0.5125480000000  0.5469130000000  0.7385370000000 1.0
C      1  0.4922960000000  0.5489720000000  0.2577820000000 1.0
C      1  0.2940850000000  0.5489720000000  0.6277790000000 1.0
C      1  0.7136170000000  0.5489720000000  0.6144360000000 1.0
C      1  0.4922960000000  0.4510280000000  0.2577820000000 1.0
C      1  0.2940850000000  0.4510280000000  0.6277790000000 1.0
C      1  0.7136170000000  0.4510280000000  0.6144360000000 1.0
C      1  0.5229030000000  0.3220870000000  0.5536640000000 1.0
C      1  0.5350230000000  0.3220870000000  0.4533340000000 1.0
C      1  0.4420750000000  0.3220870000000  0.4930030000000 1.0
C      1  0.5229030000000  0.6779130000000  0.5536640000000 1.0
C      1  0.5350230000000  0.6779130000000  0.4533340000000 1.0
C      1  0.4420750000000  0.6779130000000  0.4930030000000 1.0
C      1  0.3196290000000  0.4440460000000  0.5317850000000 1.0
C      1  0.6177120000000  0.4440460000000  0.6403120000000 1.0
C      1  0.5626580000000  0.4440460000000  0.3279010000000 1.0
C      1  0.3196290000000  0.5559540000000  0.5317850000000 1.0
C      1  0.6177120000000  0.5559540000000  0.6403120000000 1.0
C      1  0.5626580000000  0.5559540000000  0.3279010000000 1.0
END
