TITL C-2159255-4746-412 -0.0026493815041254 3375 -367.212261894083 0 0 60 (Td) n - 1
REM
REM in /scratch/bkarasulu/871
REM
REM
REM
REM
REM
REM ./C.cell (a2850807a9bf4ad07a5b6933b78d9264)
REM AIRSS Version 0.9.1 bugfix July 2018 build 013d7b7c2542+ Fri, 06 Jul 2018 19:26:36 +0100
REM compiler GCC version 9.2.1 20190827 (Red Hat 9.2.1-1)
REM options -cpp -mtune=generic -march=x86-64 -g -O0 -fpre-include=/usr/include/finclude/math-vector-fortran.h
REM seed 2004793973 -226505625 1158313094 -523404958 -884518259 112044265 -1106882140 884871761 -1767902517 1073736447 892807024 -59523181 -432175868 1904112888 1823721185 1077964400 1066597254 2023814685 1409543644 -565997632 422230998 1114547263 209662262 747596249 -1844294788 306213264 -1928024556 -1031209268 -1014771584 -1213189770 -1417324290 -652835623 -1948482618
REM
CELL 1.54180   15.00000   15.00000   15.00000   90.00000   90.00000   90.00000
LATT -1
SFAC C  
C      1  0.5674620000000  0.2507790000000  0.4998370000000 1.0
C      1  0.2507790000000  0.4998370000000  0.5674620000000 1.0
C      1  0.4998370000000  0.5674620000000  0.2507790000000 1.0
C      1  0.4325380000000  0.2507790000000  0.5001630000000 1.0
C      1  0.4325380000000  0.7492210000000  0.4998370000000 1.0
C      1  0.5674620000000  0.7492210000000  0.5001630000000 1.0
C      1  0.7492210000000  0.4998370000000  0.4325380000000 1.0
C      1  0.7492210000000  0.5001630000000  0.5674620000000 1.0
C      1  0.2507790000000  0.5001630000000  0.4325380000000 1.0
C      1  0.5001630000000  0.5674620000000  0.7492210000000 1.0
C      1  0.5001630000000  0.4325380000000  0.2507790000000 1.0
C      1  0.4998370000000  0.4325380000000  0.7492210000000 1.0
C      1  0.4998370000000  0.2507790000000  0.5674620000000 1.0
C      1  0.5674620000000  0.4998370000000  0.2507790000000 1.0
C      1  0.2507790000000  0.5674620000000  0.4998370000000 1.0
C      1  0.5001630000000  0.2507790000000  0.4325380000000 1.0
C      1  0.4998370000000  0.7492210000000  0.4325380000000 1.0
C      1  0.5001630000000  0.7492210000000  0.5674620000000 1.0
C      1  0.4325380000000  0.4998370000000  0.7492210000000 1.0
C      1  0.5674620000000  0.5001630000000  0.7492210000000 1.0
C      1  0.4325380000000  0.5001630000000  0.2507790000000 1.0
C      1  0.7492210000000  0.5674620000000  0.5001630000000 1.0
C      1  0.2507790000000  0.4325380000000  0.5001630000000 1.0
C      1  0.7492210000000  0.4325380000000  0.4998370000000 1.0
C      1  0.4209850000000  0.6471560000000  0.4985710000000 1.0
C      1  0.6471560000000  0.4985710000000  0.4209850000000 1.0
C      1  0.4985710000000  0.4209850000000  0.6471560000000 1.0
C      1  0.5790150000000  0.6471560000000  0.5014290000000 1.0
C      1  0.5790150000000  0.3528440000000  0.4985710000000 1.0
C      1  0.4209850000000  0.3528440000000  0.5014290000000 1.0
C      1  0.3528440000000  0.4985710000000  0.5790150000000 1.0
C      1  0.3528440000000  0.5014290000000  0.4209850000000 1.0
C      1  0.6471560000000  0.5014290000000  0.5790150000000 1.0
C      1  0.5014290000000  0.4209850000000  0.3528440000000 1.0
C      1  0.5014290000000  0.5790150000000  0.6471560000000 1.0
C      1  0.4985710000000  0.5790150000000  0.3528440000000 1.0
C      1  0.4985710000000  0.6471560000000  0.4209850000000 1.0
C      1  0.4209850000000  0.4985710000000  0.6471560000000 1.0
C      1  0.6471560000000  0.4209850000000  0.4985710000000 1.0
C      1  0.5014290000000  0.6471560000000  0.5790150000000 1.0
C      1  0.4985710000000  0.3528440000000  0.5790150000000 1.0
C      1  0.5014290000000  0.3528440000000  0.4209850000000 1.0
C      1  0.5790150000000  0.4985710000000  0.3528440000000 1.0
C      1  0.4209850000000  0.5014290000000  0.3528440000000 1.0
C      1  0.5790150000000  0.5014290000000  0.6471560000000 1.0
C      1  0.3528440000000  0.4209850000000  0.5014290000000 1.0
C      1  0.6471560000000  0.5790150000000  0.5014290000000 1.0
C      1  0.3528440000000  0.5790150000000  0.4985710000000 1.0
C      1  0.2845150000000  0.6512900000000  0.6512900000000 1.0
C      1  0.3487100000000  0.7154850000000  0.6512900000000 1.0
C      1  0.7154850000000  0.6512900000000  0.3487100000000 1.0
C      1  0.7154850000000  0.3487100000000  0.6512900000000 1.0
C      1  0.2845150000000  0.3487100000000  0.3487100000000 1.0
C      1  0.6512900000000  0.2845150000000  0.6512900000000 1.0
C      1  0.6512900000000  0.6512900000000  0.2845150000000 1.0
C      1  0.6512900000000  0.7154850000000  0.3487100000000 1.0
C      1  0.3487100000000  0.2845150000000  0.3487100000000 1.0
C      1  0.3487100000000  0.6512900000000  0.7154850000000 1.0
C      1  0.3487100000000  0.3487100000000  0.2845150000000 1.0
C      1  0.6512900000000  0.3487100000000  0.7154850000000 1.0
END
