TITL C-2158984-8299-587 -0.00151474647383209 3375 -394.320995251612 0 0 60 (C6) n - 1
REM
REM in /scratch/bkarasulu/869
REM
REM
REM
REM
REM
REM ./C.cell (a2850807a9bf4ad07a5b6933b78d9264)
REM AIRSS Version 0.9.1 bugfix July 2018 build 013d7b7c2542+ Fri, 06 Jul 2018 19:26:36 +0100
REM compiler GCC version 9.2.1 20190827 (Red Hat 9.2.1-1)
REM options -cpp -mtune=generic -march=x86-64 -g -O0 -fpre-include=/usr/include/finclude/math-vector-fortran.h
REM seed 1648514273 -52858705 -222941869 -297468312 987221897 1604302726 -105254454 19477371 -1586018984 -1565539652 -1695395838 -856373024 1474022098 -762106640 -187276065 1991496879 1837870586 495097520 -2119779036 1939160970 973422988 1517778829 605779879 -1803617470 -938217423 -1005335923 1389503498 391056435 2132432417 -782296161 -1870067132 618904081 662818734
REM
CELL 1.54180   15.00000   15.00000   15.00000   90.00000   90.00000   90.00000
LATT -1
SFAC C  
C      1  0.3190460000000  0.3556150000000  0.4643920000000 1.0
C      1  0.3786860000000  0.3556140000000  0.6389060000000 1.0
C      1  0.5596390000000  0.3556140000000  0.6745140000000 1.0
C      1  0.6809540000000  0.3556150000000  0.5356080000000 1.0
C      1  0.6213140000000  0.3556140000000  0.3610940000000 1.0
C      1  0.4403610000000  0.3556140000000  0.3254860000000 1.0
C      1  0.4117230000000  0.5825740000000  0.6779320000000 1.0
C      1  0.6099530000000  0.5825740000000  0.6654160000000 1.0
C      1  0.6982320000000  0.5825750000000  0.4874850000000 1.0
C      1  0.5882770000000  0.5825740000000  0.3220680000000 1.0
C      1  0.3900470000000  0.5825740000000  0.3345840000000 1.0
C      1  0.3017680000000  0.5825750000000  0.5125150000000 1.0
C      1  0.7317380000000  0.4197390000000  0.4811200000000 1.0
C      1  0.5995180000000  0.4197370000000  0.2898700000000 1.0
C      1  0.3677810000000  0.4197380000000  0.3087500000000 1.0
C      1  0.2682620000000  0.4197390000000  0.5188800000000 1.0
C      1  0.4004820000000  0.4197370000000  0.7101300000000 1.0
C      1  0.6322190000000  0.4197380000000  0.6912500000000 1.0
C      1  0.5570560000000  0.7155980000000  0.5796420000000 1.0
C      1  0.5975010000000  0.7155980000000  0.4904100000000 1.0
C      1  0.5404450000000  0.7155980000000  0.4107670000000 1.0
C      1  0.4429440000000  0.7155980000000  0.4203580000000 1.0
C      1  0.4024990000000  0.7155980000000  0.5095900000000 1.0
C      1  0.4595550000000  0.7155980000000  0.5892330000000 1.0
C      1  0.4607730000000  0.5618980000000  0.5906530000000 1.0
C      1  0.5588940000000  0.5618980000000  0.5792980000000 1.0
C      1  0.5981220000000  0.5618980000000  0.4886450000000 1.0
C      1  0.5392270000000  0.5618980000000  0.4093470000000 1.0
C      1  0.4411060000000  0.5618980000000  0.4207020000000 1.0
C      1  0.4018780000000  0.5618980000000  0.5113550000000 1.0
C      1  0.3507140000000  0.4164270000000  0.3997010000000 1.0
C      1  0.3384950000000  0.4164260000000  0.5791360000000 1.0
C      1  0.4877820000000  0.4164260000000  0.6794360000000 1.0
C      1  0.6492860000000  0.4164270000000  0.6002990000000 1.0
C      1  0.6615050000000  0.4164260000000  0.4208640000000 1.0
C      1  0.5122180000000  0.4164260000000  0.3205640000000 1.0
C      1  0.4045440000000  0.3075040000000  0.4850140000000 1.0
C      1  0.4392940000000  0.3075040000000  0.5751740000000 1.0
C      1  0.5347500000000  0.3075040000000  0.5901600000000 1.0
C      1  0.5954560000000  0.3075040000000  0.5149860000000 1.0
C      1  0.5607060000000  0.3075040000000  0.4248260000000 1.0
C      1  0.4652500000000  0.3075040000000  0.4098400000000 1.0
C      1  0.5749540000000  0.6697350000000  0.3347940000000 1.0
C      1  0.3944050000000  0.6697360000000  0.3524840000000 1.0
C      1  0.3194490000000  0.6697370000000  0.5176910000000 1.0
C      1  0.4250460000000  0.6697350000000  0.6652060000000 1.0
C      1  0.6055950000000  0.6697360000000  0.6475160000000 1.0
C      1  0.6805510000000  0.6697370000000  0.4823090000000 1.0
C      1  0.4227640000000  0.4615350000000  0.4453030000000 1.0
C      1  0.4140130000000  0.4615350000000  0.5395400000000 1.0
C      1  0.4912490000000  0.4615350000000  0.5942370000000 1.0
C      1  0.5772360000000  0.4615350000000  0.5546970000000 1.0
C      1  0.5859870000000  0.4615350000000  0.4604600000000 1.0
C      1  0.5087510000000  0.4615350000000  0.4057630000000 1.0
C      1  0.3816280000000  0.5093750000000  0.7251020000000 1.0
C      1  0.6357560000000  0.5093760000000  0.7150650000000 1.0
C      1  0.7541320000000  0.5093770000000  0.4899630000000 1.0
C      1  0.6183720000000  0.5093750000000  0.2748980000000 1.0
C      1  0.3642440000000  0.5093760000000  0.2849350000000 1.0
C      1  0.2458680000000  0.5093770000000  0.5100370000000 1.0
END
