TITL C-2159252-5904-196 -0.00122106415529972 3375 -389.185890698543 0 0 60 (C3) n - 1
REM
REM in /scratch/bkarasulu/870
REM
REM
REM
REM
REM
REM ./C.cell (a2850807a9bf4ad07a5b6933b78d9264)
REM AIRSS Version 0.9.1 bugfix July 2018 build 013d7b7c2542+ Fri, 06 Jul 2018 19:26:36 +0100
REM compiler GCC version 9.2.1 20190827 (Red Hat 9.2.1-1)
REM options -cpp -mtune=generic -march=x86-64 -g -O0 -fpre-include=/usr/include/finclude/math-vector-fortran.h
REM seed 428015835 2094906953 281137086 893383149 357656084 -1766119972 -524230808 -471623623 -1745035550 -2069644873 1330861724 797497994 1023699148 2077708871 -2136616814 1264959728 820622075 1765930836 -21789979 2086946930 1235315404 700190046 -1150454297 -813902820 1112357039 157477876 -1553246513 -1881953206 -187838495 -1523318927 -1966393223 -299133459 -373541470
REM
CELL 1.54180   15.00000   15.00000   15.00000   90.00000   90.00000   90.00000
LATT -1
SFAC C  
C      1  0.6294510000000  0.5867320000000  0.3500230000000 1.0
C      1  0.6294510000000  0.5865180000000  0.6501000000000 1.0
C      1  0.6294510000000  0.3267490000000  0.4998770000000 1.0
C      1  0.4013170000000  0.3864630000000  0.6832780000000 1.0
C      1  0.4013180000000  0.3980460000000  0.3100350000000 1.0
C      1  0.4013180000000  0.7154920000000  0.5066880000000 1.0
C      1  0.6510130000000  0.3959570000000  0.3590580000000 1.0
C      1  0.6510140000000  0.6740820000000  0.4803680000000 1.0
C      1  0.6510140000000  0.4299610000000  0.6605750000000 1.0
C      1  0.4588180000000  0.5595460000000  0.3226090000000 1.0
C      1  0.4588180000000  0.6238510000000  0.6402630000000 1.0
C      1  0.4588180000000  0.3166010000000  0.5371270000000 1.0
C      1  0.3779650000000  0.6725240000000  0.5946250000000 1.0
C      1  0.3779650000000  0.3317900000000  0.6020960000000 1.0
C      1  0.3779660000000  0.4956870000000  0.3032770000000 1.0
C      1  0.3858710000000  0.4348790000000  0.4434860000000 1.0
C      1  0.3858710000000  0.5815030000000  0.4718600000000 1.0
C      1  0.3858700000000  0.4836180000000  0.5846540000000 1.0
C      1  0.5637390000000  0.3112420000000  0.5660020000000 1.0
C      1  0.5637390000000  0.5372190000000  0.3035300000000 1.0
C      1  0.5637380000000  0.6515380000000  0.6304660000000 1.0
C      1  0.3836470000000  0.6653880000000  0.4278050000000 1.0
C      1  0.3836460000000  0.4798290000000  0.6793280000000 1.0
C      1  0.3836460000000  0.3547830000000  0.3928680000000 1.0
C      1  0.6936430000000  0.5416510000000  0.4138610000000 1.0
C      1  0.6936430000000  0.5537730000000  0.5791400000000 1.0
C      1  0.6936430000000  0.4045760000000  0.5069990000000 1.0
C      1  0.5184050000000  0.3014460000000  0.3822520000000 1.0
C      1  0.5184050000000  0.7012500000000  0.3869220000000 1.0
C      1  0.5184040000000  0.4973050000000  0.7308280000000 1.0
C      1  0.4437300000000  0.5625610000000  0.5625150000000 1.0
C      1  0.4437310000000  0.4145790000000  0.5229230000000 1.0
C      1  0.4437310000000  0.5228580000000  0.4145630000000 1.0
C      1  0.6992540000000  0.4576830000000  0.5845580000000 1.0
C      1  0.6992540000000  0.4479290000000  0.4210730000000 1.0
C      1  0.6992540000000  0.5943890000000  0.4943690000000 1.0
C      1  0.6080640000000  0.5091240000000  0.7001100000000 1.0
C      1  0.6080640000000  0.3221370000000  0.4078480000000 1.0
C      1  0.6080640000000  0.6687380000000  0.3920440000000 1.0
C      1  0.2999850000000  0.6215280000000  0.5827160000000 1.0
C      1  0.2999860000000  0.3676010000000  0.5638870000000 1.0
C      1  0.2999860000000  0.5108710000000  0.3533950000000 1.0
C      1  0.4468270000000  0.5509470000000  0.7070260000000 1.0
C      1  0.4468270000000  0.2952360000000  0.4406080000000 1.0
C      1  0.4468270000000  0.6538170000000  0.3523660000000 1.0
C      1  0.2961570000000  0.4594800000000  0.5400420000000 1.0
C      1  0.2961570000000  0.4855820000000  0.4448870000000 1.0
C      1  0.2961560000000  0.5549380000000  0.5150700000000 1.0
C      1  0.5339650000000  0.4235820000000  0.3826910000000 1.0
C      1  0.5339660000000  0.6398010000000  0.4924740000000 1.0
C      1  0.5339650000000  0.4366170000000  0.6248340000000 1.0
C      1  0.5298080000000  0.5112980000000  0.5543110000000 1.0
C      1  0.5298090000000  0.4473150000000  0.4826290000000 1.0
C      1  0.5298080000000  0.5413850000000  0.4630600000000 1.0
C      1  0.4898530000000  0.3691140000000  0.3154140000000 1.0
C      1  0.4898540000000  0.7253000000000  0.4789430000000 1.0
C      1  0.4898530000000  0.4055880000000  0.7056440000000 1.0
C      1  0.5884860000000  0.6942880000000  0.5502310000000 1.0
C      1  0.5884860000000  0.3593560000000  0.6431400000000 1.0
C      1  0.5884860000000  0.4463580000000  0.3066270000000 1.0
END
