TITL C-2159255-4746-989 -0.00250406861446914 3375 -385.516923851963 0 0 60 (D5h) n - 1
REM
REM in /scratch/bkarasulu/871
REM
REM
REM
REM
REM
REM ./C.cell (a2850807a9bf4ad07a5b6933b78d9264)
REM AIRSS Version 0.9.1 bugfix July 2018 build 013d7b7c2542+ Fri, 06 Jul 2018 19:26:36 +0100
REM compiler GCC version 9.2.1 20190827 (Red Hat 9.2.1-1)
REM options -cpp -mtune=generic -march=x86-64 -g -O0 -fpre-include=/usr/include/finclude/math-vector-fortran.h
REM seed -1488602452 512431174 -1259727501 312395457 248811511 58753121 -802482491 -2022043078 -1158465337 861612532 1302192128 -1174961468 958082698 1474089576 -2094527053 931229683 -692747370 -453101132 2030182104 1788393242 -267947131 2140183858 2051483934 -1234052665 -1917146481 -1469462452 791960339 1622528440 -2046487544 -1471002807 -1655906675 2011813299 -1739877187
REM
CELL 1.54180   15.00000   15.00000   15.00000   90.00000   90.00000   90.00000
LATT -1
SFAC C  
C      1  0.5496760000000  0.4185260000000  0.4895090000000 1.0
C      1  0.5496760000000  0.4648450000000  0.5742440000000 1.0
C      1  0.5496760000000  0.5597470000000  0.5563760000000 1.0
C      1  0.5496760000000  0.5720800000000  0.4605990000000 1.0
C      1  0.5496760000000  0.4848010000000  0.4192720000000 1.0
C      1  0.4503240000000  0.4185260000000  0.4895090000000 1.0
C      1  0.4503240000000  0.4648450000000  0.5742440000000 1.0
C      1  0.4503240000000  0.5597470000000  0.5563760000000 1.0
C      1  0.4503240000000  0.5720800000000  0.4605990000000 1.0
C      1  0.4503240000000  0.4848010000000  0.4192720000000 1.0
C      1  0.4515470000000  0.2973520000000  0.5556070000000 1.0
C      1  0.4515470000000  0.4902640000000  0.7099140000000 1.0
C      1  0.4515470000000  0.6966310000000  0.5741260000000 1.0
C      1  0.4515470000000  0.6312600000000  0.3358990000000 1.0
C      1  0.4515470000000  0.3844920000000  0.3244540000000 1.0
C      1  0.5484530000000  0.2973520000000  0.5556070000000 1.0
C      1  0.5484530000000  0.4902640000000  0.7099140000000 1.0
C      1  0.5484530000000  0.6966310000000  0.5741260000000 1.0
C      1  0.5484530000000  0.6312600000000  0.3358990000000 1.0
C      1  0.5484530000000  0.3844920000000  0.3244540000000 1.0
C      1  0.4059220000000  0.6206230000000  0.6138190000000 1.0
C      1  0.4059220000000  0.6455220000000  0.4204520000000 1.0
C      1  0.4059220000000  0.4693150000000  0.3370180000000 1.0
C      1  0.4059220000000  0.3355130000000  0.4788190000000 1.0
C      1  0.4059220000000  0.4290260000000  0.6498910000000 1.0
C      1  0.5940780000000  0.6206230000000  0.6138190000000 1.0
C      1  0.5940780000000  0.6455220000000  0.4204520000000 1.0
C      1  0.5940780000000  0.4693150000000  0.3370180000000 1.0
C      1  0.5940780000000  0.3355130000000  0.4788190000000 1.0
C      1  0.5940780000000  0.4290260000000  0.6498910000000 1.0
C      1  0.6742620000000  0.5798200000000  0.4563680000000 1.0
C      1  0.6742620000000  0.4831690000000  0.4106040000000 1.0
C      1  0.6742620000000  0.4097790000000  0.4883820000000 1.0
C      1  0.6742620000000  0.4610710000000  0.5822160000000 1.0
C      1  0.6742620000000  0.5661620000000  0.5624300000000 1.0
C      1  0.3257380000000  0.5798200000000  0.4563680000000 1.0
C      1  0.3257380000000  0.4831690000000  0.4106040000000 1.0
C      1  0.3257380000000  0.4097790000000  0.4883820000000 1.0
C      1  0.3257380000000  0.4610710000000  0.5822160000000 1.0
C      1  0.3257380000000  0.5661620000000  0.5624300000000 1.0
C      1  0.2270800000000  0.4152350000000  0.4890850000000 1.0
C      1  0.2270800000000  0.4634260000000  0.5772440000000 1.0
C      1  0.2270800000000  0.5621610000000  0.5586540000000 1.0
C      1  0.2270800000000  0.5749930000000  0.4590070000000 1.0
C      1  0.2270800000000  0.4841870000000  0.4160100000000 1.0
C      1  0.7729200000000  0.4152350000000  0.4890850000000 1.0
C      1  0.7729200000000  0.4634260000000  0.5772440000000 1.0
C      1  0.7729200000000  0.5621610000000  0.5586540000000 1.0
C      1  0.7729200000000  0.5749930000000  0.4590070000000 1.0
C      1  0.7729200000000  0.4841870000000  0.4160100000000 1.0
C      1  0.5484530000000  0.3437880000000  0.6405560000000 1.0
C      1  0.5484530000000  0.5854050000000  0.6920010000000 1.0
C      1  0.5484530000000  0.7089950000000  0.4781060000000 1.0
C      1  0.5484530000000  0.5437610000000  0.2944680000000 1.0
C      1  0.5484530000000  0.3180500000000  0.3948680000000 1.0
C      1  0.4515470000000  0.3437880000000  0.6405560000000 1.0
C      1  0.4515470000000  0.5854050000000  0.6920010000000 1.0
C      1  0.4515470000000  0.7089950000000  0.4781060000000 1.0
C      1  0.4515470000000  0.5437610000000  0.2944680000000 1.0
C      1  0.4515470000000  0.3180500000000  0.3948680000000 1.0
END
