TITL C-2159255-4746-696 -0.00162362783611399 3375 -355.637248638927 0 0 60 (Th) n - 1
REM
REM in /scratch/bkarasulu/871
REM
REM
REM
REM
REM
REM ./C.cell (a2850807a9bf4ad07a5b6933b78d9264)
REM AIRSS Version 0.9.1 bugfix July 2018 build 013d7b7c2542+ Fri, 06 Jul 2018 19:26:36 +0100
REM compiler GCC version 9.2.1 20190827 (Red Hat 9.2.1-1)
REM options -cpp -mtune=generic -march=x86-64 -g -O0 -fpre-include=/usr/include/finclude/math-vector-fortran.h
REM seed 1364363824 -1265077445 -567643472 1084616608 -1070295922 -1276326941 753392430 -375516818 753938070 -773178816 929957711 -908343206 1800984661 1624432987 1251766982 1057091674 -2098091911 -225906848 2112479975 1253325691 345262224 1919469694 -1512667547 -664579569 -1378229597 1961952141 -1617129103 -1363547293 929990943 -1090586647 772071492 1843108482 -1418925838
REM
CELL 1.54180   15.00000   15.00000   15.00000   90.00000   90.00000   90.00000
LATT -1
SFAC C  
C      1  0.3801080000000  0.4482760000000  0.5490460000000 1.0
C      1  0.5490460000000  0.3801080000000  0.4482760000000 1.0
C      1  0.4482760000000  0.5490460000000  0.3801080000000 1.0
C      1  0.6198920000000  0.5517240000000  0.5490460000000 1.0
C      1  0.6198920000000  0.4482760000000  0.4509540000000 1.0
C      1  0.3801080000000  0.5517240000000  0.4509540000000 1.0
C      1  0.4509540000000  0.6198920000000  0.4482760000000 1.0
C      1  0.4509540000000  0.3801080000000  0.5517240000000 1.0
C      1  0.5490460000000  0.6198920000000  0.5517240000000 1.0
C      1  0.5517240000000  0.4509540000000  0.3801080000000 1.0
C      1  0.5517240000000  0.5490460000000  0.6198920000000 1.0
C      1  0.4482760000000  0.4509540000000  0.6198920000000 1.0
C      1  0.3801080000000  0.4482760000000  0.4509540000000 1.0
C      1  0.5490460000000  0.3801080000000  0.5517240000000 1.0
C      1  0.4482760000000  0.5490460000000  0.6198920000000 1.0
C      1  0.6198920000000  0.5517240000000  0.4509540000000 1.0
C      1  0.6198920000000  0.4482760000000  0.5490460000000 1.0
C      1  0.3801080000000  0.5517240000000  0.5490460000000 1.0
C      1  0.4509540000000  0.6198920000000  0.5517240000000 1.0
C      1  0.4509540000000  0.3801080000000  0.4482760000000 1.0
C      1  0.5490460000000  0.6198920000000  0.4482760000000 1.0
C      1  0.5517240000000  0.4509540000000  0.6198920000000 1.0
C      1  0.5517240000000  0.5490460000000  0.3801080000000 1.0
C      1  0.4482760000000  0.4509540000000  0.3801080000000 1.0
C      1  0.4006300000000  0.7035560000000  0.5518040000000 1.0
C      1  0.5518040000000  0.4006300000000  0.7035560000000 1.0
C      1  0.7035560000000  0.5518040000000  0.4006300000000 1.0
C      1  0.5993700000000  0.2964440000000  0.5518040000000 1.0
C      1  0.5993700000000  0.7035560000000  0.4481960000000 1.0
C      1  0.4006300000000  0.2964440000000  0.4481960000000 1.0
C      1  0.4481960000000  0.5993700000000  0.7035560000000 1.0
C      1  0.4481960000000  0.4006300000000  0.2964440000000 1.0
C      1  0.5518040000000  0.5993700000000  0.2964440000000 1.0
C      1  0.2964440000000  0.4481960000000  0.4006300000000 1.0
C      1  0.2964440000000  0.5518040000000  0.5993700000000 1.0
C      1  0.7035560000000  0.4481960000000  0.5993700000000 1.0
C      1  0.4006300000000  0.7035560000000  0.4481960000000 1.0
C      1  0.5518040000000  0.4006300000000  0.2964440000000 1.0
C      1  0.7035560000000  0.5518040000000  0.5993700000000 1.0
C      1  0.5993700000000  0.2964440000000  0.4481960000000 1.0
C      1  0.5993700000000  0.7035560000000  0.5518040000000 1.0
C      1  0.4006300000000  0.2964440000000  0.5518040000000 1.0
C      1  0.4481960000000  0.5993700000000  0.2964440000000 1.0
C      1  0.4481960000000  0.4006300000000  0.7035560000000 1.0
C      1  0.5518040000000  0.5993700000000  0.7035560000000 1.0
C      1  0.2964440000000  0.4481960000000  0.5993700000000 1.0
C      1  0.2964440000000  0.5518040000000  0.4006300000000 1.0
C      1  0.7035560000000  0.4481960000000  0.4006300000000 1.0
C      1  0.6390500000000  0.2393100000000  0.5000000000000 1.0
C      1  0.5000000000000  0.6390500000000  0.2393100000000 1.0
C      1  0.2393100000000  0.5000000000000  0.6390500000000 1.0
C      1  0.5000000000000  0.3609500000000  0.2393100000000 1.0
C      1  0.5000000000000  0.3609500000000  0.7606900000000 1.0
C      1  0.2393100000000  0.5000000000000  0.3609500000000 1.0
C      1  0.5000000000000  0.6390500000000  0.7606900000000 1.0
C      1  0.3609500000000  0.7606900000000  0.5000000000000 1.0
C      1  0.7606900000000  0.5000000000000  0.3609500000000 1.0
C      1  0.7606900000000  0.5000000000000  0.6390500000000 1.0
C      1  0.3609500000000  0.2393100000000  0.5000000000000 1.0
C      1  0.6390500000000  0.7606900000000  0.5000000000000 1.0
END
