TITL C-2159252-5904-425 -0.00318365418725153 3375 -414.845635946098 0 0 60 (C1) n - 1
REM
REM in /scratch/bkarasulu/870
REM
REM
REM
REM
REM
REM ./C.cell (a2850807a9bf4ad07a5b6933b78d9264)
REM AIRSS Version 0.9.1 bugfix July 2018 build 013d7b7c2542+ Fri, 06 Jul 2018 19:26:36 +0100
REM compiler GCC version 9.2.1 20190827 (Red Hat 9.2.1-1)
REM options -cpp -mtune=generic -march=x86-64 -g -O0 -fpre-include=/usr/include/finclude/math-vector-fortran.h
REM seed 1952473589 1800308010 -1830658298 786257706 1232622857 -163529166 -2005372896 1473842703 448785480 -1113700503 210683230 -884917878 1773193882 2042878626 -70835901 -793302466 -974183965 272752899 615174621 1887720777 -959195252 -99359935 1934550997 991930862 1337118997 -1879462880 2076340782 -335482759 -730825645 -418065776 -407805267 -1615494992 1853263969
REM
CELL 1.54180   15.00000   15.00000   15.00000   90.00000   90.00000   90.00000
LATT -1
SFAC C  
C      1  0.3841270000000  0.3529370000000  0.5892520000000 1.0
C      1  0.3837870000000  0.4202060000000  0.6527900000000 1.0
C      1  0.3811910000000  0.5187170000000  0.6712680000000 1.0
C      1  0.3767210000000  0.6040730000000  0.6362570000000 1.0
C      1  0.3782680000000  0.6622990000000  0.5542780000000 1.0
C      1  0.4061500000000  0.6664800000000  0.4604240000000 1.0
C      1  0.3955400000000  0.6204420000000  0.3775630000000 1.0
C      1  0.3874400000000  0.5295610000000  0.3309720000000 1.0
C      1  0.3847090000000  0.4368800000000  0.3397280000000 1.0
C      1  0.3834260000000  0.3574380000000  0.4032210000000 1.0
C      1  0.3837090000000  0.3280920000000  0.4910990000000 1.0
C      1  0.6761030000000  0.3592790000000  0.5820940000000 1.0
C      1  0.6744320000000  0.4273950000000  0.6424900000000 1.0
C      1  0.6726750000000  0.5262640000000  0.6608970000000 1.0
C      1  0.6677220000000  0.6096340000000  0.6223700000000 1.0
C      1  0.6599840000000  0.6595790000000  0.5373040000000 1.0
C      1  0.6778940000000  0.6677750000000  0.4452840000000 1.0
C      1  0.6777750000000  0.6150070000000  0.3653180000000 1.0
C      1  0.6785500000000  0.5245510000000  0.3244820000000 1.0
C      1  0.6779470000000  0.4332530000000  0.3346770000000 1.0
C      1  0.6776440000000  0.3565980000000  0.3987890000000 1.0
C      1  0.6767100000000  0.3316500000000  0.4864600000000 1.0
C      1  0.4508830000000  0.3858360000000  0.2825310000000 1.0
C      1  0.4507630000000  0.3120620000000  0.3425710000000 1.0
C      1  0.4528370000000  0.2570670000000  0.5120280000000 1.0
C      1  0.4537720000000  0.2809730000000  0.6040450000000 1.0
C      1  0.4538280000000  0.4114260000000  0.7257970000000 1.0
C      1  0.4517470000000  0.5047600000000  0.7431620000000 1.0
C      1  0.4415480000000  0.6720080000000  0.6807030000000 1.0
C      1  0.4371990000000  0.7269050000000  0.6046320000000 1.0
C      1  0.4834630000000  0.7295040000000  0.4615970000000 1.0
C      1  0.4572420000000  0.6480180000000  0.3042660000000 1.0
C      1  0.4526070000000  0.5627270000000  0.2611230000000 1.0
C      1  0.6112730000000  0.2593670000000  0.5095020000000 1.0
C      1  0.6119340000000  0.2850410000000  0.6008660000000 1.0
C      1  0.6117700000000  0.4155540000000  0.7192150000000 1.0
C      1  0.6099990000000  0.5091510000000  0.7357710000000 1.0
C      1  0.6016670000000  0.6715660000000  0.6636140000000 1.0
C      1  0.5957300000000  0.7210010000000  0.5801390000000 1.0
C      1  0.6365310000000  0.7550330000000  0.4207900000000 1.0
C      1  0.6155480000000  0.6446390000000  0.2946550000000 1.0
C      1  0.6122700000000  0.5581620000000  0.2561650000000 1.0
C      1  0.6092720000000  0.3840000000000  0.2800290000000 1.0
C      1  0.6093220000000  0.3112800000000  0.3406420000000 1.0
C      1  0.5265720000000  0.6455600000000  0.7150140000000 1.0
C      1  0.5101700000000  0.7503190000000  0.5508790000000 1.0
C      1  0.5481580000000  0.7419590000000  0.3954110000000 1.0
C      1  0.5380170000000  0.6942540000000  0.3140530000000 1.0
C      1  0.5307800000000  0.5165360000000  0.2347170000000 1.0
C      1  0.5298720000000  0.4216320000000  0.2464960000000 1.0
C      1  0.5304180000000  0.2709490000000  0.3715630000000 1.0
C      1  0.5316980000000  0.2419790000000  0.4627460000000 1.0
C      1  0.5338640000000  0.2921870000000  0.6526420000000 1.0
C      1  0.5339170000000  0.3625120000000  0.7180360000000 1.0
C      1  0.5302110000000  0.5568590000000  0.7519910000000 1.0
C      1  0.3765840000000  0.5001340000000  0.4966840000000 1.0
C      1  0.2923710000000  0.5015080000000  0.4976430000000 1.0
C      1  0.6434760000000  0.5049030000000  0.5167240000000 1.0
C      1  0.4672110000000  0.4971830000000  0.4970950000000 1.0
C      1  0.5523630000000  0.5033400000000  0.4960680000000 1.0
END
