TITL C-2158988-7926-1020 -0.00261709057280364 3375 -403.164207570228 0 0 60 (C2v) n - 1
REM
REM in /scratch/bkarasulu/868
REM
REM
REM
REM
REM
REM ./C.cell (a2850807a9bf4ad07a5b6933b78d9264)
REM AIRSS Version 0.9.1 bugfix July 2018 build 013d7b7c2542+ Fri, 06 Jul 2018 19:26:36 +0100
REM compiler GCC version 9.2.1 20190827 (Red Hat 9.2.1-1)
REM options -cpp -mtune=generic -march=x86-64 -g -O0 -fpre-include=/usr/include/finclude/math-vector-fortran.h
REM seed 1481873795 114393097 1722309848 1111315896 -946382277 -822844792 -923629681 -1156614458 412673574 -1355992245 -989394515 1480195976 361843024 -1645966912 601767489 162264510 -1441152223 2025944794 -1056724457 489572546 -1718460496 352982225 -1047507946 -883068455 -1274462150 -774071279 187694352 1933860912 1671581728 1728027562 1369466931 -86387650 1750011452
REM
CELL 1.54180   15.00000   15.00000   15.00000   90.00000   90.00000   90.00000
LATT -1
SFAC C  
C      1  0.5510820000000  0.2248470000000  0.5469710000000 1.0
C      1  0.4489180000000  0.2248470000000  0.4530290000000 1.0
C      1  0.4489180000000  0.2248470000000  0.5469710000000 1.0
C      1  0.5510820000000  0.2248470000000  0.4530290000000 1.0
C      1  0.6624090000000  0.4492140000000  0.6876060000000 1.0
C      1  0.3375910000000  0.4492140000000  0.3123940000000 1.0
C      1  0.3375910000000  0.4492140000000  0.6876060000000 1.0
C      1  0.6624090000000  0.4492140000000  0.3123940000000 1.0
C      1  0.3051880000000  0.6787650000000  0.4529080000000 1.0
C      1  0.6948120000000  0.6787650000000  0.5470920000000 1.0
C      1  0.6948120000000  0.6787650000000  0.4529080000000 1.0
C      1  0.3051880000000  0.6787650000000  0.5470920000000 1.0
C      1  0.4487790000000  0.4791660000000  0.5873390000000 1.0
C      1  0.5512210000000  0.4791660000000  0.4126610000000 1.0
C      1  0.5512210000000  0.4791660000000  0.5873390000000 1.0
C      1  0.4487790000000  0.4791660000000  0.4126610000000 1.0
C      1  0.2461660000000  0.4384930000000  0.5493650000000 1.0
C      1  0.7538340000000  0.4384930000000  0.4506350000000 1.0
C      1  0.7538340000000  0.4384930000000  0.5493650000000 1.0
C      1  0.2461660000000  0.4384930000000  0.4506350000000 1.0
C      1  0.5881160000000  0.4989130000000  0.3156430000000 1.0
C      1  0.4118840000000  0.4989130000000  0.6843570000000 1.0
C      1  0.4118840000000  0.4989130000000  0.3156430000000 1.0
C      1  0.5881160000000  0.4989130000000  0.6843570000000 1.0
C      1  0.5974030000000  0.3933850000000  0.4473140000000 1.0
C      1  0.4025970000000  0.3933850000000  0.5526860000000 1.0
C      1  0.4025970000000  0.3933850000000  0.4473140000000 1.0
C      1  0.5974030000000  0.3933850000000  0.5526860000000 1.0
C      1  0.7655190000000  0.5350610000000  0.5478620000000 1.0
C      1  0.2344810000000  0.5350610000000  0.4521380000000 1.0
C      1  0.2344810000000  0.5350610000000  0.5478620000000 1.0
C      1  0.7655190000000  0.5350610000000  0.4521380000000 1.0
C      1  0.4018830000000  0.5586450000000  0.5485310000000 1.0
C      1  0.5981170000000  0.5586450000000  0.4514690000000 1.0
C      1  0.5981170000000  0.5586450000000  0.5485310000000 1.0
C      1  0.4018830000000  0.5586450000000  0.4514690000000 1.0
C      1  0.5484790000000  0.3156100000000  0.4148310000000 1.0
C      1  0.4515210000000  0.3156100000000  0.5851690000000 1.0
C      1  0.4515210000000  0.3156100000000  0.4148310000000 1.0
C      1  0.5484790000000  0.3156100000000  0.5851690000000 1.0
C      1  0.6030260000000  0.7067990000000  0.5489020000000 1.0
C      1  0.3969740000000  0.7067990000000  0.4510980000000 1.0
C      1  0.3969740000000  0.7067990000000  0.5489020000000 1.0
C      1  0.6030260000000  0.7067990000000  0.4510980000000 1.0
C      1  0.4501700000000  0.6347180000000  0.5953440000000 1.0
C      1  0.5498300000000  0.6347180000000  0.4046560000000 1.0
C      1  0.5498300000000  0.6347180000000  0.5953440000000 1.0
C      1  0.4501700000000  0.6347180000000  0.4046560000000 1.0
C      1  0.3147060000000  0.4104650000000  0.6039880000000 1.0
C      1  0.6852940000000  0.4104650000000  0.3960120000000 1.0
C      1  0.6852940000000  0.4104650000000  0.6039880000000 1.0
C      1  0.3147060000000  0.4104650000000  0.3960120000000 1.0
C      1  0.5480910000000  0.5883220000000  0.6895430000000 1.0
C      1  0.4519090000000  0.5883220000000  0.3104570000000 1.0
C      1  0.4519090000000  0.5883220000000  0.6895430000000 1.0
C      1  0.5480910000000  0.5883220000000  0.3104570000000 1.0
C      1  0.6934700000000  0.5875950000000  0.5776690000000 1.0
C      1  0.3065300000000  0.5875950000000  0.4223310000000 1.0
C      1  0.3065300000000  0.5875950000000  0.5776690000000 1.0
C      1  0.6934700000000  0.5875950000000  0.4223310000000 1.0
END
