TITL C-2158988-7926-543 -0.00400482292277141 3375 -413.518893724487 0 0 60 (C1) n - 1
REM
REM in /scratch/bkarasulu/868
REM
REM
REM
REM
REM
REM ./C.cell (a2850807a9bf4ad07a5b6933b78d9264)
REM AIRSS Version 0.9.1 bugfix July 2018 build 013d7b7c2542+ Fri, 06 Jul 2018 19:26:36 +0100
REM compiler GCC version 9.2.1 20190827 (Red Hat 9.2.1-1)
REM options -cpp -mtune=generic -march=x86-64 -g -O0 -fpre-include=/usr/include/finclude/math-vector-fortran.h
REM seed 585187792 -432725147 271734295 -1767257788 -1525556057 1948980341 -1547678799 -688112940 -523956283 607745737 -922978049 1312164297 12823560 1002352265 1659094440 -292127613 714815612 -928355488 1432537399 -1829243101 2111702207 -1646090905 983019404 604895499 1454105071 -1519006299 1122750112 -880026894 -1013591358 -1783500604 754245697 1930660097 -1949202504
REM
CELL 1.54180   15.00000   15.00000   15.00000   90.00000   90.00000   90.00000
LATT -1
SFAC C  
C      1  0.2465810000000  0.6203160000000  0.4959390000000 1.0
C      1  0.2950820000000  0.6090250000000  0.3629250000000 1.0
C      1  0.4005380000000  0.6213250000000  0.2685840000000 1.0
C      1  0.5416600000000  0.6086900000000  0.2576940000000 1.0
C      1  0.6715570000000  0.6204640000000  0.3142000000000 1.0
C      1  0.7403220000000  0.6086670000000  0.4380450000000 1.0
C      1  0.7430880000000  0.6212870000000  0.5795610000000 1.0
C      1  0.6593480000000  0.6089830000000  0.6936150000000 1.0
C      1  0.5316290000000  0.6202830000000  0.7547140000000 1.0
C      1  0.3919870000000  0.6075690000000  0.7273340000000 1.0
C      1  0.2872950000000  0.6075800000000  0.6322900000000 1.0
C      1  0.2502270000000  0.4738580000000  0.5454590000000 1.0
C      1  0.2522540000000  0.4740050000000  0.4478320000000 1.0
C      1  0.3571370000000  0.4744530000000  0.2912230000000 1.0
C      1  0.4464810000000  0.4744350000000  0.2535420000000 1.0
C      1  0.6321350000000  0.4738790000000  0.2855100000000 1.0
C      1  0.7038950000000  0.4738710000000  0.3506560000000 1.0
C      1  0.7536140000000  0.4743990000000  0.5323640000000 1.0
C      1  0.7247200000000  0.4744100000000  0.6249240000000 1.0
C      1  0.5789460000000  0.4739670000000  0.7444120000000 1.0
C      1  0.4819690000000  0.4738300000000  0.7558420000000 1.0
C      1  0.3189830000000  0.4657490000000  0.7025510000000 1.0
C      1  0.6450320000000  0.4204220000000  0.6041660000000 1.0
C      1  0.5722310000000  0.4196810000000  0.6634060000000 1.0
C      1  0.4672400000000  0.4196710000000  0.6772430000000 1.0
C      1  0.3781130000000  0.4235540000000  0.6374090000000 1.0
C      1  0.3298720000000  0.4196870000000  0.5525370000000 1.0
C      1  0.3335240000000  0.4197080000000  0.4467020000000 1.0
C      1  0.3854720000000  0.4204500000000  0.3685310000000 1.0
C      1  0.4819740000000  0.4205350000000  0.3277380000000 1.0
C      1  0.5738980000000  0.4202220000000  0.3436720000000 1.0
C      1  0.6516110000000  0.4202130000000  0.4142230000000 1.0
C      1  0.6763330000000  0.4205140000000  0.5041830000000 1.0
C      1  0.4587710000000  0.5649240000000  0.7726470000000 1.0
C      1  0.3179540000000  0.5580100000000  0.7036950000000 1.0
C      1  0.2357500000000  0.5649500000000  0.5701800000000 1.0
C      1  0.2406420000000  0.5647040000000  0.4214230000000 1.0
C      1  0.3289490000000  0.5658540000000  0.2902340000000 1.0
C      1  0.4656880000000  0.5654980000000  0.2321360000000 1.0
C      1  0.6215580000000  0.5648820000000  0.2585900000000 1.0
C      1  0.7317210000000  0.5648690000000  0.3586010000000 1.0
C      1  0.7730800000000  0.5654640000000  0.5111950000000 1.0
C      1  0.7284320000000  0.5658080000000  0.6528960000000 1.0
C      1  0.6063640000000  0.5646610000000  0.7534350000000 1.0
C      1  0.4255580000000  0.6716350000000  0.6563480000000 1.0
C      1  0.3547220000000  0.6716420000000  0.5920410000000 1.0
C      1  0.3291990000000  0.6771240000000  0.4988750000000 1.0
C      1  0.3601490000000  0.6723470000000  0.4075960000000 1.0
C      1  0.4332590000000  0.6779400000000  0.3452280000000 1.0
C      1  0.5288060000000  0.6726130000000  0.3348910000000 1.0
C      1  0.6158560000000  0.6776200000000  0.3755650000000 1.0
C      1  0.6647310000000  0.6725970000000  0.4582870000000 1.0
C      1  0.6636530000000  0.6779140000000  0.5543860000000 1.0
C      1  0.6086210000000  0.6723180000000  0.6331660000000 1.0
C      1  0.5207510000000  0.6771020000000  0.6727720000000 1.0
C      1  0.5003490000000  0.5479950000000  0.5027800000000 1.0
C      1  0.4988790000000  0.3772540000000  0.5043780000000 1.0
C      1  0.4985060000000  0.4636230000000  0.5047990000000 1.0
C      1  0.4987400000000  0.2898240000000  0.5045210000000 1.0
C      1  0.4984930000000  0.2061380000000  0.5047820000000 1.0
END
