TITL C-2158988-7926-521 -0.00231823951623209 3375 -435.947183483218 0 0 60 (C1) n - 1
REM
REM in /scratch/bkarasulu/868
REM
REM
REM
REM
REM
REM ./C.cell (a2850807a9bf4ad07a5b6933b78d9264)
REM AIRSS Version 0.9.1 bugfix July 2018 build 013d7b7c2542+ Fri, 06 Jul 2018 19:26:36 +0100
REM compiler GCC version 9.2.1 20190827 (Red Hat 9.2.1-1)
REM options -cpp -mtune=generic -march=x86-64 -g -O0 -fpre-include=/usr/include/finclude/math-vector-fortran.h
REM seed -89977414 -1249328443 -1887267408 528948592 1293271261 176730698 28250409 4692666 -514146136 1248993973 -1571279489 158525308 -317781935 -1725727976 939747531 2137693177 -447212899 -353339348 991728680 -1667351826 1293001790 314669389 412397757 2106699529 -1987901669 -643149558 517008849 706500234 -1309131498 -1324262103 -289624630 606515938 606548066
REM
CELL 1.54180   15.00000   15.00000   15.00000   90.00000   90.00000   90.00000
LATT -1
SFAC C  
C      1  0.6328730000000  0.7115720000000  0.5585760000000 1.0
C      1  0.6288810000000  0.4644480000000  0.3102330000000 1.0
C      1  0.6278760000000  0.3293040000000  0.6575700000000 1.0
C      1  0.3757060000000  0.7106970000000  0.4417470000000 1.0
C      1  0.3807640000000  0.4610360000000  0.6917850000000 1.0
C      1  0.3839920000000  0.3387160000000  0.3558070000000 1.0
C      1  0.7140480000000  0.4387480000000  0.4765480000000 1.0
C      1  0.5575780000000  0.4309300000000  0.5491960000000 1.0
C      1  0.5086320000000  0.4859710000000  0.5002280000000 1.0
C      1  0.2828680000000  0.4266140000000  0.5397820000000 1.0
C      1  0.2630900000000  0.4729520000000  0.3832260000000 1.0
C      1  0.4549830000000  0.5466690000000  0.4830080000000 1.0
C      1  0.5525600000000  0.7079730000000  0.6083470000000 1.0
C      1  0.5448950000000  0.4988490000000  0.2791840000000 1.0
C      1  0.5426890000000  0.2938700000000  0.6294150000000 1.0
C      1  0.4561630000000  0.7135920000000  0.3906330000000 1.0
C      1  0.4645590000000  0.4955270000000  0.7215470000000 1.0
C      1  0.4695230000000  0.3036490000000  0.3834080000000 1.0
C      1  0.6668270000000  0.3645170000000  0.4344960000000 1.0
C      1  0.6662680000000  0.4837100000000  0.6466860000000 1.0
C      1  0.6571180000000  0.6642340000000  0.4152890000000 1.0
C      1  0.3417420000000  0.3592740000000  0.5763270000000 1.0
C      1  0.3383570000000  0.4969850000000  0.3323940000000 1.0
C      1  0.3494640000000  0.6570330000000  0.5821850000000 1.0
C      1  0.4725350000000  0.5870460000000  0.6935710000000 1.0
C      1  0.4549470000000  0.6354320000000  0.3303750000000 1.0
C      1  0.4665210000000  0.2768610000000  0.4770020000000 1.0
C      1  0.5377440000000  0.5937950000000  0.3019860000000 1.0
C      1  0.5562640000000  0.6254230000000  0.6635300000000 1.0
C      1  0.5452890000000  0.2755070000000  0.5323160000000 1.0
C      1  0.3758010000000  0.3051230000000  0.5040310000000 1.0
C      1  0.3828170000000  0.6084410000000  0.6570070000000 1.0
C      1  0.3694660000000  0.5868450000000  0.3496590000000 1.0
C      1  0.6373310000000  0.3042900000000  0.5048590000000 1.0
C      1  0.6253620000000  0.6135030000000  0.3414860000000 1.0
C      1  0.6425340000000  0.5769860000000  0.6403340000000 1.0
C      1  0.6807560000000  0.6292630000000  0.5672360000000 1.0
C      1  0.6761310000000  0.5327900000000  0.3481630000000 1.0
C      1  0.6838500000000  0.3361040000000  0.5839340000000 1.0
C      1  0.3278380000000  0.6302730000000  0.4282710000000 1.0
C      1  0.3312280000000  0.5281810000000  0.6527210000000 1.0
C      1  0.3243050000000  0.3309140000000  0.4264430000000 1.0
C      1  0.3930540000000  0.7255560000000  0.5346790000000 1.0
C      1  0.3930730000000  0.4204990000000  0.3080240000000 1.0
C      1  0.3887380000000  0.3737660000000  0.6565430000000 1.0
C      1  0.6141820000000  0.7307840000000  0.4656190000000 1.0
C      1  0.6169100000000  0.4162620000000  0.6972580000000 1.0
C      1  0.6220920000000  0.3800720000000  0.3525070000000 1.0
C      1  0.3032540000000  0.5978440000000  0.5194250000000 1.0
C      1  0.2729470000000  0.4085660000000  0.4460720000000 1.0
C      1  0.2853640000000  0.5163380000000  0.5696110000000 1.0
C      1  0.7031620000000  0.6044710000000  0.4768630000000 1.0
C      1  0.7106300000000  0.4283490000000  0.5731710000000 1.0
C      1  0.7168410000000  0.5217620000000  0.4332100000000 1.0
C      1  0.5240900000000  0.4221970000000  0.7175890000000 1.0
C      1  0.5218160000000  0.7485760000000  0.4550290000000 1.0
C      1  0.5328180000000  0.3534690000000  0.3338040000000 1.0
C      1  0.4857970000000  0.4252620000000  0.2879780000000 1.0
C      1  0.4849470000000  0.7453150000000  0.5464880000000 1.0
C      1  0.4781100000000  0.3472650000000  0.6755930000000 1.0
END
