TITL C-2159255-4746-754 -0.00128649641039263 3375 -408.806314625998 0 0 60 (C2h) n - 1
REM
REM in /scratch/bkarasulu/871
REM
REM
REM
REM
REM
REM ./C.cell (a2850807a9bf4ad07a5b6933b78d9264)
REM AIRSS Version 0.9.1 bugfix July 2018 build 013d7b7c2542+ Fri, 06 Jul 2018 19:26:36 +0100
REM compiler GCC version 9.2.1 20190827 (Red Hat 9.2.1-1)
REM options -cpp -mtune=generic -march=x86-64 -g -O0 -fpre-include=/usr/include/finclude/math-vector-fortran.h
REM seed 1591261835 1837724076 -2049346523 1184304896 572924010 127257541 -962124272 1371448258 1554167229 -1681336832 -108924044 -2124451962 -1202352578 1395197203 1932513393 1651204528 1755168800 -627943910 973169123 2115589608 1413491011 -1218392845 -1629434797 -479949690 -728035583 1785683990 -1241050455 2134698599 1815429693 -648129188 -1116506473 1579691059 993737045
REM
CELL 1.54180   15.00000   15.00000   15.00000   90.00000   90.00000   90.00000
LATT -1
SFAC C  
C      1  0.2732390000000  0.5762760000000  0.3832290000000 1.0
C      1  0.7261600000000  0.4891380000000  0.3582550000000 1.0
C      1  0.2740190000000  0.4033080000000  0.3977350000000 1.0
C      1  0.7172280000000  0.3596310000000  0.4671750000000 1.0
C      1  0.2840180000000  0.3651110000000  0.5559070000000 1.0
C      1  0.7267610000000  0.4237240000000  0.6167710000000 1.0
C      1  0.2738400000000  0.5108620000000  0.6417450000000 1.0
C      1  0.7259810000000  0.5966910000000  0.6022650000000 1.0
C      1  0.2827720000000  0.6403690000000  0.5328250000000 1.0
C      1  0.7159820000000  0.6348890000000  0.4440930000000 1.0
C      1  0.6932390000000  0.4085790000000  0.3921150000000 1.0
C      1  0.3065340000000  0.3531260000000  0.4690650000000 1.0
C      1  0.6947540000000  0.3620730000000  0.5548170000000 1.0
C      1  0.3075100000000  0.4260890000000  0.6217490000000 1.0
C      1  0.6971970000000  0.5112240000000  0.6232130000000 1.0
C      1  0.3067610000000  0.5914210000000  0.6078850000000 1.0
C      1  0.6934660000000  0.6468740000000  0.5309350000000 1.0
C      1  0.3052460000000  0.6379270000000  0.4451830000000 1.0
C      1  0.6924900000000  0.5739110000000  0.3782510000000 1.0
C      1  0.3028030000000  0.4887760000000  0.3767870000000 1.0
C      1  0.5951640000000  0.5865050000000  0.3619530000000 1.0
C      1  0.4119200000000  0.4840910000000  0.3150360000000 1.0
C      1  0.5960420000000  0.3925730000000  0.3782150000000 1.0
C      1  0.4043590000000  0.3296480000000  0.4576900000000 1.0
C      1  0.5971360000000  0.3399390000000  0.5700160000000 1.0
C      1  0.4048360000000  0.4134950000000  0.6380460000000 1.0
C      1  0.5880800000000  0.5159090000000  0.6849640000000 1.0
C      1  0.4039580000000  0.6074270000000  0.6217850000000 1.0
C      1  0.5956410000000  0.6703520000000  0.5423100000000 1.0
C      1  0.4028640000000  0.6600610000000  0.4299840000000 1.0
C      1  0.5437190000000  0.3514250000000  0.6523810000000 1.0
C      1  0.4535970000000  0.4686310000000  0.7054790000000 1.0
C      1  0.5394300000000  0.5993050000000  0.6912480000000 1.0
C      1  0.4529670000000  0.6894440000000  0.5925520000000 1.0
C      1  0.5428460000000  0.7086780000000  0.4660300000000 1.0
C      1  0.4562810000000  0.6485750000000  0.3476190000000 1.0
C      1  0.5464030000000  0.5313690000000  0.2945210000000 1.0
C      1  0.4605700000000  0.4006950000000  0.3087520000000 1.0
C      1  0.5470330000000  0.3105560000000  0.4074480000000 1.0
C      1  0.4571540000000  0.2913220000000  0.5339700000000 1.0
C      1  0.5433750000000  0.4466450000000  0.4494740000000 1.0
C      1  0.4416430000000  0.4234260000000  0.4627350000000 1.0
C      1  0.5590150000000  0.4312290000000  0.5494520000000 1.0
C      1  0.4570690000000  0.4554160000000  0.5587390000000 1.0
C      1  0.6037080000000  0.5080550000000  0.5904590000000 1.0
C      1  0.4566250000000  0.5533550000000  0.5505260000000 1.0
C      1  0.5583570000000  0.5765740000000  0.5372650000000 1.0
C      1  0.4409850000000  0.5687710000000  0.4505480000000 1.0
C      1  0.5429310000000  0.5445840000000  0.4412610000000 1.0
C      1  0.3962920000000  0.4919450000000  0.4095400000000 1.0
C      1  0.4577340000000  0.3277370000000  0.3745220000000 1.0
C      1  0.5447460000000  0.2889730000000  0.5012230000000 1.0
C      1  0.4546030000000  0.3281990000000  0.6228430000000 1.0
C      1  0.5401770000000  0.4342890000000  0.7050840000000 1.0
C      1  0.4531610000000  0.5647310000000  0.6974220000000 1.0
C      1  0.5422660000000  0.6722630000000  0.6254780000000 1.0
C      1  0.4552540000000  0.7110270000000  0.4987770000000 1.0
C      1  0.5453970000000  0.6718010000000  0.3771570000000 1.0
C      1  0.4598230000000  0.5657110000000  0.2949160000000 1.0
C      1  0.5468390000000  0.4352690000000  0.3025780000000 1.0
END
