TITL C-2158984-8299-759 -0.00224370735051781 3375 -419.502335359281 0 0 60 (C1) n - 1
REM
REM in /scratch/bkarasulu/869
REM
REM
REM
REM
REM
REM ./C.cell (a2850807a9bf4ad07a5b6933b78d9264)
REM AIRSS Version 0.9.1 bugfix July 2018 build 013d7b7c2542+ Fri, 06 Jul 2018 19:26:36 +0100
REM compiler GCC version 9.2.1 20190827 (Red Hat 9.2.1-1)
REM options -cpp -mtune=generic -march=x86-64 -g -O0 -fpre-include=/usr/include/finclude/math-vector-fortran.h
REM seed -985259261 -1937013471 726363233 -1739290666 -17523873 932422534 -1749722028 1582774265 -694502022 -889100361 1797661065 1259988391 567283220 -827525249 -1466642631 -1366816027 1678422178 -989116299 708172115 -137804401 2110411863 418874263 -1607627231 -731131275 -1694527291 1811843573 858918455 732273345 974785432 1533101007 -849858096 1526411955 241596675
REM
CELL 1.54180   15.00000   15.00000   15.00000   90.00000   90.00000   90.00000
LATT -1
SFAC C  
C      1  0.7130000000000  0.6002640000000  0.5670190000000 1.0
C      1  0.6006660000000  0.6279470000000  0.6568610000000 1.0
C      1  0.5000510000000  0.6470470000000  0.3565930000000 1.0
C      1  0.4738330000000  0.7546560000000  0.4873490000000 1.0
C      1  0.3171790000000  0.3646690000000  0.3456290000000 1.0
C      1  0.4913980000000  0.5413890000000  0.7064820000000 1.0
C      1  0.2607130000000  0.5242030000000  0.5049930000000 1.0
C      1  0.5315780000000  0.6127280000000  0.5766630000000 1.0
C      1  0.6391280000000  0.4784480000000  0.6594800000000 1.0
C      1  0.4052790000000  0.5163370000000  0.3306330000000 1.0
C      1  0.3743270000000  0.3352300000000  0.5849320000000 1.0
C      1  0.6181960000000  0.7362640000000  0.5477700000000 1.0
C      1  0.5222040000000  0.2711550000000  0.4095950000000 1.0
C      1  0.6898130000000  0.3656400000000  0.5028010000000 1.0
C      1  0.3385110000000  0.3868100000000  0.4380670000000 1.0
C      1  0.6543710000000  0.5849690000000  0.3650490000000 1.0
C      1  0.5205690000000  0.4326670000000  0.3998880000000 1.0
C      1  0.2799210000000  0.5518110000000  0.4192840000000 1.0
C      1  0.4584810000000  0.4669820000000  0.2694120000000 1.0
C      1  0.2846170000000  0.4350280000000  0.5130130000000 1.0
C      1  0.5027180000000  0.2594030000000  0.5646580000000 1.0
C      1  0.6079700000000  0.2566190000000  0.4511060000000 1.0
C      1  0.6205150000000  0.7236020000000  0.4509820000000 1.0
C      1  0.5873940000000  0.5482480000000  0.7009750000000 1.0
C      1  0.6824160000000  0.6639790000000  0.4161470000000 1.0
C      1  0.5080160000000  0.3456990000000  0.3521660000000 1.0
C      1  0.6647350000000  0.6725650000000  0.6071990000000 1.0
C      1  0.6010800000000  0.3927820000000  0.6492070000000 1.0
C      1  0.6406310000000  0.3338620000000  0.5837300000000 1.0
C      1  0.4584420000000  0.3174050000000  0.6245920000000 1.0
C      1  0.3341110000000  0.6244160000000  0.4119990000000 1.0
C      1  0.4238080000000  0.5166560000000  0.4952340000000 1.0
C      1  0.5279670000000  0.7560490000000  0.5691980000000 1.0
C      1  0.5350490000000  0.4914980000000  0.3172200000000 1.0
C      1  0.4619370000000  0.6835410000000  0.6088710000000 1.0
C      1  0.6704530000000  0.4623140000000  0.4934400000000 1.0
C      1  0.7055300000000  0.5290750000000  0.4273990000000 1.0
C      1  0.5062840000000  0.3830210000000  0.6708100000000 1.0
C      1  0.5660890000000  0.4599720000000  0.4840070000000 1.0
C      1  0.3620490000000  0.4733320000000  0.6560460000000 1.0
C      1  0.4576410000000  0.2636570000000  0.4812500000000 1.0
C      1  0.6883810000000  0.2977640000000  0.4377380000000 1.0
C      1  0.4505880000000  0.4575980000000  0.6950190000000 1.0
C      1  0.4326110000000  0.6098940000000  0.6672960000000 1.0
C      1  0.4176020000000  0.4608120000000  0.4186860000000 1.0
C      1  0.7338120000000  0.6083140000000  0.4755100000000 1.0
C      1  0.2983070000000  0.5911780000000  0.5634270000000 1.0
C      1  0.5283060000000  0.7191430000000  0.4162490000000 1.0
C      1  0.3218100000000  0.4116280000000  0.5971870000000 1.0
C      1  0.5680680000000  0.5796270000000  0.3305810000000 1.0
C      1  0.4402050000000  0.3736720000000  0.2897010000000 1.0
C      1  0.6909050000000  0.5082960000000  0.5840630000000 1.0
C      1  0.3991970000000  0.7135350000000  0.5340950000000 1.0
C      1  0.3515070000000  0.5654000000000  0.6382640000000 1.0
C      1  0.3544490000000  0.3406910000000  0.2712580000000 1.0
C      1  0.5111930000000  0.5282280000000  0.5200470000000 1.0
C      1  0.3773100000000  0.3129500000000  0.4941010000000 1.0
C      1  0.4109160000000  0.6106200000000  0.3543170000000 1.0
C      1  0.5938050000000  0.2599320000000  0.5507380000000 1.0
C      1  0.3323550000000  0.6587820000000  0.5039760000000 1.0
END
