TITL C-2159255-4746-633 0.230985704035268 3375 -397.609050625666 0 0 60 (C1) n - 1
REM
REM in /scratch/bkarasulu/871
REM
REM
REM
REM
REM
REM ./C.cell (a2850807a9bf4ad07a5b6933b78d9264)
REM AIRSS Version 0.9.1 bugfix July 2018 build 013d7b7c2542+ Fri, 06 Jul 2018 19:26:36 +0100
REM compiler GCC version 9.2.1 20190827 (Red Hat 9.2.1-1)
REM options -cpp -mtune=generic -march=x86-64 -g -O0 -fpre-include=/usr/include/finclude/math-vector-fortran.h
REM seed -93913209 -1390399474 2063336654 674057927 -286034910 -2017641730 2107184033 927133766 2133252656 699423227 687677439 -1278400256 1467866558 -1063281768 -2827487 1900845907 771010808 1147566257 1295966934 -857519387 -872118786 844548783 1853862733 353613352 -2120508292 220148426 1647615323 -458056601 -1918192721 434253072 669420257 758524652 -587241401
REM
CELL 1.54180   15.00000   15.00000   15.00000   90.00000   90.00000   90.00000
LATT -1
SFAC C  
C      1  0.3785990000000  0.3094620000000  0.4319500000000 1.0
C      1  0.4201410000000  0.6687220000000  0.4056770000000 1.0
C      1  0.7098180000000  0.4801490000000  0.4164950000000 1.0
C      1  0.3794510000000  0.3257790000000  0.5829180000000 1.0
C      1  0.4220380000000  0.6840900000000  0.5481380000000 1.0
C      1  0.7177110000000  0.4925450000000  0.5669550000000 1.0
C      1  0.3753210000000  0.6125220000000  0.6761560000000 1.0
C      1  0.6560990000000  0.5896410000000  0.6971590000000 1.0
C      1  0.4974280000000  0.3638370000000  0.6894260000000 1.0
C      1  0.3657640000000  0.5662950000000  0.2847790000000 1.0
C      1  0.6365090000000  0.5359220000000  0.2787910000000 1.0
C      1  0.4841510000000  0.3110080000000  0.3013300000000 1.0
C      1  0.3181690000000  0.4025330000000  0.5767160000000 1.0
C      1  0.5232420000000  0.6964990000000  0.5503030000000 1.0
C      1  0.6727250000000  0.4052730000000  0.5725830000000 1.0
C      1  0.3160410000000  0.3853660000000  0.4228450000000 1.0
C      1  0.5196120000000  0.6832160000000  0.3984110000000 1.0
C      1  0.6692680000000  0.3889400000000  0.4281150000000 1.0
C      1  0.4037940000000  0.3163850000000  0.3383190000000 1.0
C      1  0.4115350000000  0.6341130000000  0.3172080000000 1.0
C      1  0.6825180000000  0.4762800000000  0.3231670000000 1.0
C      1  0.4131580000000  0.3581600000000  0.6679170000000 1.0
C      1  0.4201030000000  0.6814650000000  0.6453530000000 1.0
C      1  0.6929050000000  0.5167130000000  0.6593770000000 1.0
C      1  0.6414550000000  0.4323130000000  0.6582120000000 1.0
C      1  0.3578070000000  0.4406220000000  0.6556750000000 1.0
C      1  0.5165540000000  0.6923590000000  0.6498100000000 1.0
C      1  0.6340890000000  0.3914440000000  0.3391180000000 1.0
C      1  0.3481150000000  0.3999650000000  0.3332330000000 1.0
C      1  0.5111840000000  0.6368910000000  0.3155980000000 1.0
C      1  0.5481800000000  0.5479570000000  0.3164900000000 1.0
C      1  0.5368900000000  0.3909560000000  0.3237250000000 1.0
C      1  0.3999790000000  0.4799590000000  0.3135860000000 1.0
C      1  0.5641530000000  0.6069170000000  0.6614890000000 1.0
C      1  0.5453100000000  0.4407450000000  0.6581290000000 1.0
C      1  0.4071880000000  0.5258210000000  0.6464230000000 1.0
C      1  0.5758700000000  0.6057320000000  0.5609050000000 1.0
C      1  0.5140210000000  0.4503490000000  0.5598880000000 1.0
C      1  0.4392110000000  0.5103950000000  0.5533660000000 1.0
C      1  0.5261700000000  0.5168870000000  0.4176810000000 1.0
C      1  0.5062720000000  0.4220780000000  0.4126070000000 1.0
C      1  0.4326400000000  0.4881000000000  0.4055420000000 1.0
C      1  0.6239990000000  0.3621040000000  0.5042870000000 1.0
C      1  0.5825250000000  0.6924370000000  0.4685960000000 1.0
C      1  0.3081420000000  0.4472540000000  0.4936090000000 1.0
C      1  0.3826510000000  0.6287190000000  0.4818990000000 1.0
C      1  0.7033710000000  0.5453250000000  0.4864650000000 1.0
C      1  0.4368480000000  0.3152340000000  0.5072560000000 1.0
C      1  0.5212560000000  0.3739610000000  0.4980750000000 1.0
C      1  0.3771780000000  0.5196420000000  0.4803460000000 1.0
C      1  0.6495840000000  0.6260150000000  0.4999710000000 1.0
C      1  0.4955850000000  0.4717870000000  0.2716200000000 1.0
C      1  0.5029530000000  0.5300440000000  0.6956120000000 1.0
C      1  0.4911540000000  0.4747270000000  0.1755890000000 1.0
C      1  0.4848210000000  0.5529620000000  0.7865860000000 1.0
C      1  0.4285170000000  0.5242670000000  0.0267995000000 1.0
C      1  0.4278730000000  0.5389050000000  0.9455320000000 1.0
C      1  0.4488080000000  0.5001000000000  0.1088420000000 1.0
C      1  0.4481500000000  0.5481120000000  0.8606320000000 1.0
C      1  0.5314380000000  0.5345070000000  0.5143560000000 1.0
END
