TITL C-2159255-4746-1418 -0.00194045982515378 3375 -408.073520809402 0 0 60 (C5) n - 1
REM
REM in /scratch/bkarasulu/871
REM
REM
REM
REM
REM
REM ./C.cell (a2850807a9bf4ad07a5b6933b78d9264)
REM AIRSS Version 0.9.1 bugfix July 2018 build 013d7b7c2542+ Fri, 06 Jul 2018 19:26:36 +0100
REM compiler GCC version 9.2.1 20190827 (Red Hat 9.2.1-1)
REM options -cpp -mtune=generic -march=x86-64 -g -O0 -fpre-include=/usr/include/finclude/math-vector-fortran.h
REM seed 598877758 -359663398 345463641 1830947656 1104162161 -1744766598 309620865 -241873263 104369459 -1757239994 -1307263624 466727769 656632018 419683392 1143264998 -391777085 -301096459 1837445125 697116123 1356207039 -1696665019 1523177186 965514533 561043855 -1465062774 1931201565 322962156 473095379 -451365253 -712017467 723093254 -1198541411 -572884357
REM
CELL 1.54180   15.00000   15.00000   15.00000   90.00000   90.00000   90.00000
LATT -1
SFAC C  
C      1  0.6170880000000  0.5021950000000  0.2947510000000 1.0
C      1  0.6170890000000  0.6958800000000  0.4386620000000 1.0
C      1  0.6170880000000  0.6188650000000  0.6673390000000 1.0
C      1  0.6170870000000  0.3775820000000  0.6647580000000 1.0
C      1  0.6170870000000  0.3054770000000  0.4344860000000 1.0
C      1  0.5245530000000  0.5195760000000  0.4213180000000 1.0
C      1  0.5245520000000  0.5808820000000  0.4943040000000 1.0
C      1  0.5245510000000  0.5304140000000  0.5751640000000 1.0
C      1  0.5245520000000  0.4379160000000  0.5521530000000 1.0
C      1  0.5245530000000  0.4312170000000  0.4570710000000 1.0
C      1  0.4232520000000  0.5269780000000  0.4213610000000 1.0
C      1  0.4232510000000  0.5831280000000  0.5013570000000 1.0
C      1  0.4232510000000  0.5243990000000  0.5794800000000 1.0
C      1  0.4232510000000  0.4319510000000  0.5477660000000 1.0
C      1  0.4232520000000  0.4335450000000  0.4500430000000 1.0
C      1  0.6634770000000  0.4619730000000  0.6596660000000 1.0
C      1  0.6634770000000  0.3363970000000  0.5131730000000 1.0
C      1  0.6634780000000  0.4369150000000  0.3484740000000 1.0
C      1  0.6634780000000  0.6246130000000  0.3931780000000 1.0
C      1  0.6634780000000  0.6401000000000  0.5855050000000 1.0
C      1  0.2941280000000  0.5597390000000  0.3435270000000 1.0
C      1  0.2941290000000  0.6672770000000  0.5084620000000 1.0
C      1  0.2941280000000  0.5436460000000  0.6617040000000 1.0
C      1  0.2941270000000  0.3596990000000  0.5914780000000 1.0
C      1  0.2941270000000  0.3696460000000  0.3948340000000 1.0
C      1  0.6164240000000  0.3154020000000  0.5923730000000 1.0
C      1  0.6164250000000  0.3551040000000  0.3529820000000 1.0
C      1  0.6164270000000  0.5950450000000  0.3167630000000 1.0
C      1  0.6164270000000  0.7036390000000  0.5337700000000 1.0
C      1  0.6164260000000  0.5308100000000  0.7041080000000 1.0
C      1  0.5300330000000  0.3697650000000  0.3075380000000 1.0
C      1  0.5300350000000  0.6427950000000  0.3166630000000 1.0
C      1  0.5300350000000  0.7184900000000  0.5791520000000 1.0
C      1  0.5300340000000  0.4922380000000  0.7322570000000 1.0
C      1  0.5300330000000  0.2767120000000  0.5643860000000 1.0
C      1  0.2560350000000  0.4359190000000  0.4484470000000 1.0
C      1  0.2560360000000  0.5292310000000  0.4231240000000 1.0
C      1  0.2560350000000  0.5821480000000  0.5040430000000 1.0
C      1  0.2560350000000  0.5215420000000  0.5793770000000 1.0
C      1  0.2560350000000  0.4311680000000  0.5450160000000 1.0
C      1  0.4499090000000  0.6135830000000  0.2868650000000 1.0
C      1  0.4499080000000  0.7378040000000  0.5421640000000 1.0
C      1  0.4499060000000  0.5333810000000  0.7391960000000 1.0
C      1  0.4499040000000  0.2828250000000  0.6056600000000 1.0
C      1  0.4499060000000  0.3323990000000  0.3261110000000 1.0
C      1  0.3831800000000  0.3645920000000  0.3803580000000 1.0
C      1  0.3831820000000  0.5719430000000  0.3342480000000 1.0
C      1  0.3831820000000  0.6798730000000  0.5172030000000 1.0
C      1  0.3831810000000  0.5392230000000  0.6763860000000 1.0
C      1  0.3831800000000  0.3443680000000  0.5918090000000 1.0
C      1  0.5376560000000  0.4026010000000  0.7030290000000 1.0
C      1  0.5376560000000  0.2768070000000  0.4701050000000 1.0
C      1  0.5376570000000  0.4594620000000  0.2784920000000 1.0
C      1  0.5376570000000  0.6981340000000  0.3929960000000 1.0
C      1  0.5376570000000  0.6629920000000  0.6553700000000 1.0
C      1  0.7042630000000  0.4193720000000  0.5063580000000 1.0
C      1  0.7042630000000  0.4690360000000  0.4252830000000 1.0
C      1  0.7042640000000  0.5614900000000  0.4474630000000 1.0
C      1  0.7042630000000  0.5689650000000  0.5422460000000 1.0
C      1  0.7042630000000  0.4811320000000  0.5786450000000 1.0
END
