TITL C-2158984-8299-575 -0.0022876022100672 3375 -406.565656919627 0 0 60 (C3) n - 1
REM
REM in /scratch/bkarasulu/869
REM
REM
REM
REM
REM
REM ./C.cell (a2850807a9bf4ad07a5b6933b78d9264)
REM AIRSS Version 0.9.1 bugfix July 2018 build 013d7b7c2542+ Fri, 06 Jul 2018 19:26:36 +0100
REM compiler GCC version 9.2.1 20190827 (Red Hat 9.2.1-1)
REM options -cpp -mtune=generic -march=x86-64 -g -O0 -fpre-include=/usr/include/finclude/math-vector-fortran.h
REM seed 1802319449 -345170351 1030725564 -1516908034 -922426894 707547283 777336518 -537132979 -1680990238 -244800070 -1724335512 -1954008394 -1732036478 -1530307180 -1998313321 -696217848 2067952891 -121216672 1713390316 1199586706 -1945368593 816207019 -1428233747 -1732101842 126313439 -747813837 1306814139 1750819274 -1378754785 -754094861 -681401554 409426539 1119685593
REM
CELL 1.54180   15.00000   15.00000   15.00000   90.00000   90.00000   90.00000
LATT -1
SFAC C  
C      1  0.4525220000000  0.2935650000000  0.5792740000000 1.0
C      1  0.4550700000000  0.2935680000000  0.4192450000000 1.0
C      1  0.5923860000000  0.2935620000000  0.5014660000000 1.0
C      1  0.3608130000000  0.5449340000000  0.5091150000000 1.0
C      1  0.5617030000000  0.5449300000000  0.3749040000000 1.0
C      1  0.5774880000000  0.5449250000000  0.6159840000000 1.0
C      1  0.5487720000000  0.4355580000000  0.2608060000000 1.0
C      1  0.6827560000000  0.4355440000000  0.6618330000000 1.0
C      1  0.2684650000000  0.4355610000000  0.5773550000000 1.0
C      1  0.4366800000000  0.3589570000000  0.3529160000000 1.0
C      1  0.6590290000000  0.3589460000000  0.5187040000000 1.0
C      1  0.4042780000000  0.3589520000000  0.6283700000000 1.0
C      1  0.4510350000000  0.7853500000000  0.5246510000000 1.0
C      1  0.5031520000000  0.7853490000000  0.4452690000000 1.0
C      1  0.5458400000000  0.7853460000000  0.5300940000000 1.0
C      1  0.6752390000000  0.5184100000000  0.6171170000000 1.0
C      1  0.3109560000000  0.5184230000000  0.5932030000000 1.0
C      1  0.5138080000000  0.5184220000000  0.2896810000000 1.0
C      1  0.3704150000000  0.5107890000000  0.6650700000000 1.0
C      1  0.4218400000000  0.5107950000000  0.3052410000000 1.0
C      1  0.7077470000000  0.5107810000000  0.5296910000000 1.0
C      1  0.4957380000000  0.7003560000000  0.3991700000000 1.0
C      1  0.5894650000000  0.7003500000000  0.5467230000000 1.0
C      1  0.4148160000000  0.7003560000000  0.5541170000000 1.0
C      1  0.6498870000000  0.4814790000000  0.3827100000000 1.0
C      1  0.5266320000000  0.4814770000000  0.6884520000000 1.0
C      1  0.3234790000000  0.4814900000000  0.4288390000000 1.0
C      1  0.6841070000000  0.3538520000000  0.6113450000000 1.0
C      1  0.3115080000000  0.3538650000000  0.6037680000000 1.0
C      1  0.5043700000000  0.3538650000000  0.2848760000000 1.0
C      1  0.7280500000000  0.6562690000000  0.4595280000000 1.0
C      1  0.4210370000000  0.6562740000000  0.7177330000000 1.0
C      1  0.3509300000000  0.6562840000000  0.3227490000000 1.0
C      1  0.6379140000000  0.6706190000000  0.4667370000000 1.0
C      1  0.4598610000000  0.6706210000000  0.6360680000000 1.0
C      1  0.4022420000000  0.6706280000000  0.3972050000000 1.0
C      1  0.6446750000000  0.4506390000000  0.4851560000000 1.0
C      1  0.4405150000000  0.4506430000000  0.6327160000000 1.0
C      1  0.4148060000000  0.4506490000000  0.3821270000000 1.0
C      1  0.2774260000000  0.4089180000000  0.4836150000000 1.0
C      1  0.6254700000000  0.4089090000000  0.3154380000000 1.0
C      1  0.5970930000000  0.4089020000000  0.7009410000000 1.0
C      1  0.3804660000000  0.6417470000000  0.4875210000000 1.0
C      1  0.5705840000000  0.6417420000000  0.4027210000000 1.0
C      1  0.5489630000000  0.6417380000000  0.6097660000000 1.0
C      1  0.4838540000000  0.5227930000000  0.7652230000000 1.0
C      1  0.2783890000000  0.5228070000000  0.3534060000000 1.0
C      1  0.7377630000000  0.5227900000000  0.3813790000000 1.0
C      1  0.5991690000000  0.3250780000000  0.6532270000000 1.0
C      1  0.3177040000000  0.3250900000000  0.5092690000000 1.0
C      1  0.5831080000000  0.3250850000000  0.3374920000000 1.0
C      1  0.4039960000000  0.2847970000000  0.4973600000000 1.0
C      1  0.5502720000000  0.2847930000000  0.4181770000000 1.0
C      1  0.5457090000000  0.2847900000000  0.5844470000000 1.0
C      1  0.7493520000000  0.5680740000000  0.4621830000000 1.0
C      1  0.4080820000000  0.5680800000000  0.7348550000000 1.0
C      1  0.3425750000000  0.5680900000000  0.3029690000000 1.0
C      1  0.4983700000000  0.4878000000000  0.4432560000000 1.0
C      1  0.5499560000000  0.4877970000000  0.5269610000000 1.0
C      1  0.4516720000000  0.4878000000000  0.5297830000000 1.0
END
