TITL C-2158984-8299-1174 -0.00223628307137353 3375 -411.892189795966 0 0 60 (C4) n - 1
REM
REM in /scratch/bkarasulu/869
REM
REM
REM
REM
REM
REM ./C.cell (a2850807a9bf4ad07a5b6933b78d9264)
REM AIRSS Version 0.9.1 bugfix July 2018 build 013d7b7c2542+ Fri, 06 Jul 2018 19:26:36 +0100
REM compiler GCC version 9.2.1 20190827 (Red Hat 9.2.1-1)
REM options -cpp -mtune=generic -march=x86-64 -g -O0 -fpre-include=/usr/include/finclude/math-vector-fortran.h
REM seed -1816183930 1974953746 -1801763701 386299929 33005690 -12136594 1953181849 1982168592 1247664477 364307185 -248592746 -1180678831 -1105288219 -1041094522 -2110464288 -873950939 -1538946135 1086511037 41524809 -64525027 660001113 -904306158 1605110555 1261678607 -1913211479 457775849 -197302170 -963713026 1538081539 539534545 922546597 -321961237 -522500242
REM
CELL 1.54180   15.00000   15.00000   15.00000   90.00000   90.00000   90.00000
LATT -1
SFAC C  
C      1  0.3401140000000  0.6827740000000  0.5631930000000 1.0
C      1  0.5631940000000  0.6827740000000  0.6598870000000 1.0
C      1  0.6598860000000  0.6827740000000  0.4368070000000 1.0
C      1  0.4368060000000  0.6827740000000  0.3401130000000 1.0
C      1  0.3383740000000  0.3103690000000  0.5611740000000 1.0
C      1  0.5611740000000  0.3103680000000  0.6616250000000 1.0
C      1  0.6616260000000  0.3103680000000  0.4388260000000 1.0
C      1  0.4388260000000  0.3103680000000  0.3383750000000 1.0
C      1  0.5206330000000  0.5479030000000  0.2952150000000 1.0
C      1  0.2952150000000  0.5479030000000  0.4793670000000 1.0
C      1  0.4793670000000  0.5479030000000  0.7047850000000 1.0
C      1  0.7047850000000  0.5479020000000  0.5206330000000 1.0
C      1  0.5240220000000  0.4416540000000  0.2908360000000 1.0
C      1  0.2908360000000  0.4416540000000  0.4759780000000 1.0
C      1  0.4759780000000  0.4416540000000  0.7091640000000 1.0
C      1  0.7091640000000  0.4416540000000  0.5240220000000 1.0
C      1  0.3290510000000  0.5459920000000  0.6323770000000 1.0
C      1  0.6323770000000  0.5459910000000  0.6709500000000 1.0
C      1  0.6709490000000  0.5459920000000  0.3676230000000 1.0
C      1  0.3676230000000  0.5459910000000  0.3290500000000 1.0
C      1  0.3359670000000  0.4520690000000  0.6196850000000 1.0
C      1  0.6196850000000  0.4520690000000  0.6640330000000 1.0
C      1  0.6640330000000  0.4520690000000  0.3803150000000 1.0
C      1  0.3803150000000  0.4520690000000  0.3359670000000 1.0
C      1  0.4036680000000  0.6801120000000  0.6384530000000 1.0
C      1  0.6384540000000  0.6801120000000  0.5963330000000 1.0
C      1  0.5963320000000  0.6801120000000  0.3615470000000 1.0
C      1  0.3615460000000  0.6801120000000  0.4036670000000 1.0
C      1  0.4026410000000  0.3137400000000  0.6358300000000 1.0
C      1  0.6358300000000  0.3137400000000  0.5973590000000 1.0
C      1  0.5973590000000  0.3137400000000  0.3641700000000 1.0
C      1  0.3641700000000  0.3137400000000  0.4026410000000 1.0
C      1  0.4843630000000  0.7214150000000  0.6384490000000 1.0
C      1  0.6384500000000  0.7214150000000  0.5156380000000 1.0
C      1  0.5156370000000  0.7214150000000  0.3615510000000 1.0
C      1  0.3615500000000  0.7214150000000  0.4843620000000 1.0
C      1  0.4835060000000  0.2715260000000  0.6389380000000 1.0
C      1  0.6389380000000  0.2715260000000  0.5164930000000 1.0
C      1  0.5164940000000  0.2715260000000  0.3610620000000 1.0
C      1  0.3610620000000  0.2715260000000  0.4835070000000 1.0
C      1  0.6779090000000  0.5930240000000  0.6016850000000 1.0
C      1  0.6016840000000  0.5930240000000  0.3220920000000 1.0
C      1  0.3220910000000  0.5930240000000  0.3983150000000 1.0
C      1  0.3983160000000  0.5930240000000  0.6779090000000 1.0
C      1  0.6733930000000  0.4003660000000  0.6027530000000 1.0
C      1  0.6027530000000  0.4003660000000  0.3266070000000 1.0
C      1  0.3266070000000  0.4003660000000  0.3972470000000 1.0
C      1  0.3972470000000  0.4003660000000  0.6733930000000 1.0
C      1  0.7055910000000  0.5989480000000  0.4393820000000 1.0
C      1  0.4393810000000  0.5989480000000  0.2944080000000 1.0
C      1  0.2944090000000  0.5989480000000  0.5606180000000 1.0
C      1  0.5606180000000  0.5989480000000  0.7055920000000 1.0
C      1  0.7122040000000  0.3919840000000  0.4411910000000 1.0
C      1  0.4411910000000  0.3919830000000  0.2877960000000 1.0
C      1  0.2877960000000  0.3919840000000  0.5588090000000 1.0
C      1  0.5588090000000  0.3919830000000  0.7122040000000 1.0
C      1  0.6310300000000  0.4889840000000  0.4768530000000 1.0
C      1  0.4768540000000  0.4889840000000  0.3689690000000 1.0
C      1  0.3689700000000  0.4889840000000  0.5231470000000 1.0
C      1  0.5231470000000  0.4889840000000  0.6310310000000 1.0
END
