TITL C-2158988-7926-69 -0.0029459304064926 3375 -424.483177772619 0 0 60 (C1) n - 1
REM
REM in /scratch/bkarasulu/868
REM
REM
REM
REM
REM
REM ./C.cell (a2850807a9bf4ad07a5b6933b78d9264)
REM AIRSS Version 0.9.1 bugfix July 2018 build 013d7b7c2542+ Fri, 06 Jul 2018 19:26:36 +0100
REM compiler GCC version 9.2.1 20190827 (Red Hat 9.2.1-1)
REM options -cpp -mtune=generic -march=x86-64 -g -O0 -fpre-include=/usr/include/finclude/math-vector-fortran.h
REM seed 941217342 80950246 819398668 1222081448 -133197793 -1245403597 847905845 -2121793183 -168035863 1600416554 1591521143 561638679 -950170419 2080255803 1101201799 1795841995 2091901431 1858549739 -856539764 618442330 2098596874 -2059265260 -231052178 897879190 -221728067 -38679089 -1762946450 -343013229 2095946909 62043531 -2075720287 1035265829 1410360553
REM
CELL 1.54180   15.00000   15.00000   15.00000   90.00000   90.00000   90.00000
LATT -1
SFAC C  
C      1  0.6675810000000  0.4927130000000  0.6553600000000 1.0
C      1  0.5243030000000  0.6668400000000  0.6871540000000 1.0
C      1  0.6755510000000  0.6890670000000  0.5174170000000 1.0
C      1  0.3115710000000  0.5070520000000  0.3178870000000 1.0
C      1  0.3360680000000  0.5033190000000  0.6518760000000 1.0
C      1  0.6853510000000  0.4659830000000  0.2981110000000 1.0
C      1  0.5038700000000  0.6625940000000  0.3365450000000 1.0
C      1  0.4769130000000  0.3316300000000  0.6855540000000 1.0
C      1  0.5757320000000  0.3317520000000  0.3589970000000 1.0
C      1  0.3403150000000  0.6649100000000  0.4386720000000 1.0
C      1  0.3371590000000  0.3276310000000  0.4951580000000 1.0
C      1  0.6487370000000  0.3387010000000  0.4250980000000 1.0
C      1  0.6821380000000  0.4016300000000  0.6199010000000 1.0
C      1  0.5701480000000  0.3437150000000  0.7127200000000 1.0
C      1  0.6268250000000  0.3292560000000  0.6396890000000 1.0
C      1  0.2892220000000  0.4148190000000  0.3378890000000 1.0
C      1  0.3176950000000  0.5962230000000  0.6230480000000 1.0
C      1  0.6689790000000  0.6469940000000  0.3662070000000 1.0
C      1  0.3674860000000  0.3629340000000  0.3340820000000 1.0
C      1  0.4308830000000  0.6536310000000  0.7114930000000 1.0
C      1  0.5951180000000  0.6343340000000  0.3096980000000 1.0
C      1  0.3700940000000  0.3029110000000  0.4055000000000 1.0
C      1  0.3762800000000  0.6676790000000  0.6364990000000 1.0
C      1  0.6574380000000  0.7191330000000  0.4257210000000 1.0
C      1  0.4145530000000  0.2850340000000  0.5341080000000 1.0
C      1  0.2612820000000  0.5326270000000  0.3948340000000 1.0
C      1  0.5355940000000  0.3984150000000  0.3052300000000 1.0
C      1  0.6006620000000  0.2773170000000  0.4844660000000 1.0
C      1  0.5910340000000  0.7267250000000  0.5449010000000 1.0
C      1  0.4145880000000  0.7032590000000  0.4719980000000 1.0
C      1  0.7032390000000  0.5283760000000  0.5721970000000 1.0
C      1  0.7106540000000  0.4850170000000  0.3844310000000 1.0
C      1  0.2933630000000  0.4718990000000  0.5708380000000 1.0
C      1  0.4563640000000  0.4150760000000  0.7275320000000 1.0
C      1  0.4682650000000  0.5799690000000  0.2970190000000 1.0
C      1  0.5447440000000  0.5821810000000  0.7278490000000 1.0
C      1  0.4315850000000  0.7051080000000  0.5667540000000 1.0
C      1  0.2482750000000  0.4397190000000  0.4207800000000 1.0
C      1  0.5597540000000  0.5548800000000  0.2718460000000 1.0
C      1  0.5705650000000  0.7490890000000  0.4518700000000 1.0
C      1  0.5747910000000  0.2854190000000  0.5725000000000 1.0
C      1  0.4455390000000  0.2603990000000  0.4436040000000 1.0
C      1  0.7117600000000  0.4371670000000  0.5370550000000 1.0
C      1  0.7099670000000  0.5742390000000  0.4163450000000 1.0
C      1  0.2760210000000  0.5650870000000  0.5457140000000 1.0
C      1  0.4488450000000  0.5694900000000  0.7483570000000 1.0
C      1  0.4412420000000  0.4186480000000  0.3028090000000 1.0
C      1  0.5519470000000  0.4275610000000  0.7499200000000 1.0
C      1  0.4011550000000  0.4891770000000  0.7183160000000 1.0
C      1  0.4908390000000  0.7160120000000  0.4123250000000 1.0
C      1  0.5952700000000  0.4686980000000  0.2770850000000 1.0
C      1  0.4789790000000  0.2911730000000  0.5999000000000 1.0
C      1  0.7013540000000  0.4128810000000  0.4479260000000 1.0
C      1  0.2833440000000  0.4041050000000  0.5066670000000 1.0
C      1  0.2806420000000  0.5990610000000  0.4571600000000 1.0
C      1  0.7077670000000  0.5988070000000  0.5117680000000 1.0
C      1  0.6000530000000  0.5073310000000  0.7195630000000 1.0
C      1  0.4059320000000  0.5103960000000  0.2976660000000 1.0
C      1  0.5219490000000  0.7092140000000  0.6020850000000 1.0
C      1  0.5326260000000  0.2649970000000  0.4163050000000 1.0
END
