TITL C-2159255-4746-656 -0.00410687497040169 3375 -385.490255851737 0 0 60 (C2v) n - 1
REM
REM in /scratch/bkarasulu/871
REM
REM
REM
REM
REM
REM ./C.cell (a2850807a9bf4ad07a5b6933b78d9264)
REM AIRSS Version 0.9.1 bugfix July 2018 build 013d7b7c2542+ Fri, 06 Jul 2018 19:26:36 +0100
REM compiler GCC version 9.2.1 20190827 (Red Hat 9.2.1-1)
REM options -cpp -mtune=generic -march=x86-64 -g -O0 -fpre-include=/usr/include/finclude/math-vector-fortran.h
REM seed 91021285 -23613663 1508527577 -637131831 -211906427 -2066514761 -168879502 100516150 -998015980 -915124182 668550077 -577135158 -34000398 1921591663 1356135819 -2024230083 466141594 811478084 -756780820 -1238391104 182549944 -1857726788 326217503 -1863891608 688227469 1586132420 912123227 -2082547956 -1962981 329860650 -1341588085 319798091 -357644607
REM
CELL 1.54180   15.00000   15.00000   15.00000   90.00000   90.00000   90.00000
LATT -1
SFAC C  
C      1  0.5927850000000  0.6116410000000  0.7204340000000 1.0
C      1  0.6575950000000  0.5388580000000  0.7159560000000 1.0
C      1  0.6503180000000  0.4387640000000  0.7159570000000 1.0
C      1  0.5756630000000  0.3761170000000  0.7204350000000 1.0
C      1  0.4914550000000  0.3824610000000  0.7610090000000 1.0
C      1  0.4072150000000  0.3883590000000  0.7204340000000 1.0
C      1  0.3424050000000  0.4611420000000  0.7159560000000 1.0
C      1  0.3496820000000  0.5612360000000  0.7159570000000 1.0
C      1  0.4243370000000  0.6238830000000  0.7204350000000 1.0
C      1  0.5085450000000  0.6175390000000  0.7610090000000 1.0
C      1  0.6543440000000  0.4887730000000  0.3540780000000 1.0
C      1  0.6202200000000  0.3999500000000  0.3515590000000 1.0
C      1  0.5379140000000  0.3496500000000  0.3410340000000 1.0
C      1  0.4407290000000  0.3567200000000  0.3410340000000 1.0
C      1  0.3665680000000  0.4184010000000  0.3515580000000 1.0
C      1  0.3456560000000  0.5112270000000  0.3540780000000 1.0
C      1  0.3797800000000  0.6000500000000  0.3515590000000 1.0
C      1  0.4620860000000  0.6503500000000  0.3410340000000 1.0
C      1  0.5592710000000  0.6432800000000  0.3410340000000 1.0
C      1  0.6334320000000  0.5815990000000  0.3515580000000 1.0
C      1  0.5585080000000  0.2589970000000  0.3500290000000 1.0
C      1  0.4072320000000  0.2700020000000  0.3500280000000 1.0
C      1  0.2879550000000  0.3718560000000  0.3678960000000 1.0
C      1  0.2547990000000  0.5178340000000  0.3821540000000 1.0
C      1  0.3087290000000  0.6574820000000  0.3678970000000 1.0
C      1  0.4414920000000  0.7410030000000  0.3500290000000 1.0
C      1  0.5927680000000  0.7299980000000  0.3500280000000 1.0
C      1  0.7120450000000  0.6281440000000  0.3678960000000 1.0
C      1  0.7452010000000  0.4821660000000  0.3821540000000 1.0
C      1  0.6912710000000  0.3425180000000  0.3678970000000 1.0
C      1  0.2638830000000  0.7304500000000  0.3669270000000 1.0
C      1  0.4257520000000  0.8216150000000  0.3675680000000 1.0
C      1  0.6200030000000  0.8074850000000  0.3675670000000 1.0
C      1  0.7669810000000  0.6938510000000  0.3669270000000 1.0
C      1  0.7833990000000  0.4793910000000  0.4560190000000 1.0
C      1  0.7361170000000  0.2695500000000  0.3669270000000 1.0
C      1  0.5742480000000  0.1783850000000  0.3675680000000 1.0
C      1  0.3799970000000  0.1925150000000  0.3675670000000 1.0
C      1  0.2330190000000  0.3061490000000  0.3669270000000 1.0
C      1  0.2166010000000  0.5206090000000  0.4560190000000 1.0
C      1  0.4315820000000  0.6763460000000  0.6378390000000 1.0
C      1  0.5153010000000  0.7104980000000  0.6095980000000 1.0
C      1  0.5932010000000  0.6645990000000  0.6378380000000 1.0
C      1  0.7076720000000  0.5322240000000  0.6341870000000 1.0
C      1  0.7008280000000  0.4380850000000  0.6341880000000 1.0
C      1  0.5684180000000  0.3236540000000  0.6378390000000 1.0
C      1  0.4846990000000  0.2895020000000  0.6095980000000 1.0
C      1  0.4067990000000  0.3354010000000  0.6378380000000 1.0
C      1  0.2923280000000  0.4677760000000  0.6341870000000 1.0
C      1  0.2991720000000  0.5619150000000  0.6341880000000 1.0
C      1  0.3519030000000  0.5618750000000  0.5480350000000 1.0
C      1  0.4202210000000  0.6249700000000  0.5541380000000 1.0
C      1  0.5113410000000  0.6560270000000  0.5259400000000 1.0
C      1  0.5970130000000  0.6121210000000  0.5541370000000 1.0
C      1  0.6554890000000  0.5398090000000  0.5480340000000 1.0
C      1  0.6480970000000  0.4381250000000  0.5480350000000 1.0
C      1  0.5797790000000  0.3750300000000  0.5541380000000 1.0
C      1  0.4886590000000  0.3439730000000  0.5259400000000 1.0
C      1  0.4029870000000  0.3878790000000  0.5541370000000 1.0
C      1  0.3445110000000  0.4601910000000  0.5480340000000 1.0
END
