TITL C-2159252-5904-386 -0.00182795274186086 3375 -398.568090267182 0 0 60 (C2h) n - 1
REM
REM in /scratch/bkarasulu/870
REM
REM
REM
REM
REM
REM ./C.cell (a2850807a9bf4ad07a5b6933b78d9264)
REM AIRSS Version 0.9.1 bugfix July 2018 build 013d7b7c2542+ Fri, 06 Jul 2018 19:26:36 +0100
REM compiler GCC version 9.2.1 20190827 (Red Hat 9.2.1-1)
REM options -cpp -mtune=generic -march=x86-64 -g -O0 -fpre-include=/usr/include/finclude/math-vector-fortran.h
REM seed 729749832 1829593428 -189929943 -176444601 -1620746983 1479407908 -1239720773 -911901916 1019915631 -1643972624 -963221450 111531262 -1527783962 -424667784 -1866378325 -466622225 1824323808 2031614008 749015968 836640934 410392080 1417098571 -1484776034 -592860407 1747725620 1699082039 485123601 971323496 1617221690 1233814904 -771958878 1998960433 -612879564
REM
CELL 1.54180   15.00000   15.00000   15.00000   90.00000   90.00000   90.00000
LATT -1
SFAC C  
C      1  0.5041570000000  0.5870540000000  0.5508330000000 1.0
C      1  0.5854370000000  0.5505170000000  0.5913310000000 1.0
C      1  0.5779600000000  0.4520770000000  0.5831760000000 1.0
C      1  0.4958430000000  0.4129460000000  0.5508340000000 1.0
C      1  0.4145630000000  0.4494830000000  0.5913310000000 1.0
C      1  0.4220400000000  0.5479230000000  0.5831760000000 1.0
C      1  0.5041570000000  0.5870540000000  0.4491660000000 1.0
C      1  0.5854370000000  0.5505170000000  0.4086690000000 1.0
C      1  0.5779600000000  0.4520770000000  0.4168240000000 1.0
C      1  0.4958430000000  0.4129460000000  0.4491670000000 1.0
C      1  0.4145630000000  0.4494830000000  0.4086690000000 1.0
C      1  0.4220400000000  0.5479230000000  0.4168240000000 1.0
C      1  0.6807700000000  0.5793990000000  0.5481690000000 1.0
C      1  0.6557150000000  0.4030610000000  0.5457070000000 1.0
C      1  0.5031180000000  0.3087410000000  0.5483620000000 1.0
C      1  0.3192300000000  0.4206010000000  0.5481690000000 1.0
C      1  0.3442850000000  0.5969390000000  0.5457070000000 1.0
C      1  0.4968820000000  0.6912590000000  0.5483620000000 1.0
C      1  0.6807700000000  0.5793990000000  0.4518310000000 1.0
C      1  0.6557150000000  0.4030610000000  0.4542940000000 1.0
C      1  0.5031180000000  0.3087410000000  0.4516380000000 1.0
C      1  0.3192300000000  0.4206010000000  0.4518310000000 1.0
C      1  0.3442850000000  0.5969390000000  0.4542930000000 1.0
C      1  0.4968820000000  0.6912590000000  0.4516380000000 1.0
C      1  0.3712440000000  0.6299620000000  0.7004370000000 1.0
C      1  0.5342730000000  0.6199140000000  0.7330350000000 1.0
C      1  0.6855480000000  0.5352070000000  0.6953220000000 1.0
C      1  0.6287560000000  0.3700380000000  0.7004380000000 1.0
C      1  0.4657260000000  0.3800860000000  0.7330350000000 1.0
C      1  0.3144520000000  0.4647930000000  0.6953220000000 1.0
C      1  0.3712450000000  0.6299620000000  0.2995620000000 1.0
C      1  0.5342740000000  0.6199140000000  0.2669640000000 1.0
C      1  0.6855480000000  0.5352070000000  0.3046780000000 1.0
C      1  0.6287560000000  0.3700380000000  0.2995630000000 1.0
C      1  0.4657260000000  0.3800860000000  0.2669650000000 1.0
C      1  0.3144520000000  0.4647930000000  0.3046780000000 1.0
C      1  0.3129320000000  0.5585790000000  0.3028530000000 1.0
C      1  0.4599940000000  0.6619650000000  0.3031260000000 1.0
C      1  0.5970970000000  0.5769210000000  0.3124060000000 1.0
C      1  0.6870680000000  0.4414210000000  0.3028530000000 1.0
C      1  0.5400060000000  0.3380350000000  0.3031270000000 1.0
C      1  0.4029030000000  0.4230790000000  0.3124060000000 1.0
C      1  0.3129330000000  0.5585790000000  0.6971470000000 1.0
C      1  0.4599940000000  0.6619650000000  0.6968730000000 1.0
C      1  0.5970970000000  0.5769210000000  0.6875940000000 1.0
C      1  0.6870670000000  0.4414210000000  0.6971470000000 1.0
C      1  0.5400060000000  0.3380350000000  0.6968730000000 1.0
C      1  0.4029030000000  0.4230790000000  0.6875940000000 1.0
C      1  0.2641700000000  0.4308070000000  0.6204280000000 1.0
C      1  0.3053430000000  0.6209240000000  0.6250480000000 1.0
C      1  0.4733000000000  0.7271120000000  0.6254800000000 1.0
C      1  0.7358300000000  0.5691930000000  0.6204280000000 1.0
C      1  0.6946570000000  0.3790760000000  0.6250480000000 1.0
C      1  0.5267000000000  0.2728880000000  0.6254800000000 1.0
C      1  0.2641700000000  0.4308070000000  0.3795720000000 1.0
C      1  0.3053430000000  0.6209240000000  0.3749520000000 1.0
C      1  0.4733000000000  0.7271120000000  0.3745200000000 1.0
C      1  0.7358300000000  0.5691930000000  0.3795720000000 1.0
C      1  0.6946570000000  0.3790760000000  0.3749520000000 1.0
C      1  0.5267000000000  0.2728880000000  0.3745200000000 1.0
END
