TITL C-2158984-8299-112 -0.00170588801196857 3375 -411.109660094163 0 0 60 (Cs) n - 1
REM
REM in /scratch/bkarasulu/869
REM
REM
REM
REM
REM
REM ./C.cell (a2850807a9bf4ad07a5b6933b78d9264)
REM AIRSS Version 0.9.1 bugfix July 2018 build 013d7b7c2542+ Fri, 06 Jul 2018 19:26:36 +0100
REM compiler GCC version 9.2.1 20190827 (Red Hat 9.2.1-1)
REM options -cpp -mtune=generic -march=x86-64 -g -O0 -fpre-include=/usr/include/finclude/math-vector-fortran.h
REM seed -1021885431 1924630770 -1744064380 -1996922235 -453281675 2137439667 -498660006 -579574065 231868839 76668145 -1331911705 -613128460 -1494612155 -768781271 -1972377281 -154226289 -1513144311 133527677 -1763992271 -605934521 -1747538517 -1594136387 1024968001 629804588 -1529439974 1174807061 1209741141 2026160437 -1608125024 -1880456153 -1009471627 -1560939624 -350054962
REM
CELL 1.54180   15.00000   15.00000   15.00000   90.00000   90.00000   90.00000
LATT -1
SFAC C  
C      1  0.3949380000000  0.4695120000000  0.4522430000000 1.0
C      1  0.3949380000000  0.4695120000000  0.5477570000000 1.0
C      1  0.2951940000000  0.4925620000000  0.5771210000000 1.0
C      1  0.2951940000000  0.4925620000000  0.4228790000000 1.0
C      1  0.6626190000000  0.5948660000000  0.5976630000000 1.0
C      1  0.6626190000000  0.5948660000000  0.4023370000000 1.0
C      1  0.6148580000000  0.3122570000000  0.4535170000000 1.0
C      1  0.6148580000000  0.3122570000000  0.5464830000000 1.0
C      1  0.6047310000000  0.6560660000000  0.4531700000000 1.0
C      1  0.6047310000000  0.6560660000000  0.5468300000000 1.0
C      1  0.5432450000000  0.4818290000000  0.4559650000000 1.0
C      1  0.5432450000000  0.4818290000000  0.5440350000000 1.0
C      1  0.4504130000000  0.6127010000000  0.5482810000000 1.0
C      1  0.4504130000000  0.6127010000000  0.4517190000000 1.0
C      1  0.6271500000000  0.5707210000000  0.6854940000000 1.0
C      1  0.6271500000000  0.5707210000000  0.3145060000000 1.0
C      1  0.5183560000000  0.6724520000000  0.4138380000000 1.0
C      1  0.5183560000000  0.6724520000000  0.5861620000000 1.0
C      1  0.4359440000000  0.5183920000000  0.3131570000000 1.0
C      1  0.4359440000000  0.5183920000000  0.6868430000000 1.0
C      1  0.4449670000000  0.3139360000000  0.4522480000000 1.0
C      1  0.4449670000000  0.3139360000000  0.5477520000000 1.0
C      1  0.5294850000000  0.3044190000000  0.5921850000000 1.0
C      1  0.5294850000000  0.3044190000000  0.4078150000000 1.0
C      1  0.6012730000000  0.4820150000000  0.7144890000000 1.0
C      1  0.6012730000000  0.4820150000000  0.2855110000000 1.0
C      1  0.7172700000000  0.5370820000000  0.4514480000000 1.0
C      1  0.7172700000000  0.5370820000000  0.5485520000000 1.0
C      1  0.6711000000000  0.3757910000000  0.5959510000000 1.0
C      1  0.6711000000000  0.3757910000000  0.4040490000000 1.0
C      1  0.5440830000000  0.3415900000000  0.6789240000000 1.0
C      1  0.5440830000000  0.3415900000000  0.3210760000000 1.0
C      1  0.4952630000000  0.6577740000000  0.3207650000000 1.0
C      1  0.4952630000000  0.6577740000000  0.6792350000000 1.0
C      1  0.3609150000000  0.6372740000000  0.4074020000000 1.0
C      1  0.3609150000000  0.6372740000000  0.5925980000000 1.0
C      1  0.4668430000000  0.5212170000000  0.4140950000000 1.0
C      1  0.4668430000000  0.5212170000000  0.5859050000000 1.0
C      1  0.5094130000000  0.4779940000000  0.2553620000000 1.0
C      1  0.5094130000000  0.4779940000000  0.7446380000000 1.0
C      1  0.4009010000000  0.4162860000000  0.6826480000000 1.0
C      1  0.4009010000000  0.4162860000000  0.3173520000000 1.0
C      1  0.2903470000000  0.5796350000000  0.4514020000000 1.0
C      1  0.2903470000000  0.5796350000000  0.5485980000000 1.0
C      1  0.4766300000000  0.3861430000000  0.2738530000000 1.0
C      1  0.4766300000000  0.3861430000000  0.7261470000000 1.0
C      1  0.5692830000000  0.6355750000000  0.2783830000000 1.0
C      1  0.5692830000000  0.6355750000000  0.7216170000000 1.0
C      1  0.6228830000000  0.3982480000000  0.6756700000000 1.0
C      1  0.6228830000000  0.3982480000000  0.3243300000000 1.0
C      1  0.3798010000000  0.3773260000000  0.5902110000000 1.0
C      1  0.3798010000000  0.3773260000000  0.4097890000000 1.0
C      1  0.2867800000000  0.3999790000000  0.5480870000000 1.0
C      1  0.2867800000000  0.3999790000000  0.4519130000000 1.0
C      1  0.3575980000000  0.7265820000000  0.5422390000000 1.0
C      1  0.3575980000000  0.7265820000000  0.4577610000000 1.0
C      1  0.4053080000000  0.6118990000000  0.6826310000000 1.0
C      1  0.4053080000000  0.6118990000000  0.3173690000000 1.0
C      1  0.7224100000000  0.4378800000000  0.5485510000000 1.0
C      1  0.7224100000000  0.4378800000000  0.4514490000000 1.0
END
