TITL C-2159252-5904-270 -0.00357615731989525 3375 -399.293057133521 0 0 60 (D2) n - 1
REM
REM in /scratch/bkarasulu/870
REM
REM
REM
REM
REM
REM ./C.cell (a2850807a9bf4ad07a5b6933b78d9264)
REM AIRSS Version 0.9.1 bugfix July 2018 build 013d7b7c2542+ Fri, 06 Jul 2018 19:26:36 +0100
REM compiler GCC version 9.2.1 20190827 (Red Hat 9.2.1-1)
REM options -cpp -mtune=generic -march=x86-64 -g -O0 -fpre-include=/usr/include/finclude/math-vector-fortran.h
REM seed 897266806 488120577 1436864468 -1972086596 -1151949181 -614415786 863374548 -949727877 -1310586471 -1866185650 386933699 -1197042701 -1682895433 1255924655 1902710248 556302997 266672319 -196524637 -57974101 -1275072789 1213457402 -294000021 2070414161 643842802 -889776239 -1251351511 913382971 -672235818 -1336288319 -1287288008 -1941500272 225636005 -962833748
REM
CELL 1.54180   15.00000   15.00000   15.00000   90.00000   90.00000   90.00000
LATT -1
SFAC C  
C      1  0.5517470000000  0.5015300000000  0.6025500000000 1.0
C      1  0.5507130000000  0.4099680000000  0.5538500000000 1.0
C      1  0.5523780000000  0.4077490000000  0.4519450000000 1.0
C      1  0.5517470000000  0.4984700000000  0.3974500000000 1.0
C      1  0.5507130000000  0.5900320000000  0.4461500000000 1.0
C      1  0.5523780000000  0.5922510000000  0.5480550000000 1.0
C      1  0.4482530000000  0.4984700000000  0.6025500000000 1.0
C      1  0.4492870000000  0.5900320000000  0.5538510000000 1.0
C      1  0.4476220000000  0.5922510000000  0.4519460000000 1.0
C      1  0.4482530000000  0.5015300000000  0.3974500000000 1.0
C      1  0.4492870000000  0.4099680000000  0.4461490000000 1.0
C      1  0.4476220000000  0.4077490000000  0.5480540000000 1.0
C      1  0.2332500000000  0.5535010000000  0.4200880000000 1.0
C      1  0.2364680000000  0.5961350000000  0.5058210000000 1.0
C      1  0.2346680000000  0.5427120000000  0.5855500000000 1.0
C      1  0.2332500000000  0.4464990000000  0.5799120000000 1.0
C      1  0.2364680000000  0.4038650000000  0.4941790000000 1.0
C      1  0.2346680000000  0.4572880000000  0.4144500000000 1.0
C      1  0.7667500000000  0.4464990000000  0.4200880000000 1.0
C      1  0.7635320000000  0.4038650000000  0.5058210000000 1.0
C      1  0.7653320000000  0.4572880000000  0.5855500000000 1.0
C      1  0.7667500000000  0.5535000000000  0.5799120000000 1.0
C      1  0.7635320000000  0.5961350000000  0.4941790000000 1.0
C      1  0.7653320000000  0.5427120000000  0.4144500000000 1.0
C      1  0.6108870000000  0.7078230000000  0.3408800000000 1.0
C      1  0.4654760000000  0.7885450000000  0.5263140000000 1.0
C      1  0.3780210000000  0.7177760000000  0.7419830000000 1.0
C      1  0.6108870000000  0.2921770000000  0.6591200000000 1.0
C      1  0.4654760000000  0.2114550000000  0.4736860000000 1.0
C      1  0.3780210000000  0.2822240000000  0.2580170000000 1.0
C      1  0.3891130000000  0.2921770000000  0.3408800000000 1.0
C      1  0.5345240000000  0.2114550000000  0.5263130000000 1.0
C      1  0.6219790000000  0.2822240000000  0.7419820000000 1.0
C      1  0.3891130000000  0.7078230000000  0.6591200000000 1.0
C      1  0.5345240000000  0.7885450000000  0.4736870000000 1.0
C      1  0.6219790000000  0.7177760000000  0.2580180000000 1.0
C      1  0.6873600000000  0.5857550000000  0.6298480000000 1.0
C      1  0.6888720000000  0.4324040000000  0.6386310000000 1.0
C      1  0.6875100000000  0.3440240000000  0.5082890000000 1.0
C      1  0.6873600000000  0.4142450000000  0.3701520000000 1.0
C      1  0.6888720000000  0.5675960000000  0.3613690000000 1.0
C      1  0.6875100000000  0.6559760000000  0.4917110000000 1.0
C      1  0.3126400000000  0.4142450000000  0.6298480000000 1.0
C      1  0.3111280000000  0.5675960000000  0.6386310000000 1.0
C      1  0.3124900000000  0.6559760000000  0.5082890000000 1.0
C      1  0.3126400000000  0.5857550000000  0.3701520000000 1.0
C      1  0.3111280000000  0.4324050000000  0.3613690000000 1.0
C      1  0.3124900000000  0.3440240000000  0.4917110000000 1.0
C      1  0.3648290000000  0.5092670000000  0.3444170000000 1.0
C      1  0.3639160000000  0.6404070000000  0.4294840000000 1.0
C      1  0.3686240000000  0.6437000000000  0.5919300000000 1.0
C      1  0.3648290000000  0.4907330000000  0.6555830000000 1.0
C      1  0.3639160000000  0.3595930000000  0.5705160000000 1.0
C      1  0.3686240000000  0.3563000000000  0.4080700000000 1.0
C      1  0.6351710000000  0.4907330000000  0.3444170000000 1.0
C      1  0.6360840000000  0.3595930000000  0.4294840000000 1.0
C      1  0.6313760000000  0.3563000000000  0.5919300000000 1.0
C      1  0.6351710000000  0.5092670000000  0.6555830000000 1.0
C      1  0.6360840000000  0.6404070000000  0.5705160000000 1.0
C      1  0.6313760000000  0.6437000000000  0.4080700000000 1.0
END
