TITL C-2158988-7926-705 -0.0030354775436953 3375 -432.84870125075 0 0 60 (S10) n - 1
REM
REM in /scratch/bkarasulu/868
REM
REM
REM
REM
REM
REM ./C.cell (a2850807a9bf4ad07a5b6933b78d9264)
REM AIRSS Version 0.9.1 bugfix July 2018 build 013d7b7c2542+ Fri, 06 Jul 2018 19:26:36 +0100
REM compiler GCC version 9.2.1 20190827 (Red Hat 9.2.1-1)
REM options -cpp -mtune=generic -march=x86-64 -g -O0 -fpre-include=/usr/include/finclude/math-vector-fortran.h
REM seed -1669373096 -449335083 -2098552150 546571457 1810654344 2115345186 1464377292 -1755921426 672730367 1732399803 1139593020 517727719 -2143592623 759727149 560511044 -1402753996 1265467676 -1474225142 596485223 -890265403 1027552595 320963396 611043664 -291747373 557227789 2078343812 -409895515 -1768629528 1998532319 37209382 757760431 -452189121 1878474605
REM
CELL 1.54180   15.00000   15.00000   15.00000   90.00000   90.00000   90.00000
LATT -1
SFAC C  
C      1  0.4597570000000  0.6606420000000  0.3235250000000 1.0
C      1  0.4597570000000  0.7174800000000  0.5982450000000 1.0
C      1  0.4597590000000  0.4737670000000  0.7371960000000 1.0
C      1  0.4597600000000  0.2663050000000  0.5483490000000 1.0
C      1  0.4597600000000  0.3818030000000  0.2926870000000 1.0
C      1  0.4597570000000  0.6606420000000  0.6764750000000 1.0
C      1  0.4597570000000  0.7174800000000  0.4017550000000 1.0
C      1  0.4597590000000  0.4737670000000  0.2628040000000 1.0
C      1  0.4597600000000  0.2663050000000  0.4516510000000 1.0
C      1  0.4597600000000  0.3818030000000  0.7073130000000 1.0
C      1  0.3818710000000  0.2966020000000  0.5889750000000 1.0
C      1  0.3818710000000  0.3525260000000  0.3340550000000 1.0
C      1  0.3818680000000  0.6122510000000  0.3084650000000 1.0
C      1  0.3818670000000  0.7168500000000  0.5475710000000 1.0
C      1  0.3818690000000  0.5217660000000  0.7209360000000 1.0
C      1  0.3818710000000  0.2966020000000  0.4110250000000 1.0
C      1  0.3818710000000  0.3525260000000  0.6659450000000 1.0
C      1  0.3818680000000  0.6122510000000  0.6915350000000 1.0
C      1  0.3818670000000  0.7168500000000  0.4524290000000 1.0
C      1  0.3818690000000  0.5217660000000  0.2790640000000 1.0
C      1  0.6873550000000  0.6480980000000  0.5453980000000 1.0
C      1  0.6873550000000  0.5025900000000  0.6548750000000 1.0
C      1  0.6873560000000  0.3535050000000  0.5503200000000 1.0
C      1  0.6873560000000  0.4068750000000  0.3762250000000 1.0
C      1  0.6873550000000  0.5889420000000  0.3731820000000 1.0
C      1  0.6873550000000  0.6480980000000  0.4546020000000 1.0
C      1  0.6873550000000  0.5025900000000  0.3451250000000 1.0
C      1  0.6873560000000  0.3535050000000  0.4496800000000 1.0
C      1  0.6873560000000  0.4068750000000  0.6237750000000 1.0
C      1  0.6873550000000  0.5889420000000  0.6268180000000 1.0
C      1  0.5402400000000  0.6181970000000  0.7073130000000 1.0
C      1  0.5402420000000  0.3393590000000  0.6764750000000 1.0
C      1  0.5402430000000  0.2825200000000  0.4017550000000 1.0
C      1  0.5402410000000  0.5262320000000  0.2628040000000 1.0
C      1  0.5402400000000  0.7336950000000  0.4516510000000 1.0
C      1  0.5402400000000  0.6181970000000  0.2926870000000 1.0
C      1  0.5402420000000  0.3393590000000  0.3235250000000 1.0
C      1  0.5402430000000  0.2825200000000  0.5982450000000 1.0
C      1  0.5402410000000  0.5262320000000  0.7371960000000 1.0
C      1  0.5402400000000  0.7336950000000  0.5483490000000 1.0
C      1  0.6181290000000  0.7033980000000  0.4110250000000 1.0
C      1  0.6181290000000  0.6474740000000  0.6659450000000 1.0
C      1  0.6181310000000  0.3877490000000  0.6915350000000 1.0
C      1  0.6181330000000  0.2831500000000  0.4524290000000 1.0
C      1  0.6181310000000  0.4782340000000  0.2790640000000 1.0
C      1  0.6181290000000  0.7033980000000  0.5889750000000 1.0
C      1  0.6181290000000  0.6474740000000  0.3340550000000 1.0
C      1  0.6181310000000  0.3877490000000  0.3084650000000 1.0
C      1  0.6181330000000  0.2831500000000  0.5475710000000 1.0
C      1  0.6181310000000  0.4782340000000  0.7209360000000 1.0
C      1  0.3126450000000  0.4110580000000  0.6268180000000 1.0
C      1  0.3126460000000  0.3519020000000  0.4546020000000 1.0
C      1  0.3126450000000  0.4974100000000  0.3451250000000 1.0
C      1  0.3126440000000  0.6464950000000  0.4496800000000 1.0
C      1  0.3126440000000  0.5931260000000  0.6237750000000 1.0
C      1  0.3126450000000  0.4110580000000  0.3731820000000 1.0
C      1  0.3126460000000  0.3519020000000  0.5453980000000 1.0
C      1  0.3126450000000  0.4974100000000  0.6548750000000 1.0
C      1  0.3126440000000  0.6464950000000  0.5503200000000 1.0
C      1  0.3126440000000  0.5931260000000  0.3762250000000 1.0
END
