TITL C-2159255-4746-990 -0.00203298086917642 3375 -417.294026280723 0 0 60 (C1) n - 1
REM
REM in /scratch/bkarasulu/871
REM
REM
REM
REM
REM
REM ./C.cell (a2850807a9bf4ad07a5b6933b78d9264)
REM AIRSS Version 0.9.1 bugfix July 2018 build 013d7b7c2542+ Fri, 06 Jul 2018 19:26:36 +0100
REM compiler GCC version 9.2.1 20190827 (Red Hat 9.2.1-1)
REM options -cpp -mtune=generic -march=x86-64 -g -O0 -fpre-include=/usr/include/finclude/math-vector-fortran.h
REM seed -1816993905 -1836798419 -2139109056 1500854020 893426514 570479553 -1807575578 -1466563404 -497374804 -1117213727 -797413527 -708502906 2103627512 586424601 -33069624 1448227999 2033279894 -499198308 1479436646 -741769373 -257785944 1444576463 -2053395029 -21424465 796190657 -1661531642 1701668896 811633559 -825728577 422692010 681578207 -249620649 2036476304
REM
CELL 1.54180   15.00000   15.00000   15.00000   90.00000   90.00000   90.00000
LATT -1
SFAC C  
C      1  0.4985700000000  0.6613160000000  0.3337560000000 1.0
C      1  0.3754680000000  0.5498470000000  0.3165200000000 1.0
C      1  0.6464730000000  0.3461250000000  0.5921710000000 1.0
C      1  0.5700250000000  0.2767340000000  0.4603270000000 1.0
C      1  0.6847260000000  0.5125560000000  0.5888980000000 1.0
C      1  0.4474150000000  0.6858760000000  0.6337850000000 1.0
C      1  0.2616300000000  0.4584660000000  0.5133840000000 1.0
C      1  0.5274600000000  0.5086640000000  0.2937730000000 1.0
C      1  0.3720490000000  0.6286450000000  0.6166260000000 1.0
C      1  0.6597830000000  0.4290090000000  0.5393120000000 1.0
C      1  0.6126630000000  0.7062260000000  0.5007990000000 1.0
C      1  0.5771000000000  0.3568280000000  0.3322250000000 1.0
C      1  0.5774820000000  0.3907990000000  0.6927850000000 1.0
C      1  0.6224550000000  0.6112760000000  0.4801740000000 1.0
C      1  0.5592580000000  0.4652160000000  0.5243170000000 1.0
C      1  0.4076530000000  0.6370360000000  0.3168380000000 1.0
C      1  0.4631920000000  0.5701650000000  0.4722870000000 1.0
C      1  0.5978560000000  0.7094250000000  0.5968390000000 1.0
C      1  0.4529700000000  0.4844990000000  0.6886460000000 1.0
C      1  0.3621230000000  0.3574250000000  0.6127100000000 1.0
C      1  0.4263630000000  0.4855590000000  0.4702250000000 1.0
C      1  0.5522360000000  0.4846850000000  0.6897770000000 1.0
C      1  0.3579000000000  0.3716180000000  0.4009370000000 1.0
C      1  0.4822250000000  0.2746590000000  0.4166150000000 1.0
C      1  0.4892670000000  0.3281780000000  0.3376070000000 1.0
C      1  0.3774920000000  0.6856110000000  0.3954560000000 1.0
C      1  0.7376620000000  0.6217540000000  0.3880130000000 1.0
C      1  0.3129100000000  0.5424770000000  0.3881090000000 1.0
C      1  0.6746240000000  0.4115830000000  0.4421940000000 1.0
C      1  0.6533020000000  0.4811330000000  0.3796240000000 1.0
C      1  0.5133180000000  0.6450710000000  0.6836250000000 1.0
C      1  0.4953560000000  0.2829520000000  0.5967110000000 1.0
C      1  0.7044400000000  0.5798510000000  0.5278150000000 1.0
C      1  0.7701100000000  0.6057610000000  0.4665270000000 1.0
C      1  0.5453720000000  0.5617730000000  0.5126930000000 1.0
C      1  0.4001790000000  0.2995690000000  0.4574050000000 1.0
C      1  0.5072220000000  0.7380460000000  0.5774520000000 1.0
C      1  0.4177720000000  0.3898710000000  0.3289470000000 1.0
C      1  0.5609210000000  0.5926940000000  0.3245570000000 1.0
C      1  0.2581150000000  0.5426220000000  0.5606460000000 1.0
C      1  0.2963710000000  0.4989490000000  0.6385270000000 1.0
C      1  0.5000360000000  0.3373220000000  0.6748240000000 1.0
C      1  0.5228730000000  0.7446260000000  0.4806970000000 1.0
C      1  0.4918630000000  0.4218450000000  0.4826560000000 1.0
C      1  0.3067170000000  0.6190750000000  0.5400170000000 1.0
C      1  0.4702900000000  0.7212640000000  0.4085890000000 1.0
C      1  0.6416650000000  0.5806750000000  0.3832700000000 1.0
C      1  0.6209080000000  0.5454510000000  0.6539830000000 1.0
C      1  0.4353430000000  0.4793270000000  0.2973200000000 1.0
C      1  0.3177430000000  0.6266760000000  0.4420070000000 1.0
C      1  0.5936570000000  0.4468710000000  0.3161130000000 1.0
C      1  0.6598680000000  0.3520190000000  0.6839200000000 1.0
C      1  0.3778030000000  0.5418500000000  0.6624440000000 1.0
C      1  0.6018750000000  0.6386400000000  0.6597360000000 1.0
C      1  0.3170010000000  0.4553710000000  0.4358140000000 1.0
C      1  0.4260080000000  0.3919770000000  0.6777720000000 1.0
C      1  0.2913200000000  0.4130480000000  0.5960790000000 1.0
C      1  0.6274720000000  0.3334010000000  0.4091170000000 1.0
C      1  0.4087990000000  0.2974960000000  0.5535320000000 1.0
C      1  0.5792460000000  0.2825150000000  0.5524740000000 1.0
END
