TITL C-2159255-4746-828 -0.00179209255398151 3375 -410.298589753296 0 0 60 (C1) n - 1
REM
REM in /scratch/bkarasulu/871
REM
REM
REM
REM
REM
REM ./C.cell (a2850807a9bf4ad07a5b6933b78d9264)
REM AIRSS Version 0.9.1 bugfix July 2018 build 013d7b7c2542+ Fri, 06 Jul 2018 19:26:36 +0100
REM compiler GCC version 9.2.1 20190827 (Red Hat 9.2.1-1)
REM options -cpp -mtune=generic -march=x86-64 -g -O0 -fpre-include=/usr/include/finclude/math-vector-fortran.h
REM seed 1691817672 -1457108949 1027045109 -2109718739 -702886654 -1599907740 -1516075775 -152554078 -1166663958 1652650843 -926676254 -1470315027 460062935 -1181070081 1496775022 1099771608 1622332267 907539079 1461604897 -1238286448 1885640137 -198081372 181673224 -1072023762 1805080232 -1407924518 535051786 -1587309927 -1918767330 729210614 832201992 -251089797 444166416
REM
CELL 1.54180   15.00000   15.00000   15.00000   90.00000   90.00000   90.00000
LATT -1
SFAC C  
C      1  0.5286630000000  0.6810300000000  0.3877740000000 1.0
C      1  0.4343300000000  0.6783820000000  0.3987180000000 1.0
C      1  0.3843480000000  0.6725500000000  0.4796930000000 1.0
C      1  0.4191290000000  0.6790430000000  0.5704210000000 1.0
C      1  0.5085750000000  0.6738950000000  0.6018540000000 1.0
C      1  0.5872890000000  0.6799590000000  0.5497450000000 1.0
C      1  0.5971820000000  0.6811770000000  0.4538960000000 1.0
C      1  0.7050780000000  0.4339810000000  0.4019890000000 1.0
C      1  0.5327060000000  0.4580960000000  0.2259420000000 1.0
C      1  0.2946960000000  0.4675820000000  0.3015190000000 1.0
C      1  0.2945790000000  0.4229520000000  0.5530170000000 1.0
C      1  0.3415610000000  0.4516500000000  0.6842870000000 1.0
C      1  0.5826730000000  0.4666760000000  0.7615350000000 1.0
C      1  0.7423070000000  0.4399740000000  0.5700080000000 1.0
C      1  0.4490570000000  0.4760480000000  0.5832970000000 1.0
C      1  0.5197250000000  0.5053290000000  0.6379770000000 1.0
C      1  0.5972860000000  0.4651550000000  0.5946400000000 1.0
C      1  0.6216540000000  0.4962900000000  0.5072960000000 1.0
C      1  0.5195450000000  0.5239430000000  0.3684060000000 1.0
C      1  0.4156690000000  0.5309640000000  0.3639760000000 1.0
C      1  0.3802740000000  0.5203400000000  0.4537340000000 1.0
C      1  0.4584110000000  0.5077380000000  0.2279050000000 1.0
C      1  0.2607110000000  0.4863120000000  0.3821830000000 1.0
C      1  0.2871560000000  0.4951260000000  0.6177490000000 1.0
C      1  0.4102930000000  0.4920090000000  0.7300360000000 1.0
C      1  0.6533450000000  0.5050280000000  0.7117710000000 1.0
C      1  0.7697470000000  0.5223730000000  0.5412770000000 1.0
C      1  0.6577840000000  0.4816620000000  0.3430700000000 1.0
C      1  0.3164090000000  0.5958390000000  0.4856060000000 1.0
C      1  0.3703280000000  0.6269270000000  0.6356720000000 1.0
C      1  0.5202900000000  0.6054440000000  0.6716990000000 1.0
C      1  0.6512780000000  0.6251190000000  0.5912580000000 1.0
C      1  0.6685750000000  0.6232900000000  0.4290130000000 1.0
C      1  0.5549530000000  0.6107600000000  0.3206250000000 1.0
C      1  0.4094290000000  0.6201250000000  0.3242300000000 1.0
C      1  0.5043390000000  0.4431140000000  0.7190530000000 1.0
C      1  0.6772440000000  0.4439000000000  0.6417790000000 1.0
C      1  0.6835270000000  0.4069600000000  0.4886170000000 1.0
C      1  0.5668990000000  0.4454200000000  0.3156510000000 1.0
C      1  0.3902490000000  0.4606660000000  0.2976250000000 1.0
C      1  0.3227880000000  0.4358260000000  0.4621520000000 1.0
C      1  0.3467530000000  0.3750400000000  0.6191020000000 1.0
C      1  0.6470210000000  0.5783420000000  0.3486290000000 1.0
C      1  0.4775190000000  0.6019510000000  0.2557800000000 1.0
C      1  0.2470360000000  0.5692280000000  0.4235100000000 1.0
C      1  0.3049620000000  0.5806300000000  0.5866420000000 1.0
C      1  0.4247700000000  0.5873920000000  0.7042060000000 1.0
C      1  0.6230240000000  0.5949760000000  0.6761580000000 1.0
C      1  0.6919760000000  0.5729920000000  0.5136930000000 1.0
C      1  0.5203840000000  0.3686080000000  0.3633630000000 1.0
C      1  0.4268970000000  0.3790860000000  0.3503630000000 1.0
C      1  0.3846560000000  0.3650230000000  0.4326980000000 1.0
C      1  0.4396770000000  0.3667430000000  0.5917530000000 1.0
C      1  0.5120330000000  0.3584790000000  0.6562500000000 1.0
C      1  0.5917990000000  0.3667670000000  0.6049860000000 1.0
C      1  0.6108140000000  0.3427730000000  0.5135170000000 1.0
C      1  0.5418860000000  0.5229340000000  0.4615210000000 1.0
C      1  0.4501170000000  0.3395490000000  0.4969160000000 1.0
C      1  0.4629390000000  0.5134630000000  0.5032280000000 1.0
C      1  0.5358760000000  0.3395660000000  0.4551210000000 1.0
END
