TITL C-2158988-7926-746 -0.00143529440084185 3375 -402.594339271199 0 0 60 (C5) n - 1
REM
REM in /scratch/bkarasulu/868
REM
REM
REM
REM
REM
REM ./C.cell (a2850807a9bf4ad07a5b6933b78d9264)
REM AIRSS Version 0.9.1 bugfix July 2018 build 013d7b7c2542+ Fri, 06 Jul 2018 19:26:36 +0100
REM compiler GCC version 9.2.1 20190827 (Red Hat 9.2.1-1)
REM options -cpp -mtune=generic -march=x86-64 -g -O0 -fpre-include=/usr/include/finclude/math-vector-fortran.h
REM seed 1676580944 1457027465 -816352935 612169827 -1673959506 1926556069 1238558203 -1152476314 -1848429717 -956495217 1717418940 -844910125 -582916578 776597007 -1052478930 501187886 -418949643 -116611676 -1105454110 859441879 -497901387 -217540948 686161058 -421568260 -2024243641 -531877375 -1318780658 1991905802 1596452448 -1979432502 690912565 -10060339 285620289
REM
CELL 1.54180   15.00000   15.00000   15.00000   90.00000   90.00000   90.00000
LATT -1
SFAC C  
C      1  0.4330600000000  0.5742300000000  0.4526200000000 1.0
C      1  0.4342540000000  0.5742300000000  0.5490230000000 1.0
C      1  0.5263070000000  0.5742290000000  0.5776770000000 1.0
C      1  0.5820050000000  0.5742290000000  0.4989850000000 1.0
C      1  0.5243760000000  0.5742290000000  0.4216950000000 1.0
C      1  0.6159720000000  0.4370690000000  0.3117970000000 1.0
C      1  0.3568460000000  0.4370710000000  0.3315450000000 1.0
C      1  0.2955530000000  0.4370710000000  0.5840920000000 1.0
C      1  0.5167990000000  0.4370700000000  0.7204270000000 1.0
C      1  0.7148290000000  0.4370690000000  0.5521380000000 1.0
C      1  0.5552600000000  0.5869510000000  0.3280150000000 1.0
C      1  0.3535100000000  0.5869520000000  0.3942990000000 1.0
C      1  0.3542050000000  0.5869520000000  0.6066570000000 1.0
C      1  0.5563850000000  0.5869510000000  0.6716190000000 1.0
C      1  0.6806430000000  0.5869510000000  0.4994080000000 1.0
C      1  0.5792020000000  0.4720100000000  0.4877990000000 1.0
C      1  0.5128710000000  0.4720100000000  0.4209030000000 1.0
C      1  0.4287520000000  0.4720100000000  0.4633170000000 1.0
C      1  0.4430950000000  0.4720100000000  0.5564250000000 1.0
C      1  0.5360780000000  0.4720100000000  0.5715560000000 1.0
C      1  0.5258510000000  0.7308690000000  0.5797970000000 1.0
C      1  0.5838810000000  0.7308690000000  0.5000740000000 1.0
C      1  0.5259920000000  0.7308690000000  0.4202490000000 1.0
C      1  0.4321850000000  0.7308700000000  0.4506370000000 1.0
C      1  0.4320980000000  0.7308700000000  0.5492430000000 1.0
C      1  0.2615480000000  0.3581470000000  0.5476210000000 1.0
C      1  0.4716060000000  0.3581450000000  0.7414950000000 1.0
C      1  0.7209000000000  0.3581430000000  0.6016280000000 1.0
C      1  0.6649160000000  0.3581440000000  0.3213170000000 1.0
C      1  0.3810240000000  0.3581460000000  0.2879370000000 1.0
C      1  0.5195320000000  0.4382960000000  0.3228020000000 1.0
C      1  0.3375100000000  0.4382970000000  0.4266660000000 1.0
C      1  0.3800430000000  0.4382960000000  0.6318750000000 1.0
C      1  0.5883520000000  0.4382950000000  0.6548370000000 1.0
C      1  0.6745610000000  0.4382950000000  0.4638190000000 1.0
C      1  0.4785590000000  0.3145580000000  0.4211680000000 1.0
C      1  0.4183990000000  0.3145580000000  0.4960300000000 1.0
C      1  0.4710070000000  0.3145580000000  0.5763790000000 1.0
C      1  0.5636800000000  0.3145570000000  0.5511750000000 1.0
C      1  0.5683470000000  0.3145570000000  0.4552500000000 1.0
C      1  0.4804280000000  0.5250410000000  0.2884570000000 1.0
C      1  0.2927630000000  0.5250420000000  0.4532440000000 1.0
C      1  0.3914930000000  0.5250420000000  0.6826460000000 1.0
C      1  0.6401760000000  0.5250400000000  0.6596370000000 1.0
C      1  0.6951410000000  0.5250400000000  0.4160160000000 1.0
C      1  0.6636120000000  0.6793980000000  0.5000130000000 1.0
C      1  0.5505720000000  0.6793980000000  0.3444000000000 1.0
C      1  0.3676450000000  0.6793990000000  0.4038210000000 1.0
C      1  0.3676300000000  0.6793990000000  0.5961570000000 1.0
C      1  0.5505470000000  0.6793980000000  0.6556070000000 1.0
C      1  0.4341890000000  0.3571270000000  0.6576800000000 1.0
C      1  0.6296240000000  0.3571260000000  0.6113140000000 1.0
C      1  0.6459220000000  0.3571250000000  0.4111190000000 1.0
C      1  0.4605600000000  0.3571270000000  0.3337530000000 1.0
C      1  0.3297000000000  0.3571280000000  0.4861360000000 1.0
C      1  0.3904430000000  0.5263050000000  0.3170130000000 1.0
C      1  0.2921140000000  0.5263060000000  0.5476490000000 1.0
C      1  0.4810780000000  0.5263040000000  0.7124370000000 1.0
C      1  0.6961910000000  0.5263030000000  0.5836430000000 1.0
C      1  0.6401760000000  0.5263030000000  0.3392580000000 1.0
END
