TITL C-2158984-8299-860 -0.00181225526026713 3375 -397.742096364722 0 0 60 (C5) n - 1
REM
REM in /scratch/bkarasulu/869
REM
REM
REM
REM
REM
REM ./C.cell (a2850807a9bf4ad07a5b6933b78d9264)
REM AIRSS Version 0.9.1 bugfix July 2018 build 013d7b7c2542+ Fri, 06 Jul 2018 19:26:36 +0100
REM compiler GCC version 9.2.1 20190827 (Red Hat 9.2.1-1)
REM options -cpp -mtune=generic -march=x86-64 -g -O0 -fpre-include=/usr/include/finclude/math-vector-fortran.h
REM seed 1173818448 -15659559 22694595 -558195100 1242499764 1705242292 880307685 1136949407 1967047015 1421968104 -1370521186 872704826 -1499845440 -1001655011 1321546509 -709809555 -1166641468 -1645970847 1179000680 -1421385992 86479768 1036787345 -1114645418 -322618160 159268619 -1585600558 1901349475 -689018689 845715998 -124722247 1112326945 197326368 -856317227
REM
CELL 1.54180   15.00000   15.00000   15.00000   90.00000   90.00000   90.00000
LATT -1
SFAC C  
C      1  0.6465950000000  0.6518870000000  0.4458950000000 1.0
C      1  0.4938430000000  0.6518880000000  0.3438610000000 1.0
C      1  0.3496000000000  0.6518880000000  0.4576070000000 1.0
C      1  0.4132070000000  0.6518880000000  0.6299390000000 1.0
C      1  0.5967580000000  0.6518870000000  0.6226990000000 1.0
C      1  0.6508360000000  0.3600070000000  0.4089640000000 1.0
C      1  0.4600300000000  0.3600080000000  0.3284130000000 1.0
C      1  0.3244600000000  0.3600080000000  0.4849900000000 1.0
C      1  0.4314810000000  0.3600080000000  0.6623100000000 1.0
C      1  0.6331900000000  0.3600070000000  0.6153220000000 1.0
C      1  0.3141640000000  0.4921140000000  0.5729300000000 1.0
C      1  0.5119340000000  0.4921130000000  0.6992770000000 1.0
C      1  0.6932110000000  0.4921120000000  0.5502300000000 1.0
C      1  0.6074770000000  0.4921130000000  0.3317670000000 1.0
C      1  0.3732130000000  0.4921140000000  0.3457960000000 1.0
C      1  0.7263760000000  0.4191470000000  0.4222190000000 1.0
C      1  0.4959790000000  0.4191480000000  0.2606670000000 1.0
C      1  0.2711380000000  0.4191480000000  0.4298660000000 1.0
C      1  0.3625770000000  0.4191480000000  0.6959870000000 1.0
C      1  0.6439280000000  0.4191470000000  0.6912610000000 1.0
C      1  0.5920040000000  0.4146270000000  0.2796160000000 1.0
C      1  0.3188340000000  0.4146280000000  0.3443970000000 1.0
C      1  0.2960290000000  0.4146280000000  0.6242140000000 1.0
C      1  0.5551050000000  0.4146270000000  0.7323740000000 1.0
C      1  0.7380280000000  0.4146260000000  0.5193990000000 1.0
C      1  0.5443440000000  0.5819180000000  0.5699530000000 1.0
C      1  0.5802320000000  0.5819180000000  0.4794430000000 1.0
C      1  0.5052420000000  0.5819190000000  0.4173420000000 1.0
C      1  0.4230080000000  0.5819190000000  0.4694720000000 1.0
C      1  0.4471740000000  0.5819190000000  0.5637900000000 1.0
C      1  0.4945210000000  0.7221150000000  0.4162810000000 1.0
C      1  0.4186860000000  0.7221160000000  0.4793410000000 1.0
C      1  0.4552250000000  0.7221160000000  0.5709510000000 1.0
C      1  0.5536420000000  0.7221150000000  0.5645090000000 1.0
C      1  0.5779290000000  0.7221150000000  0.4689180000000 1.0
C      1  0.7102260000000  0.3427430000000  0.5688610000000 1.0
C      1  0.6304530000000  0.3427440000000  0.3213420000000 1.0
C      1  0.3703980000000  0.3427450000000  0.3207210000000 1.0
C      1  0.2894450000000  0.3427450000000  0.5678580000000 1.0
C      1  0.4994720000000  0.3427440000000  0.7212190000000 1.0
C      1  0.6598800000000  0.5071630000000  0.6430270000000 1.0
C      1  0.6854330000000  0.5071630000000  0.3921430000000 1.0
C      1  0.4547240000000  0.5071640000000  0.2903130000000 1.0
C      1  0.2865840000000  0.5071640000000  0.4782640000000 1.0
C      1  0.4133790000000  0.5071640000000  0.6962530000000 1.0
C      1  0.4092840000000  0.4984370000000  0.5960250000000 1.0
C      1  0.5632930000000  0.4984360000000  0.6159500000000 1.0
C      1  0.6298330000000  0.4984360000000  0.4756350000000 1.0
C      1  0.5169480000000  0.4984360000000  0.3689920000000 1.0
C      1  0.3806410000000  0.4984370000000  0.4433970000000 1.0
C      1  0.7060790000000  0.6039330000000  0.3995150000000 1.0
C      1  0.4681140000000  0.6039340000000  0.2729560000000 1.0
C      1  0.2742150000000  0.6039340000000  0.4601670000000 1.0
C      1  0.3923460000000  0.6039340000000  0.7024250000000 1.0
C      1  0.6592500000000  0.6039330000000  0.6649390000000 1.0
C      1  0.4936830000000  0.4059050000000  0.4155890000000 1.0
C      1  0.4177680000000  0.4059060000000  0.4799230000000 1.0
C      1  0.4554950000000  0.4059050000000  0.5720020000000 1.0
C      1  0.5547250000000  0.4059050000000  0.5645770000000 1.0
C      1  0.5783270000000  0.4059050000000  0.4679080000000 1.0
END
