TITL C-2159255-4746-188 -0.0015280542213797 3375 -403.234075828668 0 0 60 (C1) n - 1
REM
REM in /scratch/bkarasulu/871
REM
REM
REM
REM
REM
REM ./C.cell (a2850807a9bf4ad07a5b6933b78d9264)
REM AIRSS Version 0.9.1 bugfix July 2018 build 013d7b7c2542+ Fri, 06 Jul 2018 19:26:36 +0100
REM compiler GCC version 9.2.1 20190827 (Red Hat 9.2.1-1)
REM options -cpp -mtune=generic -march=x86-64 -g -O0 -fpre-include=/usr/include/finclude/math-vector-fortran.h
REM seed 1114776222 -104084739 1304167231 630741345 287141788 -764122651 916822001 824535539 1361182845 252282462 753833660 870478958 1587574825 1184288208 1961821185 948609233 -268065486 -1650720633 440393517 1691814493 193860776 -381199029 -2060111059 -616452541 -2068324177 -1557708020 -1026352381 1277068637 -1999428876 258505370 -295638106 -904269041 35394551
REM
CELL 1.54180   15.00000   15.00000   15.00000   90.00000   90.00000   90.00000
LATT -1
SFAC C  
C      1  0.5948540000000  0.7063140000000  0.5469900000000 1.0
C      1  0.5888500000000  0.6591990000000  0.3753660000000 1.0
C      1  0.5909690000000  0.5020430000000  0.2741050000000 1.0
C      1  0.5722750000000  0.3317640000000  0.2823950000000 1.0
C      1  0.5636560000000  0.3141570000000  0.5962840000000 1.0
C      1  0.5990110000000  0.4405280000000  0.7261930000000 1.0
C      1  0.5954640000000  0.6064660000000  0.6899600000000 1.0
C      1  0.3029690000000  0.6182280000000  0.4764910000000 1.0
C      1  0.3061410000000  0.5651000000000  0.3918280000000 1.0
C      1  0.3105830000000  0.4692420000000  0.3826850000000 1.0
C      1  0.3155910000000  0.4043480000000  0.4547300000000 1.0
C      1  0.3308090000000  0.3502100000000  0.6025480000000 1.0
C      1  0.3074220000000  0.5008530000000  0.6059480000000 1.0
C      1  0.3011900000000  0.5907720000000  0.5703710000000 1.0
C      1  0.3733640000000  0.6012200000000  0.3330160000000 1.0
C      1  0.3757540000000  0.4478000000000  0.3167470000000 1.0
C      1  0.3822330000000  0.3398700000000  0.4313770000000 1.0
C      1  0.4086400000000  0.3408900000000  0.6475810000000 1.0
C      1  0.3712250000000  0.5025690000000  0.6790570000000 1.0
C      1  0.3616050000000  0.6463560000000  0.6227010000000 1.0
C      1  0.3672440000000  0.6877590000000  0.4683290000000 1.0
C      1  0.6459960000000  0.5237910000000  0.7037500000000 1.0
C      1  0.6419920000000  0.6583910000000  0.6184760000000 1.0
C      1  0.6341180000000  0.6743220000000  0.4593890000000 1.0
C      1  0.5980760000000  0.5589900000000  0.3529980000000 1.0
C      1  0.6073150000000  0.4116510000000  0.3264350000000 1.0
C      1  0.6030640000000  0.3207390000000  0.5086270000000 1.0
C      1  0.5945180000000  0.3979590000000  0.6336790000000 1.0
C      1  0.4071560000000  0.5911630000000  0.6862860000000 1.0
C      1  0.4222960000000  0.6857710000000  0.5537870000000 1.0
C      1  0.4269960000000  0.6588870000000  0.3914330000000 1.0
C      1  0.4341080000000  0.5251310000000  0.2991430000000 1.0
C      1  0.4295020000000  0.3719480000000  0.3452450000000 1.0
C      1  0.4466230000000  0.3056490000000  0.4926740000000 1.0
C      1  0.4417290000000  0.4267300000000  0.6879270000000 1.0
C      1  0.6969020000000  0.5136900000000  0.6223820000000 1.0
C      1  0.6998770000000  0.5975030000000  0.5764920000000 1.0
C      1  0.6847970000000  0.5970770000000  0.4810010000000 1.0
C      1  0.6550920000000  0.5212580000000  0.4233610000000 1.0
C      1  0.6712690000000  0.4269740000000  0.4039140000000 1.0
C      1  0.6743920000000  0.3801290000000  0.4910980000000 1.0
C      1  0.6611320000000  0.4404670000000  0.5694850000000 1.0
C      1  0.4674580000000  0.2980540000000  0.5860680000000 1.0
C      1  0.5124540000000  0.4320970000000  0.7581420000000 1.0
C      1  0.4998150000000  0.5984570000000  0.6959080000000 1.0
C      1  0.5070540000000  0.7268310000000  0.5610790000000 1.0
C      1  0.5073910000000  0.6962040000000  0.3604320000000 1.0
C      1  0.5064260000000  0.5146790000000  0.2378190000000 1.0
C      1  0.4865120000000  0.3186110000000  0.2856470000000 1.0
C      1  0.5036200000000  0.5176150000000  0.3762510000000 1.0
C      1  0.5188410000000  0.4165810000000  0.3803970000000 1.0
C      1  0.5241250000000  0.3589210000000  0.4658710000000 1.0
C      1  0.5116520000000  0.4565270000000  0.6154590000000 1.0
C      1  0.5174990000000  0.5541960000000  0.6147600000000 1.0
C      1  0.4771150000000  0.5957870000000  0.5395820000000 1.0
C      1  0.4771140000000  0.5809010000000  0.4437180000000 1.0
C      1  0.4422710000000  0.5095620000000  0.4922290000000 1.0
C      1  0.6037680000000  0.4868760000000  0.5029460000000 1.0
C      1  0.5090250000000  0.4468000000000  0.5174050000000 1.0
C      1  0.3013710000000  0.4182730000000  0.5515230000000 1.0
END
