TITL C-2158988-7926-467 -0.00189251265266699 3375 -390.058766153569 0 0 60 (C5) n - 1
REM
REM in /scratch/bkarasulu/868
REM
REM
REM
REM
REM
REM ./C.cell (a2850807a9bf4ad07a5b6933b78d9264)
REM AIRSS Version 0.9.1 bugfix July 2018 build 013d7b7c2542+ Fri, 06 Jul 2018 19:26:36 +0100
REM compiler GCC version 9.2.1 20190827 (Red Hat 9.2.1-1)
REM options -cpp -mtune=generic -march=x86-64 -g -O0 -fpre-include=/usr/include/finclude/math-vector-fortran.h
REM seed -1723443423 -85003807 1716535663 1495065411 56385813 -801326577 -1867561553 -1540515284 -2072167070 1736497917 -1647615968 605193694 1526052479 1658160636 -145233213 -201843385 39733241 -1599507139 1232947928 -937906103 2002199143 -1460122708 216074224 -926531015 1318770930 2088587905 -165703893 1241911479 1010354084 288220168 589757880 1089512101 1851490591
REM
CELL 1.54180   15.00000   15.00000   15.00000   90.00000   90.00000   90.00000
LATT -1
SFAC C  
C      1  0.6680700000000  0.3204070000000  0.3740350000000 1.0
C      1  0.6680690000000  0.3247020000000  0.6318760000000 1.0
C      1  0.6680690000000  0.5712530000000  0.7074710000000 1.0
C      1  0.6680730000000  0.7193340000000  0.4963460000000 1.0
C      1  0.6680720000000  0.5643020000000  0.2902710000000 1.0
C      1  0.6237010000000  0.4197820000000  0.4790330000000 1.0
C      1  0.6237010000000  0.4552690000000  0.5698130000000 1.0
C      1  0.6237020000000  0.5525730000000  0.5641140000000 1.0
C      1  0.6237020000000  0.5772220000000  0.4698130000000 1.0
C      1  0.6237010000000  0.4951520000000  0.4172290000000 1.0
C      1  0.4850710000000  0.3410750000000  0.4311350000000 1.0
C      1  0.4850700000000  0.3853960000000  0.6298670000000 1.0
C      1  0.4850710000000  0.5880970000000  0.6491250000000 1.0
C      1  0.4850710000000  0.6690490000000  0.4622990000000 1.0
C      1  0.4850710000000  0.5163840000000  0.3275730000000 1.0
C      1  0.5187010000000  0.4480620000000  0.5626770000000 1.0
C      1  0.5187020000000  0.5435590000000  0.5687630000000 1.0
C      1  0.5187020000000  0.5788580000000  0.4798220000000 1.0
C      1  0.5187020000000  0.5051780000000  0.4187660000000 1.0
C      1  0.5187010000000  0.4243410000000  0.4699730000000 1.0
C      1  0.6231830000000  0.3837580000000  0.3156800000000 1.0
C      1  0.6231810000000  0.2887790000000  0.5535940000000 1.0
C      1  0.6231820000000  0.4857020000000  0.7174440000000 1.0
C      1  0.6231840000000  0.7023830000000  0.5807910000000 1.0
C      1  0.6231840000000  0.6393760000000  0.3324890000000 1.0
C      1  0.6541920000000  0.4832460000000  0.3252650000000 1.0
C      1  0.6541910000000  0.3286390000000  0.4619380000000 1.0
C      1  0.6541910000000  0.4108470000000  0.6512120000000 1.0
C      1  0.6541930000000  0.6162600000000  0.6315160000000 1.0
C      1  0.6541930000000  0.6610050000000  0.4300700000000 1.0
C      1  0.5327970000000  0.7183920000000  0.5863720000000 1.0
C      1  0.5327970000000  0.6496310000000  0.3189900000000 1.0
C      1  0.5327950000000  0.3740900000000  0.3017530000000 1.0
C      1  0.5327940000000  0.2725460000000  0.5584870000000 1.0
C      1  0.5327950000000  0.4853390000000  0.7343960000000 1.0
C      1  0.4501240000000  0.5973330000000  0.3068470000000 1.0
C      1  0.4501250000000  0.3463790000000  0.3477430000000 1.0
C      1  0.4501250000000  0.3077230000000  0.5990540000000 1.0
C      1  0.4501260000000  0.5347910000000  0.7134760000000 1.0
C      1  0.4501250000000  0.7137780000000  0.5328800000000 1.0
C      1  0.4659240000000  0.4397750000000  0.2851720000000 1.0
C      1  0.4659230000000  0.2770760000000  0.4908920000000 1.0
C      1  0.4659230000000  0.4224530000000  0.7092000000000 1.0
C      1  0.4659260000000  0.6749980000000  0.6383950000000 1.0
C      1  0.4659260000000  0.6857000000000  0.3763350000000 1.0
C      1  0.2407670000000  0.4824810000000  0.5814640000000 1.0
C      1  0.2407670000000  0.5720630000000  0.5418360000000 1.0
C      1  0.2407670000000  0.5620570000000  0.4443930000000 1.0
C      1  0.2407670000000  0.4662910000000  0.4237970000000 1.0
C      1  0.2407670000000  0.4171110000000  0.5085120000000 1.0
C      1  0.3925840000000  0.6255670000000  0.3776370000000 1.0
C      1  0.3925840000000  0.4224280000000  0.3427660000000 1.0
C      1  0.3925840000000  0.3264910000000  0.5251900000000 1.0
C      1  0.3925840000000  0.4703410000000  0.6728020000000 1.0
C      1  0.3925840000000  0.6551780000000  0.5816070000000 1.0
C      1  0.3448840000000  0.4825710000000  0.5863250000000 1.0
C      1  0.3448840000000  0.5767140000000  0.5432530000000 1.0
C      1  0.3448840000000  0.5648420000000  0.4404070000000 1.0
C      1  0.3448840000000  0.4633610000000  0.4199170000000 1.0
C      1  0.3448840000000  0.4125150000000  0.5101000000000 1.0
END
