TITL C-2158988-7926-300 -0.00412413152004585 3375 -408.625922727698 0 0 60 (Th) n - 1
REM
REM in /scratch/bkarasulu/868
REM
REM
REM
REM
REM
REM ./C.cell (a2850807a9bf4ad07a5b6933b78d9264)
REM AIRSS Version 0.9.1 bugfix July 2018 build 013d7b7c2542+ Fri, 06 Jul 2018 19:26:36 +0100
REM compiler GCC version 9.2.1 20190827 (Red Hat 9.2.1-1)
REM options -cpp -mtune=generic -march=x86-64 -g -O0 -fpre-include=/usr/include/finclude/math-vector-fortran.h
REM seed -312936075 228570402 1686666318 -879209099 1225517986 1967327918 -1470439338 -289003942 512291893 2035797779 -887977683 1993495412 -53280993 -284526499 -1514661047 -1655628580 1523451678 2097995912 2051785512 -1792899846 614763735 -1372777980 1145768279 -510252372 1747968219 1126243376 -1204904576 310101732 2137657781 -1840977887 712020092 -1770727206 235453968
REM
CELL 1.54180   15.00000   15.00000   15.00000   90.00000   90.00000   90.00000
LATT -1
SFAC C  
C      1  0.3187880000000  0.3766770000000  0.3901410000000 1.0
C      1  0.3901410000000  0.3187880000000  0.3766770000000 1.0
C      1  0.3766770000000  0.3901410000000  0.3187880000000 1.0
C      1  0.6812120000000  0.6233230000000  0.3901410000000 1.0
C      1  0.6812120000000  0.3766770000000  0.6098590000000 1.0
C      1  0.3187880000000  0.6233230000000  0.6098590000000 1.0
C      1  0.6098590000000  0.6812120000000  0.3766770000000 1.0
C      1  0.6098590000000  0.3187880000000  0.6233230000000 1.0
C      1  0.3901410000000  0.6812120000000  0.6233230000000 1.0
C      1  0.6233230000000  0.6098590000000  0.3187880000000 1.0
C      1  0.6233230000000  0.3901410000000  0.6812120000000 1.0
C      1  0.3766770000000  0.6098590000000  0.6812120000000 1.0
C      1  0.3187880000000  0.3766770000000  0.6098590000000 1.0
C      1  0.3901410000000  0.3187880000000  0.6233230000000 1.0
C      1  0.3766770000000  0.3901410000000  0.6812120000000 1.0
C      1  0.6812120000000  0.6233230000000  0.6098590000000 1.0
C      1  0.6812120000000  0.3766770000000  0.3901410000000 1.0
C      1  0.3187880000000  0.6233230000000  0.3901410000000 1.0
C      1  0.6098590000000  0.6812120000000  0.6233230000000 1.0
C      1  0.6098590000000  0.3187880000000  0.3766770000000 1.0
C      1  0.3901410000000  0.6812120000000  0.3766770000000 1.0
C      1  0.6233230000000  0.6098590000000  0.6812120000000 1.0
C      1  0.6233230000000  0.3901410000000  0.3187880000000 1.0
C      1  0.3766770000000  0.6098590000000  0.3187880000000 1.0
C      1  0.2587670000000  0.5782240000000  0.5497270000000 1.0
C      1  0.5497270000000  0.2587670000000  0.5782240000000 1.0
C      1  0.5782240000000  0.5497270000000  0.2587670000000 1.0
C      1  0.7412330000000  0.4217760000000  0.5497270000000 1.0
C      1  0.7412330000000  0.5782240000000  0.4502730000000 1.0
C      1  0.2587670000000  0.4217760000000  0.4502730000000 1.0
C      1  0.4502730000000  0.7412330000000  0.5782240000000 1.0
C      1  0.4502730000000  0.2587670000000  0.4217760000000 1.0
C      1  0.5497270000000  0.7412330000000  0.4217760000000 1.0
C      1  0.4217760000000  0.4502730000000  0.2587670000000 1.0
C      1  0.4217760000000  0.5497270000000  0.7412330000000 1.0
C      1  0.5782240000000  0.4502730000000  0.7412330000000 1.0
C      1  0.2587670000000  0.5782240000000  0.4502730000000 1.0
C      1  0.5497270000000  0.2587670000000  0.4217760000000 1.0
C      1  0.5782240000000  0.5497270000000  0.7412330000000 1.0
C      1  0.7412330000000  0.4217760000000  0.4502730000000 1.0
C      1  0.7412330000000  0.5782240000000  0.5497270000000 1.0
C      1  0.2587670000000  0.4217760000000  0.5497270000000 1.0
C      1  0.4502730000000  0.7412330000000  0.4217760000000 1.0
C      1  0.4502730000000  0.2587670000000  0.5782240000000 1.0
C      1  0.5497270000000  0.7412330000000  0.5782240000000 1.0
C      1  0.4217760000000  0.4502730000000  0.7412330000000 1.0
C      1  0.4217760000000  0.5497270000000  0.2587670000000 1.0
C      1  0.5782240000000  0.4502730000000  0.2587670000000 1.0
C      1  0.5000000000000  0.5865610000000  0.7697920000000 1.0
C      1  0.7697920000000  0.5000000000000  0.5865610000000 1.0
C      1  0.5865610000000  0.7697920000000  0.5000000000000 1.0
C      1  0.5000000000000  0.4134390000000  0.7697920000000 1.0
C      1  0.5000000000000  0.5865610000000  0.2302080000000 1.0
C      1  0.5000000000000  0.4134390000000  0.2302080000000 1.0
C      1  0.2302080000000  0.5000000000000  0.5865610000000 1.0
C      1  0.2302080000000  0.5000000000000  0.4134390000000 1.0
C      1  0.7697920000000  0.5000000000000  0.4134390000000 1.0
C      1  0.4134390000000  0.2302080000000  0.5000000000000 1.0
C      1  0.4134390000000  0.7697920000000  0.5000000000000 1.0
C      1  0.5865610000000  0.2302080000000  0.5000000000000 1.0
END
