TITL C-2158988-7926-312 -0.00247815659813489 3375 -434.03824924381 0 0 60 (C1) n - 1
REM
REM in /scratch/bkarasulu/868
REM
REM
REM
REM
REM
REM ./C.cell (a2850807a9bf4ad07a5b6933b78d9264)
REM AIRSS Version 0.9.1 bugfix July 2018 build 013d7b7c2542+ Fri, 06 Jul 2018 19:26:36 +0100
REM compiler GCC version 9.2.1 20190827 (Red Hat 9.2.1-1)
REM options -cpp -mtune=generic -march=x86-64 -g -O0 -fpre-include=/usr/include/finclude/math-vector-fortran.h
REM seed 1422223671 -431275835 -1498549439 2078398302 144382793 -595487295 822972418 -1010031237 793711645 1578630402 1380556862 -1060451797 -1297934497 -1240196913 593309815 -966514577 184987770 670902749 -780254428 -1188291850 847466092 -393507071 -1169800945 -372585158 1843882385 2121936858 115171749 -1259139575 1680400665 -1383147430 -695630463 748334314 1975524168
REM
CELL 1.54180   15.00000   15.00000   15.00000   90.00000   90.00000   90.00000
LATT -1
SFAC C  
C      1  0.5233240000000  0.5359540000000  0.2490880000000 1.0
C      1  0.6493050000000  0.4872910000000  0.3136340000000 1.0
C      1  0.7201530000000  0.4897370000000  0.3756920000000 1.0
C      1  0.7233350000000  0.5010230000000  0.5667990000000 1.0
C      1  0.6674130000000  0.4987220000000  0.6418680000000 1.0
C      1  0.5645410000000  0.5399080000000  0.7415700000000 1.0
C      1  0.3917200000000  0.5012670000000  0.7165770000000 1.0
C      1  0.3193120000000  0.5086040000000  0.6602170000000 1.0
C      1  0.2380420000000  0.4614440000000  0.5435460000000 1.0
C      1  0.3058970000000  0.4993760000000  0.3754430000000 1.0
C      1  0.3754670000000  0.4981910000000  0.3153610000000 1.0
C      1  0.5806360000000  0.6573840000000  0.6390450000000 1.0
C      1  0.5088450000000  0.6776220000000  0.6958870000000 1.0
C      1  0.4163980000000  0.6629790000000  0.6794340000000 1.0
C      1  0.3726400000000  0.6529720000000  0.5973470000000 1.0
C      1  0.4098890000000  0.6777490000000  0.5125820000000 1.0
C      1  0.3657270000000  0.6421320000000  0.4347560000000 1.0
C      1  0.4279170000000  0.6435530000000  0.3634940000000 1.0
C      1  0.5125460000000  0.6734850000000  0.3947690000000 1.0
C      1  0.5941640000000  0.6404720000000  0.3565630000000 1.0
C      1  0.6690380000000  0.6452490000000  0.4104220000000 1.0
C      1  0.6636690000000  0.6577310000000  0.5054830000000 1.0
C      1  0.3065140000000  0.5844860000000  0.6004740000000 1.0
C      1  0.2627950000000  0.5523490000000  0.5238640000000 1.0
C      1  0.2985200000000  0.5742000000000  0.4381530000000 1.0
C      1  0.4172990000000  0.5814520000000  0.2914430000000 1.0
C      1  0.4612780000000  0.5884190000000  0.2083730000000 1.0
C      1  0.5986580000000  0.5653720000000  0.2965830000000 1.0
C      1  0.7308780000000  0.5720560000000  0.4198040000000 1.0
C      1  0.7264210000000  0.5811680000000  0.5155790000000 1.0
C      1  0.6225670000000  0.5752750000000  0.6757040000000 1.0
C      1  0.5056650000000  0.6045300000000  0.7649350000000 1.0
C      1  0.4161380000000  0.5876680000000  0.7443160000000 1.0
C      1  0.4301930000000  0.4196370000000  0.3040290000000 1.0
C      1  0.5132660000000  0.4415250000000  0.2679960000000 1.0
C      1  0.5926410000000  0.4099470000000  0.3058090000000 1.0
C      1  0.7290740000000  0.4134490000000  0.4281250000000 1.0
C      1  0.7327320000000  0.4187070000000  0.5235770000000 1.0
C      1  0.6133400000000  0.4208730000000  0.6628370000000 1.0
C      1  0.5439780000000  0.4491700000000  0.7207410000000 1.0
C      1  0.4533290000000  0.4252460000000  0.7038310000000 1.0
C      1  0.2894820000000  0.4320480000000  0.6180550000000 1.0
C      1  0.2439990000000  0.3943520000000  0.4834240000000 1.0
C      1  0.2781570000000  0.4116800000000  0.3981910000000 1.0
C      1  0.3495530000000  0.3605620000000  0.5948300000000 1.0
C      1  0.3211730000000  0.3334080000000  0.5063130000000 1.0
C      1  0.3472270000000  0.3431390000000  0.4130260000000 1.0
C      1  0.4262780000000  0.3461770000000  0.3661570000000 1.0
C      1  0.5053980000000  0.3117970000000  0.4099420000000 1.0
C      1  0.5908970000000  0.3419440000000  0.3742440000000 1.0
C      1  0.6618580000000  0.3442160000000  0.4342240000000 1.0
C      1  0.6647750000000  0.3479920000000  0.5318830000000 1.0
C      1  0.6012670000000  0.3494340000000  0.6006980000000 1.0
C      1  0.5093750000000  0.3197070000000  0.5841110000000 1.0
C      1  0.4359160000000  0.3580530000000  0.6369080000000 1.0
C      1  0.4965440000000  0.2915860000000  0.4985410000000 1.0
C      1  0.4991570000000  0.4984610000000  0.4996710000000 1.0
C      1  0.5836620000000  0.6839240000000  0.5470590000000 1.0
C      1  0.5041700000000  0.6951410000000  0.4897310000000 1.0
C      1  0.5712760000000  0.4913160000000  0.4600500000000 1.0
END
