TITL C-2159255-4746-365 -0.00290668368712514 3375 -405.639716592641 0 0 60 (C4) n - 1
REM
REM in /scratch/bkarasulu/871
REM
REM
REM
REM
REM
REM ./C.cell (a2850807a9bf4ad07a5b6933b78d9264)
REM AIRSS Version 0.9.1 bugfix July 2018 build 013d7b7c2542+ Fri, 06 Jul 2018 19:26:36 +0100
REM compiler GCC version 9.2.1 20190827 (Red Hat 9.2.1-1)
REM options -cpp -mtune=generic -march=x86-64 -g -O0 -fpre-include=/usr/include/finclude/math-vector-fortran.h
REM seed 1287741188 306041170 -1672693965 -1557566958 -420745866 -672155493 679626478 -1636279396 -231022547 1625490566 -1081602482 250075290 -1880739796 -1499947722 -1527826709 2061742885 1625731605 -1268365341 -2026896415 -1250851246 1958107447 1001995219 907041055 1159494989 985089519 -1131567629 -436715554 463256862 1410310614 -1308661754 -1701528623 -197620716 -88123013
REM
CELL 1.54180   15.00000   15.00000   15.00000   90.00000   90.00000   90.00000
LATT -1
SFAC C  
C      1  0.4321580000000  0.6303880000000  0.3310280000000 1.0
C      1  0.4318900000000  0.6686410000000  0.6312680000000 1.0
C      1  0.4323510000000  0.3687220000000  0.6689580000000 1.0
C      1  0.4314400000000  0.3315620000000  0.3689660000000 1.0
C      1  0.5897110000000  0.6362510000000  0.3361040000000 1.0
C      1  0.5895890000000  0.6638710000000  0.6360100000000 1.0
C      1  0.5900230000000  0.3637820000000  0.6636640000000 1.0
C      1  0.5891420000000  0.3365610000000  0.3634260000000 1.0
C      1  0.4560910000000  0.5157320000000  0.4310100000000 1.0
C      1  0.4563040000000  0.5691110000000  0.5161770000000 1.0
C      1  0.4565270000000  0.4840090000000  0.5695150000000 1.0
C      1  0.4563100000000  0.4306610000000  0.4843650000000 1.0
C      1  0.5572920000000  0.5184780000000  0.4314240000000 1.0
C      1  0.5576180000000  0.5683480000000  0.5183720000000 1.0
C      1  0.5578150000000  0.4815080000000  0.5682870000000 1.0
C      1  0.5576280000000  0.4316530000000  0.4814380000000 1.0
C      1  0.5919800000000  0.2830800000000  0.5125370000000 1.0
C      1  0.5921990000000  0.4873410000000  0.2826610000000 1.0
C      1  0.5917210000000  0.7170620000000  0.4869030000000 1.0
C      1  0.5922650000000  0.5129200000000  0.7169290000000 1.0
C      1  0.4091570000000  0.2816290000000  0.5239960000000 1.0
C      1  0.4072600000000  0.4758840000000  0.2820750000000 1.0
C      1  0.4088630000000  0.7177620000000  0.4760540000000 1.0
C      1  0.4094060000000  0.5236990000000  0.7186390000000 1.0
C      1  0.5566590000000  0.3028590000000  0.5987410000000 1.0
C      1  0.5557700000000  0.4015390000000  0.3025220000000 1.0
C      1  0.5561330000000  0.6970290000000  0.4008750000000 1.0
C      1  0.5565390000000  0.5989410000000  0.6970590000000 1.0
C      1  0.4566270000000  0.3051110000000  0.6052480000000 1.0
C      1  0.4555390000000  0.3952510000000  0.3051460000000 1.0
C      1  0.4562590000000  0.6941130000000  0.3947740000000 1.0
C      1  0.4564860000000  0.6050800000000  0.6949320000000 1.0
C      1  0.6915270000000  0.5201650000000  0.4322080000000 1.0
C      1  0.6914810000000  0.5677880000000  0.5197380000000 1.0
C      1  0.6915950000000  0.4801260000000  0.5673730000000 1.0
C      1  0.6914300000000  0.4325450000000  0.4797210000000 1.0
C      1  0.3222870000000  0.5193230000000  0.4329820000000 1.0
C      1  0.3225240000000  0.5677520000000  0.5201710000000 1.0
C      1  0.3227960000000  0.4804350000000  0.5686090000000 1.0
C      1  0.3225370000000  0.4320180000000  0.4813380000000 1.0
C      1  0.5269040000000  0.4616060000000  0.7644190000000 1.0
C      1  0.5261710000000  0.2360040000000  0.4614580000000 1.0
C      1  0.5288080000000  0.5393870000000  0.2330920000000 1.0
C      1  0.5260660000000  0.7642600000000  0.5381290000000 1.0
C      1  0.4462310000000  0.4902240000000  0.7940680000000 1.0
C      1  0.4456740000000  0.2061630000000  0.4903090000000 1.0
C      1  0.4463480000000  0.5103720000000  0.2079320000000 1.0
C      1  0.4453070000000  0.7935070000000  0.5093210000000 1.0
C      1  0.3889410000000  0.3561940000000  0.4605830000000 1.0
C      1  0.3887190000000  0.5394210000000  0.3565450000000 1.0
C      1  0.3889750000000  0.6436290000000  0.5400970000000 1.0
C      1  0.3894580000000  0.4600720000000  0.6442620000000 1.0
C      1  0.6264430000000  0.3570990000000  0.4557840000000 1.0
C      1  0.6262780000000  0.5438550000000  0.3570230000000 1.0
C      1  0.6264310000000  0.6431470000000  0.5436070000000 1.0
C      1  0.6268010000000  0.4562070000000  0.6428970000000 1.0
C      1  0.5139400000000  0.2812480000000  0.3800970000000 1.0
C      1  0.5145910000000  0.6195440000000  0.2802710000000 1.0
C      1  0.5148660000000  0.3801710000000  0.7192500000000 1.0
C      1  0.5142320000000  0.7191580000000  0.6196090000000 1.0
END
