TITL C-2158984-8299-83 -0.00339837859715799 3375 -403.441342462681 0 0 60 (C2) n - 1
REM
REM in /scratch/bkarasulu/869
REM
REM
REM
REM
REM
REM ./C.cell (a2850807a9bf4ad07a5b6933b78d9264)
REM AIRSS Version 0.9.1 bugfix July 2018 build 013d7b7c2542+ Fri, 06 Jul 2018 19:26:36 +0100
REM compiler GCC version 9.2.1 20190827 (Red Hat 9.2.1-1)
REM options -cpp -mtune=generic -march=x86-64 -g -O0 -fpre-include=/usr/include/finclude/math-vector-fortran.h
REM seed 1685640558 -15742432 1935486955 1063783026 1085070720 264936107 -1616146328 385361768 104424756 1879259265 -1544209115 1928219332 -506178634 -1608236983 744574480 1410844480 -43889106 -1666262537 -1986075175 1952943097 -413722095 10955412 -124955256 -1384249532 -1229769939 1862529255 759864092 169048958 953504106 -1850327612 1425188750 -956533381 1320918709
REM
CELL 1.54180   15.00000   15.00000   15.00000   90.00000   90.00000   90.00000
LATT -1
SFAC C  
C      1  0.5990930000000  0.4484320000000  0.7063600000000 1.0
C      1  0.7137980000000  0.3681700000000  0.5903640000000 1.0
C      1  0.7484800000000  0.4163110000000  0.5078960000000 1.0
C      1  0.6717610000000  0.3025020000000  0.3837150000000 1.0
C      1  0.5714800000000  0.4441150000000  0.2928230000000 1.0
C      1  0.4009020000000  0.4485220000000  0.2936200000000 1.0
C      1  0.2861900000000  0.3682240000000  0.4095840000000 1.0
C      1  0.2515120000000  0.4163350000000  0.4920720000000 1.0
C      1  0.3282230000000  0.3024690000000  0.6162060000000 1.0
C      1  0.4285150000000  0.4440400000000  0.7071550000000 1.0
C      1  0.7214390000000  0.6640910000000  0.4912250000000 1.0
C      1  0.6884720000000  0.6283890000000  0.4103340000000 1.0
C      1  0.5400660000000  0.5972500000000  0.3104810000000 1.0
C      1  0.4440690000000  0.5998760000000  0.3125310000000 1.0
C      1  0.3065230000000  0.6304240000000  0.4252510000000 1.0
C      1  0.2785760000000  0.6641090000000  0.5088390000000 1.0
C      1  0.3115400000000  0.6283720000000  0.5897160000000 1.0
C      1  0.4599430000000  0.5971800000000  0.6895570000000 1.0
C      1  0.5559400000000  0.5997970000000  0.6875090000000 1.0
C      1  0.6934890000000  0.6303770000000  0.5748010000000 1.0
C      1  0.4455350000000  0.6872410000000  0.3592860000000 1.0
C      1  0.3740660000000  0.7033440000000  0.4151880000000 1.0
C      1  0.3513360000000  0.7327610000000  0.5068340000000 1.0
C      1  0.3795320000000  0.7014950000000  0.5958870000000 1.0
C      1  0.4553460000000  0.6854370000000  0.6448030000000 1.0
C      1  0.5544810000000  0.6871810000000  0.6407870000000 1.0
C      1  0.6259530000000  0.7033000000000  0.5848930000000 1.0
C      1  0.6486850000000  0.7327490000000  0.4932570000000 1.0
C      1  0.6204860000000  0.7015210000000  0.4041920000000 1.0
C      1  0.5446700000000  0.6854900000000  0.3552700000000 1.0
C      1  0.5609400000000  0.3766110000000  0.6505750000000 1.0
C      1  0.6176940000000  0.3586010000000  0.5786310000000 1.0
C      1  0.6014810000000  0.3981270000000  0.4938140000000 1.0
C      1  0.5955910000000  0.3446870000000  0.4125710000000 1.0
C      1  0.5333470000000  0.3744780000000  0.3481730000000 1.0
C      1  0.4390500000000  0.3766750000000  0.3493770000000 1.0
C      1  0.3822930000000  0.3586420000000  0.4213130000000 1.0
C      1  0.3985100000000  0.3981330000000  0.5061450000000 1.0
C      1  0.4043960000000  0.3446610000000  0.5873680000000 1.0
C      1  0.4666410000000  0.3744220000000  0.6517780000000 1.0
C      1  0.7585410000000  0.3463330000000  0.6646270000000 1.0
C      1  0.7911200000000  0.3684340000000  0.4447880000000 1.0
C      1  0.7588130000000  0.3027410000000  0.3919520000000 1.0
C      1  0.5295870000000  0.4497560000000  0.2090380000000 1.0
C      1  0.4447940000000  0.4564450000000  0.2107190000000 1.0
C      1  0.2414450000000  0.3464200000000  0.3353130000000 1.0
C      1  0.2088690000000  0.3684360000000  0.5551600000000 1.0
C      1  0.2411710000000  0.3027180000000  0.6079690000000 1.0
C      1  0.4704070000000  0.4496460000000  0.7909430000000 1.0
C      1  0.5552010000000  0.4563280000000  0.7892640000000 1.0
C      1  0.4005640000000  0.5249740000000  0.6680500000000 1.0
C      1  0.6174100000000  0.5296330000000  0.6625670000000 1.0
C      1  0.6670370000000  0.5411890000000  0.5829050000000 1.0
C      1  0.6684430000000  0.4796720000000  0.4924540000000 1.0
C      1  0.6588250000000  0.5385490000000  0.4076740000000 1.0
C      1  0.5994380000000  0.5250300000000  0.3319600000000 1.0
C      1  0.3825930000000  0.5297070000000  0.3374450000000 1.0
C      1  0.3329660000000  0.5412360000000  0.4171110000000 1.0
C      1  0.3315550000000  0.4796840000000  0.5075380000000 1.0
C      1  0.3411780000000  0.5385280000000  0.5923410000000 1.0
END
