TITL C-2158988-7926-982 -0.138409400583796 3375 -409.725422893393 0 0 60 (C1) n - 1
REM
REM in /scratch/bkarasulu/868
REM
REM
REM
REM
REM
REM ./C.cell (a2850807a9bf4ad07a5b6933b78d9264)
REM AIRSS Version 0.9.1 bugfix July 2018 build 013d7b7c2542+ Fri, 06 Jul 2018 19:26:36 +0100
REM compiler GCC version 9.2.1 20190827 (Red Hat 9.2.1-1)
REM options -cpp -mtune=generic -march=x86-64 -g -O0 -fpre-include=/usr/include/finclude/math-vector-fortran.h
REM seed -1741162724 -54908102 178587917 -202090422 -1234210615 -522749428 -883434681 357273157 1347780892 -508647908 1236993967 -1532560789 340812542 -1930087527 -309945793 1784638761 1855039163 -2005704759 179863938 -604012352 1488009141 -1322706207 1209698230 -511539929 -354601493 -1965129499 2128173072 -1922500919 55517413 97315436 -1845509601 -573738653 -96840012
REM
CELL 1.54180   15.00000   15.00000   15.00000   90.00000   90.00000   90.00000
LATT -1
SFAC C  
C      1  0.5047850000000  0.6001790000000  0.3447780000000 1.0
C      1  0.5133610000000  0.5838310000000  0.5094500000000 1.0
C      1  0.5196590000000  0.5619410000000  0.6098950000000 1.0
C      1  0.5100500000000  0.4674150000000  0.6396050000000 1.0
C      1  0.5289370000000  0.3878630000000  0.5639310000000 1.0
C      1  0.5250450000000  0.4092100000000  0.4652990000000 1.0
C      1  0.5098310000000  0.5029970000000  0.3520410000000 1.0
C      1  0.2776130000000  0.5102550000000  0.3454260000000 1.0
C      1  0.2889060000000  0.6570550000000  0.4673720000000 1.0
C      1  0.2961470000000  0.6564280000000  0.5665890000000 1.0
C      1  0.2905920000000  0.5334490000000  0.7014860000000 1.0
C      1  0.2985990000000  0.3618840000000  0.6266370000000 1.0
C      1  0.3005100000000  0.3246870000000  0.5345800000000 1.0
C      1  0.2880940000000  0.4126550000000  0.3683760000000 1.0
C      1  0.5912750000000  0.4255470000000  0.7831740000000 1.0
C      1  0.7009080000000  0.3523890000000  0.6075400000000 1.0
C      1  0.6178730000000  0.2918940000000  0.3804730000000 1.0
C      1  0.5906770000000  0.4348600000000  0.2282010000000 1.0
C      1  0.6330810000000  0.6662150000000  0.2792520000000 1.0
C      1  0.6115510000000  0.7230960000000  0.4996740000000 1.0
C      1  0.6796170000000  0.6140900000000  0.6671880000000 1.0
C      1  0.4358570000000  0.3586140000000  0.4348930000000 1.0
C      1  0.4214210000000  0.4713530000000  0.3332620000000 1.0
C      1  0.4120290000000  0.6210400000000  0.3552300000000 1.0
C      1  0.4373330000000  0.6508260000000  0.5060260000000 1.0
C      1  0.4339840000000  0.6017000000000  0.6491450000000 1.0
C      1  0.4243120000000  0.4537020000000  0.6810650000000 1.0
C      1  0.4459320000000  0.3386230000000  0.5841610000000 1.0
C      1  0.3758740000000  0.6583690000000  0.4332620000000 1.0
C      1  0.3873960000000  0.6537280000000  0.5868210000000 1.0
C      1  0.3795330000000  0.5352990000000  0.6915510000000 1.0
C      1  0.3872800000000  0.3742740000000  0.6509400000000 1.0
C      1  0.3921070000000  0.3213690000000  0.5090260000000 1.0
C      1  0.3808770000000  0.3942520000000  0.3685030000000 1.0
C      1  0.3623720000000  0.5432480000000  0.3289480000000 1.0
C      1  0.7412590000000  0.6319820000000  0.7232440000000 1.0
C      1  0.6137100000000  0.4305210000000  0.8653930000000 1.0
C      1  0.7811630000000  0.3327520000000  0.5885180000000 1.0
C      1  0.6571740000000  0.2162170000000  0.3769170000000 1.0
C      1  0.6126020000000  0.4315710000000  0.1455950000000 1.0
C      1  0.6793200000000  0.6974590000000  0.2162740000000 1.0
C      1  0.5779900000000  0.7988730000000  0.4997260000000 1.0
C      1  0.2178360000000  0.5904810000000  0.4743460000000 1.0
C      1  0.2257120000000  0.5895600000000  0.5717170000000 1.0
C      1  0.2330230000000  0.5149790000000  0.6309290000000 1.0
C      1  0.2280500000000  0.4232130000000  0.6048430000000 1.0
C      1  0.2245790000000  0.3826740000000  0.5154110000000 1.0
C      1  0.2194450000000  0.4233350000000  0.4348380000000 1.0
C      1  0.2122340000000  0.5201490000000  0.4154880000000 1.0
C      1  0.6149960000000  0.3775200000000  0.6167020000000 1.0
C      1  0.5860070000000  0.3758970000000  0.3902810000000 1.0
C      1  0.5754770000000  0.4395520000000  0.3176810000000 1.0
C      1  0.5936060000000  0.6240570000000  0.3491790000000 1.0
C      1  0.6084280000000  0.6284400000000  0.5105950000000 1.0
C      1  0.6149690000000  0.5955440000000  0.6074210000000 1.0
C      1  0.5792360000000  0.4237300000000  0.6941080000000 1.0
C      1  0.5406070000000  0.5080880000000  0.4476300000000 1.0
C      1  0.7248380000000  0.5254880000000  0.4253980000000 1.0
C      1  0.3611050000000  0.4958390000000  0.5136940000000 1.0
C      1  0.6369120000000  0.5620300000000  0.4298900000000 1.0
END
