TITL C-2158984-8299-164 -0.00174696376664924 3375 -389.838183006196 0 0 60 (C3) n - 1
REM
REM in /scratch/bkarasulu/869
REM
REM
REM
REM
REM
REM ./C.cell (a2850807a9bf4ad07a5b6933b78d9264)
REM AIRSS Version 0.9.1 bugfix July 2018 build 013d7b7c2542+ Fri, 06 Jul 2018 19:26:36 +0100
REM compiler GCC version 9.2.1 20190827 (Red Hat 9.2.1-1)
REM options -cpp -mtune=generic -march=x86-64 -g -O0 -fpre-include=/usr/include/finclude/math-vector-fortran.h
REM seed 2035091054 -299020536 -183301052 254422416 -2087026158 1226082106 1219392550 177737502 961523719 -1612696336 842040239 570472174 -1512056472 -712909768 -1296307386 842582849 -1743453806 -2104160025 -938048271 1319597052 -330484799 -1889129467 -1095795400 1665428813 -570574929 -700065617 -488207328 -651553660 -1857864556 884527881 -1932303130 1227314629 -972023090
REM
CELL 1.54180   15.00000   15.00000   15.00000   90.00000   90.00000   90.00000
LATT -1
SFAC C  
C      1  0.5770410000000  0.6271500000000  0.4008070000000 1.0
C      1  0.5457500000000  0.6271510000000  0.6186760000000 1.0
C      1  0.3727140000000  0.6271500000000  0.4826400000000 1.0
C      1  0.5765940000000  0.3534570000000  0.4023000000000 1.0
C      1  0.5446800000000  0.3534570000000  0.6175420000000 1.0
C      1  0.3742310000000  0.3534580000000  0.4822810000000 1.0
C      1  0.6243660000000  0.6411710000000  0.5488400000000 1.0
C      1  0.3938860000000  0.6411700000000  0.5856430000000 1.0
C      1  0.4772530000000  0.6411710000000  0.3676400000000 1.0
C      1  0.6238330000000  0.3384080000000  0.5494170000000 1.0
C      1  0.3936520000000  0.3384080000000  0.5848920000000 1.0
C      1  0.4780200000000  0.3384080000000  0.3678130000000 1.0
C      1  0.4524930000000  0.6302650000000  0.2750690000000 1.0
C      1  0.7169160000000  0.6302640000000  0.5736780000000 1.0
C      1  0.3261000000000  0.6302640000000  0.6533740000000 1.0
C      1  0.4547950000000  0.3496240000000  0.2753590000000 1.0
C      1  0.7155130000000  0.3496250000000  0.5755270000000 1.0
C      1  0.3252000000000  0.3496250000000  0.6512340000000 1.0
C      1  0.7798420000000  0.4043960000000  0.5597640000000 1.0
C      1  0.3066870000000  0.4043970000000  0.7148250000000 1.0
C      1  0.4089840000000  0.4043970000000  0.2275290000000 1.0
C      1  0.7804030000000  0.5747720000000  0.5583180000000 1.0
C      1  0.3076590000000  0.5747710000000  0.7160340000000 1.0
C      1  0.4074510000000  0.5747710000000  0.2277660000000 1.0
C      1  0.5805520000000  0.5628540000000  0.6828390000000 1.0
C      1  0.2997460000000  0.5628540000000  0.4806980000000 1.0
C      1  0.6152060000000  0.5628540000000  0.3385850000000 1.0
C      1  0.5802220000000  0.4178790000000  0.6815710000000 1.0
C      1  0.3010090000000  0.4178790000000  0.4810460000000 1.0
C      1  0.6142730000000  0.4178790000000  0.3395050000000 1.0
C      1  0.6171470000000  0.5644920000000  0.4858720000000 1.0
C      1  0.4520270000000  0.5644920000000  0.6108760000000 1.0
C      1  0.4263300000000  0.5644920000000  0.4053750000000 1.0
C      1  0.6140400000000  0.4150360000000  0.4855700000000 1.0
C      1  0.4538420000000  0.4150360000000  0.6083360000000 1.0
C      1  0.4276220000000  0.4150360000000  0.4082160000000 1.0
C      1  0.4797350000000  0.6958330000000  0.5894170000000 1.0
C      1  0.4310600000000  0.6958330000000  0.4401000000000 1.0
C      1  0.5847100000000  0.6958330000000  0.4726060000000 1.0
C      1  0.4793480000000  0.2838730000000  0.5890170000000 1.0
C      1  0.4316000000000  0.2838720000000  0.4399650000000 1.0
C      1  0.5845570000000  0.2838720000000  0.4731410000000 1.0
C      1  0.6154300000000  0.4904770000000  0.6249770000000 1.0
C      1  0.5476570000000  0.4904770000000  0.3373100000000 1.0
C      1  0.3324160000000  0.4904770000000  0.5398360000000 1.0
C      1  0.4439410000000  0.4888010000000  0.6814270000000 1.0
C      1  0.3692750000000  0.4888010000000  0.3630940000000 1.0
C      1  0.6822900000000  0.4888010000000  0.4575990000000 1.0
C      1  0.2881930000000  0.4898270000000  0.4188070000000 1.0
C      1  0.6745820000000  0.4898270000000  0.3595240000000 1.0
C      1  0.5327300000000  0.4898270000000  0.7237910000000 1.0
C      1  0.7563760000000  0.4892320000000  0.5209160000000 1.0
C      1  0.3520630000000  0.4892320000000  0.7139280000000 1.0
C      1  0.3870710000000  0.4892320000000  0.2672750000000 1.0
C      1  0.4885810000000  0.4894570000000  0.4134590000000 1.0
C      1  0.4279000000000  0.4894570000000  0.5529230000000 1.0
C      1  0.5790210000000  0.4894570000000  0.5357420000000 1.0
C      1  0.4985010000000  0.2551030000000  0.5007080000000 1.0
C      1  0.4985010000000  0.7231700000000  0.5007080000000 1.0
C      1  0.4985010000000  0.5187760000000  0.5007080000000 1.0
END
