TITL C-2158984-8299-1071 -0.00209615644167405 3375 -408.900659444688 0 0 60 (C1) n - 1
REM
REM in /scratch/bkarasulu/869
REM
REM
REM
REM
REM
REM ./C.cell (a2850807a9bf4ad07a5b6933b78d9264)
REM AIRSS Version 0.9.1 bugfix July 2018 build 013d7b7c2542+ Fri, 06 Jul 2018 19:26:36 +0100
REM compiler GCC version 9.2.1 20190827 (Red Hat 9.2.1-1)
REM options -cpp -mtune=generic -march=x86-64 -g -O0 -fpre-include=/usr/include/finclude/math-vector-fortran.h
REM seed 26703250 1822017015 262566872 1565572746 -1548115785 -1592851760 361373322 -192089879 760397244 2062294006 1529187578 -1142256177 996108628 -1030658013 -551332133 -1132664216 -1298303326 -1516087080 -2052934581 1503097700 138781642 622455731 557158775 1280712527 -1341240613 1448865847 346196121 -2031915519 1549122177 -2105634796 1754139144 123183588 -1672928646
REM
CELL 1.54180   15.00000   15.00000   15.00000   90.00000   90.00000   90.00000
LATT -1
SFAC C  
C      1  0.5273050000000  0.3797190000000  0.3027770000000 1.0
C      1  0.3243330000000  0.3852420000000  0.5639890000000 1.0
C      1  0.6548590000000  0.3743430000000  0.6268550000000 1.0
C      1  0.4591800000000  0.2982330000000  0.5551910000000 1.0
C      1  0.5553350000000  0.2891750000000  0.5270840000000 1.0
C      1  0.4593930000000  0.2751980000000  0.3909550000000 1.0
C      1  0.5768490000000  0.4961030000000  0.4959040000000 1.0
C      1  0.4886680000000  0.4792690000000  0.4743900000000 1.0
C      1  0.5179650000000  0.4856490000000  0.5610580000000 1.0
C      1  0.4103360000000  0.6284950000000  0.5804820000000 1.0
C      1  0.6232360000000  0.6443820000000  0.5683180000000 1.0
C      1  0.4877420000000  0.6208310000000  0.3914250000000 1.0
C      1  0.6822450000000  0.3759630000000  0.4568160000000 1.0
C      1  0.3733710000000  0.4032960000000  0.3556320000000 1.0
C      1  0.4408140000000  0.4040000000000  0.6822210000000 1.0
C      1  0.5902480000000  0.6305370000000  0.4007580000000 1.0
C      1  0.3724900000000  0.6333760000000  0.4881730000000 1.0
C      1  0.5380950000000  0.6401030000000  0.6404530000000 1.0
C      1  0.6217880000000  0.7235240000000  0.4355950000000 1.0
C      1  0.4085460000000  0.6825560000000  0.4097720000000 1.0
C      1  0.4557630000000  0.6918660000000  0.6492470000000 1.0
C      1  0.4887020000000  0.3340680000000  0.6420320000000 1.0
C      1  0.6042320000000  0.3147730000000  0.4471320000000 1.0
C      1  0.3882590000000  0.3276750000000  0.4151220000000 1.0
C      1  0.2341350000000  0.6011720000000  0.5723540000000 1.0
C      1  0.6717990000000  0.6041000000000  0.6461320000000 1.0
C      1  0.5775640000000  0.5974960000000  0.2350070000000 1.0
C      1  0.3511210000000  0.4993920000000  0.3831820000000 1.0
C      1  0.4712560000000  0.4986350000000  0.7034470000000 1.0
C      1  0.6988540000000  0.4615900000000  0.4059750000000 1.0
C      1  0.4808290000000  0.5575130000000  0.6098090000000 1.0
C      1  0.6232440000000  0.5793970000000  0.4856350000000 1.0
C      1  0.4317760000000  0.5464850000000  0.4389040000000 1.0
C      1  0.3521830000000  0.4124470000000  0.6516350000000 1.0
C      1  0.7086230000000  0.3945250000000  0.5479840000000 1.0
C      1  0.4377280000000  0.4114070000000  0.2868420000000 1.0
C      1  0.3173680000000  0.4979350000000  0.6756200000000 1.0
C      1  0.7357150000000  0.4861130000000  0.5544000000000 1.0
C      1  0.4391730000000  0.5017710000000  0.2532960000000 1.0
C      1  0.5302650000000  0.5206370000000  0.2318540000000 1.0
C      1  0.2540720000000  0.5202090000000  0.6078460000000 1.0
C      1  0.7060360000000  0.5179600000000  0.6378390000000 1.0
C      1  0.5809430000000  0.3204840000000  0.6154430000000 1.0
C      1  0.5405900000000  0.3142160000000  0.3728110000000 1.0
C      1  0.3791530000000  0.3265420000000  0.5123490000000 1.0
C      1  0.5965070000000  0.5972510000000  0.7053780000000 1.0
C      1  0.6264240000000  0.5873350000000  0.3176090000000 1.0
C      1  0.2785290000000  0.6013440000000  0.4897920000000 1.0
C      1  0.6550030000000  0.4927130000000  0.3279030000000 1.0
C      1  0.2783430000000  0.5114630000000  0.4508260000000 1.0
C      1  0.5719210000000  0.5056270000000  0.7195630000000 1.0
C      1  0.5848480000000  0.4496250000000  0.2775790000000 1.0
C      1  0.2706980000000  0.4575020000000  0.5303480000000 1.0
C      1  0.6451880000000  0.4552040000000  0.6817020000000 1.0
C      1  0.3826460000000  0.6429950000000  0.6755690000000 1.0
C      1  0.6419980000000  0.7285440000000  0.5177670000000 1.0
C      1  0.4166270000000  0.6425320000000  0.3264380000000 1.0
C      1  0.3857450000000  0.5523070000000  0.7138040000000 1.0
C      1  0.7140370000000  0.5308820000000  0.4738320000000 1.0
C      1  0.3793060000000  0.5562730000000  0.3021450000000 1.0
END
