TITL C-2158988-7926-308 -0.00256095366435439 3375 -423.380860518499 0 0 60 (C1) n - 1
REM
REM in /scratch/bkarasulu/868
REM
REM
REM
REM
REM
REM ./C.cell (a2850807a9bf4ad07a5b6933b78d9264)
REM AIRSS Version 0.9.1 bugfix July 2018 build 013d7b7c2542+ Fri, 06 Jul 2018 19:26:36 +0100
REM compiler GCC version 9.2.1 20190827 (Red Hat 9.2.1-1)
REM options -cpp -mtune=generic -march=x86-64 -g -O0 -fpre-include=/usr/include/finclude/math-vector-fortran.h
REM seed -809525146 1263261476 -252177832 2100055675 -2599004 667196538 1946000884 -965085615 -695184118 1251161295 -601223705 1348276958 -2101426111 -71130603 1105811915 -1403913646 1659865894 -632807989 1903419306 1774016772 1591848365 1095651076 588646835 -1545594371 130727019 -42163495 760518299 -333844670 -705912890 -584265141 1490319355 2097761865 1445775282
REM
CELL 1.54180   15.00000   15.00000   15.00000   90.00000   90.00000   90.00000
LATT -1
SFAC C  
C      1  0.5194910000000  0.4604590000000  0.1882540000000 1.0
C      1  0.4229240000000  0.4643570000000  0.1741490000000 1.0
C      1  0.5679540000000  0.5440570000000  0.1730730000000 1.0
C      1  0.5483800000000  0.5920430000000  0.3416610000000 1.0
C      1  0.5508250000000  0.4232740000000  0.3523020000000 1.0
C      1  0.4000560000000  0.5044610000000  0.3447340000000 1.0
C      1  0.6835570000000  0.4052390000000  0.4383740000000 1.0
C      1  0.3257540000000  0.3997860000000  0.4466810000000 1.0
C      1  0.4995810000000  0.7008790000000  0.4486880000000 1.0
C      1  0.7174230000000  0.5716890000000  0.4467480000000 1.0
C      1  0.4601900000000  0.2998910000000  0.4699520000000 1.0
C      1  0.3402070000000  0.6455950000000  0.4603540000000 1.0
C      1  0.4201470000000  0.6578730000000  0.4115340000000 1.0
C      1  0.6834170000000  0.4974950000000  0.4024340000000 1.0
C      1  0.4072730000000  0.3571260000000  0.4162010000000 1.0
C      1  0.2697150000000  0.5436090000000  0.5559780000000 1.0
C      1  0.6352250000000  0.6435360000000  0.5550540000000 1.0
C      1  0.5844440000000  0.3131240000000  0.5662370000000 1.0
C      1  0.3706450000000  0.3669570000000  0.6717910000000 1.0
C      1  0.4353020000000  0.6584820000000  0.6705450000000 1.0
C      1  0.7045650000000  0.4519780000000  0.6675900000000 1.0
C      1  0.4576110000000  0.4311640000000  0.3858930000000 1.0
C      1  0.4485390000000  0.5912360000000  0.3537500000000 1.0
C      1  0.5894450000000  0.5115180000000  0.3883770000000 1.0
C      1  0.7231540000000  0.3872090000000  0.5222410000000 1.0
C      1  0.2985840000000  0.3823510000000  0.5348510000000 1.0
C      1  0.4984580000000  0.7165130000000  0.5420550000000 1.0
C      1  0.4744180000000  0.4774910000000  0.7170520000000 1.0
C      1  0.3836540000000  0.5134640000000  0.7106590000000 1.0
C      1  0.5499260000000  0.5399670000000  0.7036840000000 1.0
C      1  0.6326320000000  0.5156970000000  0.6623040000000 1.0
C      1  0.4638610000000  0.3807570000000  0.6868990000000 1.0
C      1  0.3623190000000  0.6009160000000  0.6840940000000 1.0
C      1  0.5712790000000  0.5838460000000  0.2477020000000 1.0
C      1  0.5485260000000  0.4122080000000  0.2591040000000 1.0
C      1  0.3935630000000  0.4933990000000  0.2488320000000 1.0
C      1  0.5247500000000  0.6314660000000  0.6750410000000 1.0
C      1  0.6997220000000  0.3624090000000  0.6786180000000 1.0
C      1  0.3241400000000  0.4480080000000  0.6749770000000 1.0
C      1  0.2926420000000  0.5605050000000  0.4621650000000 1.0
C      1  0.6536820000000  0.6467450000000  0.4607260000000 1.0
C      1  0.5561410000000  0.3100360000000  0.4739400000000 1.0
C      1  0.5785520000000  0.6666780000000  0.4070940000000 1.0
C      1  0.6046680000000  0.3610720000000  0.4139070000000 1.0
C      1  0.3196340000000  0.4886280000000  0.4091420000000 1.0
C      1  0.6724160000000  0.3366080000000  0.5887760000000 1.0
C      1  0.2767070000000  0.4578490000000  0.5921220000000 1.0
C      1  0.5655050000000  0.6809160000000  0.6001340000000 1.0
C      1  0.4191520000000  0.7095180000000  0.5899030000000 1.0
C      1  0.7614990000000  0.4613080000000  0.5715500000000 1.0
C      1  0.3512960000000  0.3229850000000  0.5894310000000 1.0
C      1  0.6354210000000  0.5438870000000  0.5682340000000 1.0
C      1  0.5043740000000  0.3184900000000  0.6196460000000 1.0
C      1  0.3022570000000  0.6143580000000  0.6094660000000 1.0
C      1  0.4326710000000  0.2886970000000  0.5591840000000 1.0
C      1  0.3406300000000  0.6790520000000  0.5496380000000 1.0
C      1  0.7270790000000  0.5346690000000  0.5315040000000 1.0
C      1  0.4767020000000  0.5505030000000  0.5321680000000 1.0
C      1  0.5606810000000  0.5152690000000  0.4951830000000 1.0
C      1  0.4766370000000  0.4706960000000  0.4976240000000 1.0
END
