TITL C-2159255-4746-377 -0.00214021348965842 3375 -422.63687308542 0 0 60 (C6v) n - 1
REM
REM in /scratch/bkarasulu/871
REM
REM
REM
REM
REM
REM ./C.cell (a2850807a9bf4ad07a5b6933b78d9264)
REM AIRSS Version 0.9.1 bugfix July 2018 build 013d7b7c2542+ Fri, 06 Jul 2018 19:26:36 +0100
REM compiler GCC version 9.2.1 20190827 (Red Hat 9.2.1-1)
REM options -cpp -mtune=generic -march=x86-64 -g -O0 -fpre-include=/usr/include/finclude/math-vector-fortran.h
REM seed -464474434 122511635 755025999 1624091925 1196526910 1942677345 1060252178 773340391 -1170256988 -1516731546 567174920 -303393759 -1972411743 1972649275 -507129967 -901618779 -2064065971 -1975291149 -509515258 -1633747236 1531378524 -98828983 -43630272 -2067076954 -296340128 -1267304786 1555781043 498631155 -939566473 454908343 -62399270 -1185194723 -932108773
REM
CELL 1.54180   15.00000   15.00000   15.00000   90.00000   90.00000   90.00000
LATT -1
SFAC C  
C      1  0.4868120000000  0.2866460000000  0.3770630000000 1.0
C      1  0.4868130000000  0.4997900000000  0.2537590000000 1.0
C      1  0.4868130000000  0.7131440000000  0.3766990000000 1.0
C      1  0.4868120000000  0.7133540000000  0.6229370000000 1.0
C      1  0.4868130000000  0.5002100000000  0.7462410000000 1.0
C      1  0.4868130000000  0.2868560000000  0.6233010000000 1.0
C      1  0.5779170000000  0.3857180000000  0.7014310000000 1.0
C      1  0.5779170000000  0.2684130000000  0.5017430000000 1.0
C      1  0.5779170000000  0.3826980000000  0.3003130000000 1.0
C      1  0.5779170000000  0.6142820000000  0.2985690000000 1.0
C      1  0.5779170000000  0.7315870000000  0.4982570000000 1.0
C      1  0.5779170000000  0.6173020000000  0.6996870000000 1.0
C      1  0.6287260000000  0.6405880000000  0.6225060000000 1.0
C      1  0.6287270000000  0.4642010000000  0.6830070000000 1.0
C      1  0.6287260000000  0.3236120000000  0.5605000000000 1.0
C      1  0.6287260000000  0.3594120000000  0.3774940000000 1.0
C      1  0.6287270000000  0.5357990000000  0.3169930000000 1.0
C      1  0.6287260000000  0.6763880000000  0.4395000000000 1.0
C      1  0.3494990000000  0.4412500000000  0.3287010000000 1.0
C      1  0.3495000000000  0.6189680000000  0.3634680000000 1.0
C      1  0.3494990000000  0.6777270000000  0.5347630000000 1.0
C      1  0.3494990000000  0.5587500000000  0.6712990000000 1.0
C      1  0.3495000000000  0.3810320000000  0.6365320000000 1.0
C      1  0.3494990000000  0.3222730000000  0.4652370000000 1.0
C      1  0.5779170000000  0.2861420000000  0.4111200000000 1.0
C      1  0.5779170000000  0.4700430000000  0.2703530000000 1.0
C      1  0.5779170000000  0.6839000000000  0.3592340000000 1.0
C      1  0.5779170000000  0.7138580000000  0.5888800000000 1.0
C      1  0.5779170000000  0.5299570000000  0.7296470000000 1.0
C      1  0.5779170000000  0.3161000000000  0.6407660000000 1.0
C      1  0.4256670000000  0.6506630000000  0.3270980000000 1.0
C      1  0.4256670000000  0.7250720000000  0.5440270000000 1.0
C      1  0.4256670000000  0.5744050000000  0.7169320000000 1.0
C      1  0.4256670000000  0.3493370000000  0.6729020000000 1.0
C      1  0.4256670000000  0.2749280000000  0.4559730000000 1.0
C      1  0.4256670000000  0.4255950000000  0.2830680000000 1.0
C      1  0.6649600000000  0.4814360000000  0.5949010000000 1.0
C      1  0.6649600000000  0.4085310000000  0.5313730000000 1.0
C      1  0.6649600000000  0.4270960000000  0.4364720000000 1.0
C      1  0.6649600000000  0.5185640000000  0.4050990000000 1.0
C      1  0.6649600000000  0.5914690000000  0.4686270000000 1.0
C      1  0.6649600000000  0.5729040000000  0.5635280000000 1.0
C      1  0.4868120000000  0.6509710000000  0.6945280000000 1.0
C      1  0.4868130000000  0.4070190000000  0.7280100000000 1.0
C      1  0.4868130000000  0.2560460000000  0.5334810000000 1.0
C      1  0.4868120000000  0.3490290000000  0.3054720000000 1.0
C      1  0.4868130000000  0.5929810000000  0.2719900000000 1.0
C      1  0.4868130000000  0.7439540000000  0.4665190000000 1.0
C      1  0.4983110000000  0.4123890000000  0.4828630000000 1.0
C      1  0.4983110000000  0.4710350000000  0.4155580000000 1.0
C      1  0.4983100000000  0.5586460000000  0.4326950000000 1.0
C      1  0.4983110000000  0.5876110000000  0.5171370000000 1.0
C      1  0.4983110000000  0.5289650000000  0.5844420000000 1.0
C      1  0.4983100000000  0.4413540000000  0.5673050000000 1.0
C      1  0.3033780000000  0.5661700000000  0.4240630000000 1.0
C      1  0.3033780000000  0.5988500000000  0.5193370000000 1.0
C      1  0.3033780000000  0.5326790000000  0.5952750000000 1.0
C      1  0.3033780000000  0.4338300000000  0.5759370000000 1.0
C      1  0.3033780000000  0.4011500000000  0.4806630000000 1.0
C      1  0.3033780000000  0.4673210000000  0.4047250000000 1.0
END
