TITL C-2159255-4746-1197 -0.00142919510572917 3375 -382.718317097715 0 0 60 (C6) n - 1
REM
REM in /scratch/bkarasulu/871
REM
REM
REM
REM
REM
REM ./C.cell (a2850807a9bf4ad07a5b6933b78d9264)
REM AIRSS Version 0.9.1 bugfix July 2018 build 013d7b7c2542+ Fri, 06 Jul 2018 19:26:36 +0100
REM compiler GCC version 9.2.1 20190827 (Red Hat 9.2.1-1)
REM options -cpp -mtune=generic -march=x86-64 -g -O0 -fpre-include=/usr/include/finclude/math-vector-fortran.h
REM seed 1354837088 -102439852 1351029259 -1939497320 -1273260646 -1944015272 -352671676 1843390117 -491562808 1748764025 1355132902 -739853837 -1325741300 -1612817087 -52900219 -624780469 1975882592 -110115481 2083181285 262478067 -515011691 1842335718 -1502638733 -420709584 431834105 -1722543401 1752790188 809303267 -1012040626 -92392315 -1748290752 1787041359 849980545
REM
CELL 1.54180   15.00000   15.00000   15.00000   90.00000   90.00000   90.00000
LATT -1
SFAC C  
C      1  0.5680250000000  0.3852310000000  0.6966770000000 1.0
C      1  0.5680250000000  0.6129410000000  0.6977330000000 1.0
C      1  0.5680250000000  0.7277110000000  0.5010560000000 1.0
C      1  0.5680250000000  0.6147690000000  0.3033230000000 1.0
C      1  0.5680250000000  0.3870590000000  0.3022670000000 1.0
C      1  0.5680250000000  0.2722890000000  0.4989440000000 1.0
C      1  0.4319750000000  0.3852310000000  0.3033230000000 1.0
C      1  0.4319750000000  0.6129410000000  0.3022670000000 1.0
C      1  0.4319750000000  0.7277110000000  0.4989440000000 1.0
C      1  0.4319750000000  0.6147690000000  0.6966770000000 1.0
C      1  0.4319750000000  0.3870590000000  0.6977330000000 1.0
C      1  0.4319750000000  0.2722890000000  0.5010560000000 1.0
C      1  0.6293470000000  0.4320070000000  0.6497890000000 1.0
C      1  0.6293470000000  0.5957230000000  0.6337790000000 1.0
C      1  0.6293470000000  0.6637170000000  0.4839900000000 1.0
C      1  0.6293470000000  0.5679930000000  0.3502110000000 1.0
C      1  0.6293470000000  0.4042770000000  0.3662210000000 1.0
C      1  0.6293470000000  0.3362830000000  0.5160100000000 1.0
C      1  0.3706530000000  0.4320070000000  0.3502110000000 1.0
C      1  0.3706530000000  0.5957230000000  0.3662210000000 1.0
C      1  0.3706530000000  0.6637170000000  0.5160100000000 1.0
C      1  0.3706530000000  0.5679930000000  0.6497890000000 1.0
C      1  0.3706530000000  0.4042770000000  0.6337790000000 1.0
C      1  0.3706530000000  0.3362830000000  0.4839900000000 1.0
C      1  0.4976750000000  0.6798310000000  0.6577440000000 1.0
C      1  0.4976750000000  0.7265250000000  0.4231330000000 1.0
C      1  0.4976750000000  0.5466940000000  0.2653880000000 1.0
C      1  0.4976750000000  0.3201690000000  0.3422560000000 1.0
C      1  0.4976750000000  0.2734750000000  0.5768670000000 1.0
C      1  0.4976750000000  0.4533060000000  0.7346120000000 1.0
C      1  0.5023250000000  0.6798310000000  0.3422560000000 1.0
C      1  0.5023250000000  0.7265250000000  0.5768670000000 1.0
C      1  0.5023250000000  0.5466940000000  0.7346120000000 1.0
C      1  0.5023250000000  0.3201690000000  0.6577440000000 1.0
C      1  0.5023250000000  0.2734750000000  0.4231330000000 1.0
C      1  0.5023250000000  0.4533060000000  0.2653880000000 1.0
C      1  0.4450550000000  0.4030460000000  0.4946040000000 1.0
C      1  0.4450570000000  0.4468490000000  0.5812680000000 1.0
C      1  0.4450560000000  0.5438040000000  0.5866640000000 1.0
C      1  0.4450550000000  0.5969540000000  0.5053960000000 1.0
C      1  0.4450570000000  0.5531510000000  0.4187320000000 1.0
C      1  0.4450560000000  0.4561960000000  0.4133360000000 1.0
C      1  0.5549450000000  0.4030460000000  0.5053960000000 1.0
C      1  0.5549430000000  0.4468490000000  0.4187320000000 1.0
C      1  0.5549440000000  0.5438040000000  0.4133360000000 1.0
C      1  0.5549450000000  0.5969540000000  0.4946040000000 1.0
C      1  0.5549430000000  0.5531510000000  0.5812680000000 1.0
C      1  0.5549440000000  0.4561960000000  0.5866640000000 1.0
C      1  0.3017520000000  0.5528000000000  0.4206240000000 1.0
C      1  0.3017520000000  0.4576590000000  0.4145850000000 1.0
C      1  0.3017530000000  0.4048590000000  0.4939620000000 1.0
C      1  0.3017520000000  0.4472000000000  0.5793760000000 1.0
C      1  0.3017520000000  0.5423410000000  0.5854150000000 1.0
C      1  0.3017530000000  0.5951410000000  0.5060380000000 1.0
C      1  0.6982480000000  0.5528000000000  0.5793760000000 1.0
C      1  0.6982480000000  0.4576590000000  0.5854150000000 1.0
C      1  0.6982470000000  0.4048590000000  0.5060380000000 1.0
C      1  0.6982480000000  0.4472000000000  0.4206240000000 1.0
C      1  0.6982480000000  0.5423410000000  0.4145850000000 1.0
C      1  0.6982470000000  0.5951410000000  0.4939620000000 1.0
END
