TITL C-2159255-4746-784 -0.00231564039652822 3375 -406.359048409289 0 0 60 (C5) n - 1
REM
REM in /scratch/bkarasulu/871
REM
REM
REM
REM
REM
REM ./C.cell (a2850807a9bf4ad07a5b6933b78d9264)
REM AIRSS Version 0.9.1 bugfix July 2018 build 013d7b7c2542+ Fri, 06 Jul 2018 19:26:36 +0100
REM compiler GCC version 9.2.1 20190827 (Red Hat 9.2.1-1)
REM options -cpp -mtune=generic -march=x86-64 -g -O0 -fpre-include=/usr/include/finclude/math-vector-fortran.h
REM seed 2108476253 591307242 -1585509464 -1158190246 471842126 -1236063999 1256383673 1571053436 1279423381 1171755323 497449385 987730839 1475974148 674055565 973601680 -1997700511 -478330857 -1471747271 -88320165 -1782461310 -1768013791 1925727920 -287535012 -210240069 825149515 -355022166 -1540248203 -1368395496 52717158 285992050 -780846455 -1971235029 166660146
REM
CELL 1.54180   15.00000   15.00000   15.00000   90.00000   90.00000   90.00000
LATT -1
SFAC C  
C      1  0.5827550000000  0.7502470000000  0.4812230000000 1.0
C      1  0.5433790000000  0.7502040000000  0.5728730000000 1.0
C      1  0.4440460000000  0.7502150000000  0.5637540000000 1.0
C      1  0.4220200000000  0.7502650000000  0.4664590000000 1.0
C      1  0.5077540000000  0.7502860000000  0.4154470000000 1.0
C      1  0.5458820000000  0.4689840000000  0.3331070000000 1.0
C      1  0.6729140000000  0.4689800000000  0.4920690000000 1.0
C      1  0.5609860000000  0.4689720000000  0.6620070000000 1.0
C      1  0.3647770000000  0.4689700000000  0.6080680000000 1.0
C      1  0.3554460000000  0.4689770000000  0.4047970000000 1.0
C      1  0.5211710000000  0.5029770000000  0.4253010000000 1.0
C      1  0.5775970000000  0.5029850000000  0.4970580000000 1.0
C      1  0.5267890000000  0.5029780000000  0.5728980000000 1.0
C      1  0.4389590000000  0.5029680000000  0.5480100000000 1.0
C      1  0.4354880000000  0.5029680000000  0.4567900000000 1.0
C      1  0.6847620000000  0.6207070000000  0.4543080000000 1.0
C      1  0.6005630000000  0.6206950000000  0.6616110000000 1.0
C      1  0.3773810000000  0.6206960000000  0.6455790000000 1.0
C      1  0.3236710000000  0.6207070000000  0.4283800000000 1.0
C      1  0.5136310000000  0.6207160000000  0.3101790000000 1.0
C      1  0.5854650000000  0.5586630000000  0.3279690000000 1.0
C      1  0.6900460000000  0.5586570000000  0.5281300000000 1.0
C      1  0.5319860000000  0.5586460000000  0.6894460000000 1.0
C      1  0.3297180000000  0.5586430000000  0.5889680000000 1.0
C      1  0.3627860000000  0.5586530000000  0.3655620000000 1.0
C      1  0.6699520000000  0.5644490000000  0.6207540000000 1.0
C      1  0.4376840000000  0.5644500000000  0.6989500000000 1.0
C      1  0.2915420000000  0.5644560000000  0.5022190000000 1.0
C      1  0.4334830000000  0.5644630000000  0.3024400000000 1.0
C      1  0.6673500000000  0.5644580000000  0.3756940000000 1.0
C      1  0.4152190000000  0.3324560000000  0.5260150000000 1.0
C      1  0.4490650000000  0.3324590000000  0.4274090000000 1.0
C      1  0.5533020000000  0.3324620000000  0.4291280000000 1.0
C      1  0.5838790000000  0.3324600000000  0.5287950000000 1.0
C      1  0.4985390000000  0.3324560000000  0.5886750000000 1.0
C      1  0.5036480000000  0.3893060000000  0.6752480000000 1.0
C      1  0.3344620000000  0.3893050000000  0.5576270000000 1.0
C      1  0.3940480000000  0.3893120000000  0.3603750000000 1.0
C      1  0.6000550000000  0.3893160000000  0.3560910000000 1.0
C      1  0.6677920000000  0.3893110000000  0.5506900000000 1.0
C      1  0.5482080000000  0.2282580000000  0.4316050000000 1.0
C      1  0.5799480000000  0.2282550000000  0.5247130000000 1.0
C      1  0.5012050000000  0.2282510000000  0.5836700000000 1.0
C      1  0.4208010000000  0.2282500000000  0.5270000000000 1.0
C      1  0.4498510000000  0.2282550000000  0.4330200000000 1.0
C      1  0.5148210000000  0.7085980000000  0.3338170000000 1.0
C      1  0.6625820000000  0.7085680000000  0.4627200000000 1.0
C      1  0.5856650000000  0.7085400000000  0.6430790000000 1.0
C      1  0.3903500000000  0.7085490000000  0.6256690000000 1.0
C      1  0.3465570000000  0.7085820000000  0.4345240000000 1.0
C      1  0.2521440000000  0.4015570000000  0.5155510000000 1.0
C      1  0.4086300000000  0.4015640000000  0.2690840000000 1.0
C      1  0.6913860000000  0.4015580000000  0.3417490000000 1.0
C      1  0.7096580000000  0.4015490000000  0.6331170000000 1.0
C      1  0.4381940000000  0.4015510000000  0.7405380000000 1.0
C      1  0.2828940000000  0.4738470000000  0.4689680000000 1.0
C      1  0.4624340000000  0.4738550000000  0.2839360000000 1.0
C      1  0.6938880000000  0.4738510000000  0.3975090000000 1.0
C      1  0.6574000000000  0.4738410000000  0.6527310000000 1.0
C      1  0.4033910000000  0.4738410000000  0.6968980000000 1.0
END
