TITL C-2158988-7926-523 -0.00238576639786851 3375 -415.166530803632 0 0 60 (C1) n - 1
REM
REM in /scratch/bkarasulu/868
REM
REM
REM
REM
REM
REM ./C.cell (a2850807a9bf4ad07a5b6933b78d9264)
REM AIRSS Version 0.9.1 bugfix July 2018 build 013d7b7c2542+ Fri, 06 Jul 2018 19:26:36 +0100
REM compiler GCC version 9.2.1 20190827 (Red Hat 9.2.1-1)
REM options -cpp -mtune=generic -march=x86-64 -g -O0 -fpre-include=/usr/include/finclude/math-vector-fortran.h
REM seed -1399730093 19976744 -1789200020 1030741329 -305629783 1012477446 1234376829 -1521240929 1109483485 -1819154434 622330544 1498637443 1777958446 198578389 -404309794 1102545987 568436169 1308920133 -1987005447 359510792 1319397784 -1906123137 164292966 -1135071822 -479645788 -1818100570 -426124255 -1320860420 896237473 1880469977 -340548813 1482847662 -1156136954
REM
CELL 1.54180   15.00000   15.00000   15.00000   90.00000   90.00000   90.00000
LATT -1
SFAC C  
C      1  0.5647440000000  0.3230040000000  0.6402710000000 1.0
C      1  0.6233730000000  0.6433980000000  0.6438570000000 1.0
C      1  0.3201730000000  0.5418040000000  0.6308670000000 1.0
C      1  0.6395460000000  0.3927490000000  0.6569840000000 1.0
C      1  0.5250790000000  0.6732150000000  0.6579090000000 1.0
C      1  0.3673560000000  0.4580560000000  0.5950160000000 1.0
C      1  0.6011460000000  0.2682610000000  0.4950340000000 1.0
C      1  0.6529190000000  0.7049860000000  0.4967620000000 1.0
C      1  0.2474850000000  0.5338240000000  0.4890870000000 1.0
C      1  0.7389040000000  0.4798070000000  0.3882750000000 1.0
C      1  0.3624920000000  0.7261400000000  0.3929660000000 1.0
C      1  0.3641060000000  0.2917910000000  0.3700680000000 1.0
C      1  0.2778830000000  0.3813420000000  0.4873160000000 1.0
C      1  0.7084230000000  0.3815190000000  0.4982270000000 1.0
C      1  0.4991020000000  0.7402340000000  0.4968890000000 1.0
C      1  0.5853530000000  0.3479010000000  0.3635460000000 1.0
C      1  0.5890310000000  0.6551310000000  0.3645770000000 1.0
C      1  0.3177790000000  0.4766130000000  0.3712890000000 1.0
C      1  0.3672600000000  0.3409700000000  0.4574080000000 1.0
C      1  0.7353590000000  0.4732760000000  0.4799610000000 1.0
C      1  0.4061870000000  0.7183250000000  0.4798790000000 1.0
C      1  0.3389300000000  0.5722630000000  0.4747660000000 1.0
C      1  0.5109790000000  0.2662590000000  0.4699490000000 1.0
C      1  0.7058490000000  0.6308060000000  0.4719530000000 1.0
C      1  0.7140950000000  0.5547760000000  0.5327150000000 1.0
C      1  0.3646620000000  0.6504900000000  0.5313000000000 1.0
C      1  0.4409780000000  0.3032130000000  0.5206630000000 1.0
C      1  0.3303500000000  0.6616300000000  0.3478800000000 1.0
C      1  0.4372320000000  0.2704600000000  0.3308480000000 1.0
C      1  0.6851780000000  0.5341620000000  0.3392710000000 1.0
C      1  0.5752820000000  0.7163710000000  0.4395750000000 1.0
C      1  0.2502400000000  0.4560310000000  0.4321020000000 1.0
C      1  0.6491820000000  0.3282400000000  0.4379780000000 1.0
C      1  0.6252760000000  0.2774920000000  0.5826470000000 1.0
C      1  0.6300330000000  0.7166220000000  0.5837850000000 1.0
C      1  0.2435730000000  0.5115810000000  0.5807740000000 1.0
C      1  0.4716790000000  0.4534170000000  0.7194020000000 1.0
C      1  0.5549310000000  0.4996410000000  0.7275020000000 1.0
C      1  0.4734570000000  0.5462810000000  0.7267340000000 1.0
C      1  0.5976570000000  0.5112190000000  0.3037440000000 1.0
C      1  0.4475890000000  0.5461930000000  0.3330640000000 1.0
C      1  0.4614190000000  0.4537700000000  0.3421520000000 1.0
C      1  0.6771990000000  0.6178520000000  0.3808690000000 1.0
C      1  0.3585620000000  0.5702300000000  0.3688120000000 1.0
C      1  0.5143260000000  0.2864250000000  0.3775030000000 1.0
C      1  0.4266960000000  0.4044540000000  0.6520090000000 1.0
C      1  0.6339150000000  0.4856470000000  0.6748490000000 1.0
C      1  0.4483780000000  0.6235460000000  0.6779230000000 1.0
C      1  0.4018480000000  0.4933510000000  0.4986820000000 1.0
C      1  0.5575550000000  0.5021510000000  0.5138750000000 1.0
C      1  0.4834800000000  0.5371480000000  0.5189600000000 1.0
C      1  0.4701010000000  0.3331330000000  0.6081910000000 1.0
C      1  0.6685510000000  0.5595610000000  0.6209760000000 1.0
C      1  0.3697650000000  0.6212160000000  0.6211370000000 1.0
C      1  0.2766730000000  0.4196830000000  0.5722290000000 1.0
C      1  0.6918670000000  0.3500170000000  0.5876030000000 1.0
C      1  0.5343220000000  0.7364850000000  0.5860820000000 1.0
C      1  0.5527440000000  0.4282980000000  0.3224770000000 1.0
C      1  0.5354610000000  0.5862450000000  0.3175250000000 1.0
C      1  0.3962870000000  0.4312940000000  0.4153050000000 1.0
END
