TITL C-2159255-4746-1124 -0.00307242102368515 3375 -422.45136097342 0 0 60 (C1) n - 1
REM
REM in /scratch/bkarasulu/871
REM
REM
REM
REM
REM
REM ./C.cell (a2850807a9bf4ad07a5b6933b78d9264)
REM AIRSS Version 0.9.1 bugfix July 2018 build 013d7b7c2542+ Fri, 06 Jul 2018 19:26:36 +0100
REM compiler GCC version 9.2.1 20190827 (Red Hat 9.2.1-1)
REM options -cpp -mtune=generic -march=x86-64 -g -O0 -fpre-include=/usr/include/finclude/math-vector-fortran.h
REM seed 310931643 -1835077580 1986321570 -1517137827 782825535 -432163395 1586927370 -1255678255 720409172 -1988812760 1704588839 1820024913 162719535 -345680315 -475833999 -828262728 -911054657 1791887216 1243080941 284279383 1631841528 646575303 1850122461 1463977045 -1422997733 -251213774 -1612174363 -136109063 316733312 -1269839832 -1455266227 -78164643 1964094830
REM
CELL 1.54180   15.00000   15.00000   15.00000   90.00000   90.00000   90.00000
LATT -1
SFAC C  
C      1  0.4625170000000  0.2753620000000  0.4353590000000 1.0
C      1  0.4641500000000  0.3797000000000  0.2957930000000 1.0
C      1  0.4674120000000  0.4698050000000  0.2648270000000 1.0
C      1  0.4758550000000  0.6384490000000  0.3059820000000 1.0
C      1  0.4338280000000  0.7339050000000  0.4098310000000 1.0
C      1  0.4513910000000  0.7417120000000  0.5010900000000 1.0
C      1  0.4636310000000  0.6801080000000  0.6609640000000 1.0
C      1  0.4659980000000  0.6051880000000  0.7197270000000 1.0
C      1  0.4661350000000  0.4298150000000  0.7304640000000 1.0
C      1  0.4653700000000  0.3473850000000  0.6837190000000 1.0
C      1  0.4626570000000  0.2673380000000  0.5297490000000 1.0
C      1  0.6216260000000  0.6802060000000  0.6569200000000 1.0
C      1  0.6239240000000  0.6058480000000  0.7164340000000 1.0
C      1  0.6244920000000  0.4295920000000  0.7276220000000 1.0
C      1  0.6240460000000  0.3471860000000  0.6825250000000 1.0
C      1  0.6211780000000  0.2625300000000  0.5286810000000 1.0
C      1  0.6208010000000  0.2684710000000  0.4350090000000 1.0
C      1  0.6234390000000  0.3718880000000  0.2924030000000 1.0
C      1  0.6269140000000  0.4617580000000  0.2619090000000 1.0
C      1  0.6279440000000  0.6340530000000  0.3294120000000 1.0
C      1  0.5930830000000  0.7062750000000  0.3812700000000 1.0
C      1  0.6130010000000  0.7153490000000  0.4735040000000 1.0
C      1  0.6913890000000  0.3804500000000  0.6152220000000 1.0
C      1  0.6907220000000  0.3352290000000  0.5363250000000 1.0
C      1  0.6909110000000  0.3403780000000  0.4370990000000 1.0
C      1  0.6924500000000  0.3934350000000  0.3626440000000 1.0
C      1  0.6921910000000  0.4861070000000  0.3287220000000 1.0
C      1  0.6936640000000  0.5728800000000  0.3656470000000 1.0
C      1  0.7215850000000  0.5940440000000  0.4497680000000 1.0
C      1  0.6844140000000  0.6547320000000  0.5062000000000 1.0
C      1  0.6858770000000  0.6388020000000  0.5982370000000 1.0
C      1  0.6909610000000  0.5594950000000  0.6574150000000 1.0
C      1  0.6913110000000  0.4677550000000  0.6631000000000 1.0
C      1  0.5414770000000  0.2703140000000  0.3843240000000 1.0
C      1  0.5423330000000  0.3279690000000  0.3080850000000 1.0
C      1  0.5502430000000  0.5118160000000  0.2447840000000 1.0
C      1  0.5557070000000  0.5990900000000  0.2774070000000 1.0
C      1  0.5019920000000  0.7169810000000  0.3524200000000 1.0
C      1  0.5406920000000  0.7400480000000  0.5331560000000 1.0
C      1  0.5427680000000  0.7189810000000  0.6257640000000 1.0
C      1  0.5461540000000  0.5671710000000  0.7504750000000 1.0
C      1  0.5460090000000  0.4717970000000  0.7573060000000 1.0
C      1  0.5446130000000  0.3010710000000  0.6629930000000 1.0
C      1  0.5425680000000  0.2559870000000  0.5789780000000 1.0
C      1  0.3825150000000  0.6702220000000  0.5221610000000 1.0
C      1  0.3894170000000  0.6390450000000  0.6083070000000 1.0
C      1  0.3933800000000  0.5589970000000  0.6690070000000 1.0
C      1  0.3931310000000  0.4664370000000  0.6739530000000 1.0
C      1  0.3924040000000  0.3773710000000  0.6230190000000 1.0
C      1  0.3908790000000  0.3351970000000  0.5399880000000 1.0
C      1  0.3918330000000  0.3448940000000  0.4362720000000 1.0
C      1  0.3935290000000  0.4023060000000  0.3623240000000 1.0
C      1  0.3985610000000  0.4990780000000  0.3290300000000 1.0
C      1  0.4005590000000  0.5914500000000  0.3507800000000 1.0
C      1  0.3752550000000  0.6532150000000  0.4230540000000 1.0
C      1  0.5493130000000  0.4959950000000  0.5008720000000 1.0
C      1  0.2183890000000  0.4951160000000  0.4788010000000 1.0
C      1  0.2987790000000  0.4994630000000  0.5035760000000 1.0
C      1  0.4670590000000  0.4972640000000  0.5028230000000 1.0
C      1  0.3817480000000  0.5002260000000  0.5023990000000 1.0
END
