TITL C-2159252-5904-489 -0.00185329800660934 3375 -396.372546346572 0 0 60 (S4) n - 1
REM
REM in /scratch/bkarasulu/870
REM
REM
REM
REM
REM
REM ./C.cell (a2850807a9bf4ad07a5b6933b78d9264)
REM AIRSS Version 0.9.1 bugfix July 2018 build 013d7b7c2542+ Fri, 06 Jul 2018 19:26:36 +0100
REM compiler GCC version 9.2.1 20190827 (Red Hat 9.2.1-1)
REM options -cpp -mtune=generic -march=x86-64 -g -O0 -fpre-include=/usr/include/finclude/math-vector-fortran.h
REM seed -254061041 -1864979816 -133185258 -216264484 1295130840 655922424 -683022245 -2036531426 -483530399 77217343 -1632565208 -96320747 -159790468 -1974761324 1047232406 1100595228 -355758359 8641614 1420449925 -2110949846 -2009172793 2123185963 899485876 -1344228818 -1088513052 1836306044 -1882076536 -1290075974 149933897 -784882933 2003767590 1204250744 1617928944
REM
CELL 1.54180   15.00000   15.00000   15.00000   90.00000   90.00000   90.00000
LATT -1
SFAC C  
C      1  0.4346210000000  0.5510600000000  0.5182160000000 1.0
C      1  0.5653790000000  0.5182160000000  0.4489400000000 1.0
C      1  0.4346210000000  0.4489400000000  0.4817840000000 1.0
C      1  0.5653790000000  0.4817840000000  0.5510600000000 1.0
C      1  0.2834400000000  0.4586250000000  0.5724590000000 1.0
C      1  0.7165600000000  0.5724590000000  0.5413750000000 1.0
C      1  0.2834400000000  0.5413750000000  0.4275410000000 1.0
C      1  0.7165600000000  0.4275410000000  0.4586250000000 1.0
C      1  0.5116020000000  0.3219330000000  0.3026460000000 1.0
C      1  0.4883980000000  0.3026460000000  0.6780670000000 1.0
C      1  0.5116020000000  0.6780670000000  0.6973540000000 1.0
C      1  0.4883980000000  0.6973540000000  0.3219330000000 1.0
C      1  0.6234840000000  0.3180120000000  0.5213670000000 1.0
C      1  0.3765160000000  0.5213670000000  0.6819880000000 1.0
C      1  0.6234840000000  0.6819880000000  0.4786330000000 1.0
C      1  0.3765160000000  0.4786330000000  0.3180120000000 1.0
C      1  0.4190890000000  0.5533470000000  0.2914270000000 1.0
C      1  0.5809110000000  0.2914270000000  0.4466530000000 1.0
C      1  0.4190890000000  0.4466530000000  0.7085730000000 1.0
C      1  0.5809110000000  0.7085730000000  0.5533470000000 1.0
C      1  0.5900940000000  0.3173870000000  0.3586560000000 1.0
C      1  0.4099060000000  0.3586560000000  0.6826130000000 1.0
C      1  0.5900940000000  0.6826130000000  0.6413440000000 1.0
C      1  0.4099060000000  0.6413440000000  0.3173870000000 1.0
C      1  0.4621230000000  0.7244830000000  0.4118620000000 1.0
C      1  0.5378770000000  0.4118620000000  0.2755170000000 1.0
C      1  0.4621230000000  0.2755170000000  0.5881380000000 1.0
C      1  0.5378770000000  0.5881380000000  0.7244830000000 1.0
C      1  0.4318990000000  0.7064170000000  0.6634390000000 1.0
C      1  0.5681010000000  0.6634390000000  0.2935830000000 1.0
C      1  0.4318990000000  0.2935830000000  0.3365610000000 1.0
C      1  0.5681010000000  0.3365610000000  0.7064170000000 1.0
C      1  0.6246710000000  0.4022670000000  0.3265940000000 1.0
C      1  0.3753290000000  0.3265940000000  0.5977330000000 1.0
C      1  0.6246710000000  0.5977330000000  0.6734060000000 1.0
C      1  0.3753290000000  0.6734060000000  0.4022670000000 1.0
C      1  0.6822650000000  0.6078600000000  0.4665570000000 1.0
C      1  0.3177350000000  0.4665570000000  0.3921400000000 1.0
C      1  0.6822650000000  0.3921400000000  0.5334430000000 1.0
C      1  0.3177350000000  0.5334430000000  0.6078600000000 1.0
C      1  0.3504600000000  0.3904070000000  0.4506930000000 1.0
C      1  0.6495400000000  0.4506930000000  0.6095930000000 1.0
C      1  0.3504600000000  0.6095930000000  0.5493070000000 1.0
C      1  0.6495400000000  0.5493070000000  0.3904070000000 1.0
C      1  0.6175650000000  0.4009070000000  0.6848620000000 1.0
C      1  0.3824350000000  0.6848620000000  0.5990930000000 1.0
C      1  0.6175650000000  0.5990930000000  0.3151380000000 1.0
C      1  0.3824350000000  0.3151380000000  0.4009070000000 1.0
C      1  0.5243640000000  0.3158930000000  0.5258970000000 1.0
C      1  0.4756360000000  0.5258970000000  0.6841070000000 1.0
C      1  0.5243640000000  0.6841070000000  0.4741030000000 1.0
C      1  0.4756360000000  0.4741030000000  0.3158930000000 1.0
C      1  0.6829890000000  0.5444370000000  0.6216650000000 1.0
C      1  0.3170110000000  0.6216650000000  0.4555630000000 1.0
C      1  0.6829890000000  0.4555630000000  0.3783350000000 1.0
C      1  0.3170110000000  0.3783350000000  0.5444370000000 1.0
C      1  0.4961560000000  0.4105810000000  0.5482850000000 1.0
C      1  0.5038440000000  0.5482850000000  0.5894190000000 1.0
C      1  0.4961560000000  0.5894190000000  0.4517150000000 1.0
C      1  0.5038440000000  0.4517150000000  0.4105810000000 1.0
END
