TITL C-2159252-5904-479 -0.00193049904740225 3375 -403.648723043314 0 0 60 (C2) n - 1
REM
REM in /scratch/bkarasulu/870
REM
REM
REM
REM
REM
REM ./C.cell (a2850807a9bf4ad07a5b6933b78d9264)
REM AIRSS Version 0.9.1 bugfix July 2018 build 013d7b7c2542+ Fri, 06 Jul 2018 19:26:36 +0100
REM compiler GCC version 9.2.1 20190827 (Red Hat 9.2.1-1)
REM options -cpp -mtune=generic -march=x86-64 -g -O0 -fpre-include=/usr/include/finclude/math-vector-fortran.h
REM seed 487877177 -984285380 -916902798 2085185211 1469760452 -1313272944 1126970037 -1451889539 592806813 -1064234847 -1362171435 -806541564 -795447383 -1060935217 -1547834374 979633135 327142252 1732562867 -2114484285 -2098230508 -237452056 -1854820123 1504314796 1428980778 1580022723 -2054627693 568514281 117024879 -2111943426 -1956176768 -1251573172 858085814 1439256806
REM
CELL 1.54180   15.00000   15.00000   15.00000   90.00000   90.00000   90.00000
LATT -1
SFAC C  
C      1  0.6749410000000  0.5039860000000  0.3337860000000 1.0
C      1  0.3250590000000  0.5039860000000  0.6662140000000 1.0
C      1  0.3289120000000  0.6279560000000  0.4450660000000 1.0
C      1  0.6710880000000  0.6279560000000  0.5549340000000 1.0
C      1  0.6360630000000  0.3687520000000  0.6275980000000 1.0
C      1  0.3639370000000  0.3687520000000  0.3724020000000 1.0
C      1  0.5354190000000  0.7061830000000  0.4650080000000 1.0
C      1  0.4645810000000  0.7061830000000  0.5349920000000 1.0
C      1  0.6128650000000  0.5715110000000  0.3632350000000 1.0
C      1  0.3871350000000  0.5715110000000  0.6367650000000 1.0
C      1  0.5511690000000  0.5153960000000  0.5702840000000 1.0
C      1  0.4488310000000  0.5153960000000  0.4297160000000 1.0
C      1  0.5762760000000  0.4457460000000  0.7590400000000 1.0
C      1  0.4237240000000  0.4457460000000  0.2409600000000 1.0
C      1  0.4912940000000  0.4950410000000  0.7523480000000 1.0
C      1  0.5087060000000  0.4950410000000  0.2476520000000 1.0
C      1  0.4611070000000  0.5023290000000  0.5914710000000 1.0
C      1  0.5388930000000  0.5023290000000  0.4085290000000 1.0
C      1  0.2912120000000  0.5648610000000  0.5091120000000 1.0
C      1  0.7087880000000  0.5648610000000  0.4908880000000 1.0
C      1  0.5175370000000  0.6996110000000  0.3730270000000 1.0
C      1  0.4824630000000  0.6996110000000  0.6269730000000 1.0
C      1  0.4466570000000  0.3801890000000  0.3103280000000 1.0
C      1  0.5533430000000  0.3801890000000  0.6896720000000 1.0
C      1  0.4203640000000  0.4643570000000  0.5083000000000 1.0
C      1  0.5796360000000  0.4643570000000  0.4917000000000 1.0
C      1  0.6689520000000  0.6182440000000  0.4236480000000 1.0
C      1  0.3310480000000  0.6182440000000  0.5763520000000 1.0
C      1  0.3074760000000  0.4324180000000  0.4085820000000 1.0
C      1  0.6925240000000  0.4324180000000  0.5914180000000 1.0
C      1  0.4626720000000  0.4400660000000  0.6751910000000 1.0
C      1  0.5373280000000  0.4400660000000  0.3248090000000 1.0
C      1  0.3967560000000  0.5913740000000  0.2822610000000 1.0
C      1  0.6032440000000  0.5913740000000  0.7177390000000 1.0
C      1  0.5490560000000  0.6341510000000  0.3173800000000 1.0
C      1  0.4509440000000  0.6341510000000  0.6826200000000 1.0
C      1  0.6257560000000  0.6788930000000  0.4845200000000 1.0
C      1  0.3742440000000  0.6788930000000  0.5154800000000 1.0
C      1  0.3746480000000  0.5752600000000  0.3807010000000 1.0
C      1  0.6253520000000  0.5752600000000  0.6192990000000 1.0
C      1  0.6460630000000  0.5054070000000  0.7388690000000 1.0
C      1  0.3539370000000  0.5054070000000  0.2611310000000 1.0
C      1  0.6885360000000  0.5000650000000  0.6539390000000 1.0
C      1  0.3114640000000  0.5000650000000  0.3460610000000 1.0
C      1  0.5109350000000  0.5873120000000  0.7378350000000 1.0
C      1  0.4890660000000  0.5873120000000  0.2621650000000 1.0
C      1  0.5136640000000  0.3025520000000  0.6405790000000 1.0
C      1  0.4863360000000  0.3025520000000  0.3594210000000 1.0
C      1  0.3120300000000  0.4384580000000  0.6077170000000 1.0
C      1  0.6879700000000  0.4384580000000  0.3922830000000 1.0
C      1  0.4485700000000  0.3597800000000  0.5064800000000 1.0
C      1  0.5514300000000  0.3597800000000  0.4935200000000 1.0
C      1  0.6799510000000  0.4689970000000  0.4916380000000 1.0
C      1  0.3200490000000  0.4689970000000  0.5083620000000 1.0
C      1  0.4291340000000  0.3233560000000  0.6004780000000 1.0
C      1  0.5708660000000  0.3233560000000  0.3995220000000 1.0
C      1  0.4162960000000  0.3114570000000  0.4254380000000 1.0
C      1  0.5837040000000  0.3114570000000  0.5745620000000 1.0
C      1  0.6200380000000  0.3862910000000  0.3488030000000 1.0
C      1  0.3799620000000  0.3862910000000  0.6511970000000 1.0
END
