TITL C-2158984-8299-788 -0.00211771208779735 3375 -388.920846327157 0 0 60 (S10) n - 1
REM
REM in /scratch/bkarasulu/869
REM
REM
REM
REM
REM
REM ./C.cell (a2850807a9bf4ad07a5b6933b78d9264)
REM AIRSS Version 0.9.1 bugfix July 2018 build 013d7b7c2542+ Fri, 06 Jul 2018 19:26:36 +0100
REM compiler GCC version 9.2.1 20190827 (Red Hat 9.2.1-1)
REM options -cpp -mtune=generic -march=x86-64 -g -O0 -fpre-include=/usr/include/finclude/math-vector-fortran.h
REM seed 1365968399 1295184113 554122325 -928427053 380058876 -1518003072 1148839904 -903526366 -1329193962 -1646818348 173705335 670972035 2090342772 561432586 379263226 -36816033 -1747277487 457446139 -1050224478 -342823471 -80438117 -799492577 411478242 -76076491 -481598420 1823445584 -949711752 477577435 -1193895233 -2111140657 654834534 2053124736 1943850289
REM
CELL 1.54180   15.00000   15.00000   15.00000   90.00000   90.00000   90.00000
LATT -1
SFAC C  
C      1  0.6237040000000  0.6190860000000  0.6573370000000 1.0
C      1  0.5300800000000  0.6690520000000  0.3426620000000 1.0
C      1  0.4249730000000  0.6544520000000  0.6573360000000 1.0
C      1  0.3485150000000  0.5808470000000  0.3426630000000 1.0
C      1  0.3299240000000  0.4763730000000  0.6573370000000 1.0
C      1  0.3762960000000  0.3809140000000  0.3426630000000 1.0
C      1  0.4699200000000  0.3309480000000  0.6573380000000 1.0
C      1  0.5750270000000  0.3455480000000  0.3426640000000 1.0
C      1  0.6514850000000  0.4191530000000  0.6573370000000 1.0
C      1  0.6700760000000  0.5236270000000  0.3426630000000 1.0
C      1  0.7236550000000  0.5680120000000  0.5254240000000 1.0
C      1  0.6409630000000  0.6864820000000  0.4745740000000 1.0
C      1  0.5044300000000  0.7337240000000  0.5254230000000 1.0
C      1  0.3662050000000  0.6916890000000  0.4745740000000 1.0
C      1  0.2790840000000  0.5764370000000  0.5254250000000 1.0
C      1  0.2763450000000  0.4319880000000  0.4745760000000 1.0
C      1  0.3590370000000  0.3135180000000  0.5254260000000 1.0
C      1  0.4955700000000  0.2662760000000  0.4745770000000 1.0
C      1  0.6337950000000  0.3083110000000  0.5254260000000 1.0
C      1  0.7209160000000  0.4235630000000  0.4745750000000 1.0
C      1  0.3594110000000  0.6723970000000  0.6076520000000 1.0
C      1  0.2849260000000  0.5568350000000  0.3923490000000 1.0
C      1  0.2925950000000  0.4195670000000  0.6076520000000 1.0
C      1  0.3794850000000  0.3130170000000  0.3923500000000 1.0
C      1  0.5124060000000  0.2778910000000  0.6076520000000 1.0
C      1  0.6405890000000  0.3276030000000  0.3923480000000 1.0
C      1  0.7150740000000  0.4431650000000  0.6076510000000 1.0
C      1  0.7074050000000  0.5804330000000  0.3923480000000 1.0
C      1  0.6205150000000  0.6869830000000  0.6076500000000 1.0
C      1  0.4875940000000  0.7221090000000  0.3923480000000 1.0
C      1  0.7640290000000  0.4781150000000  0.5401820000000 1.0
C      1  0.7264670000000  0.6374840000000  0.4598150000000 1.0
C      1  0.6024030000000  0.7443410000000  0.5401820000000 1.0
C      1  0.4392250000000  0.7578680000000  0.4598160000000 1.0
C      1  0.2992620000000  0.6728960000000  0.5401840000000 1.0
C      1  0.2359710000000  0.5218850000000  0.4598180000000 1.0
C      1  0.2735330000000  0.3625160000000  0.5401850000000 1.0
C      1  0.3975970000000  0.2556590000000  0.4598180000000 1.0
C      1  0.5607750000000  0.2421320000000  0.5401840000000 1.0
C      1  0.7007380000000  0.3271040000000  0.4598160000000 1.0
C      1  0.5756040000000  0.6125860000000  0.4736370000000 1.0
C      1  0.4949880000000  0.6355240000000  0.5263610000000 1.0
C      1  0.4162860000000  0.6066950000000  0.4736370000000 1.0
C      1  0.3695600000000  0.5371120000000  0.5263620000000 1.0
C      1  0.3726570000000  0.4533540000000  0.4736380000000 1.0
C      1  0.4243960000000  0.3874140000000  0.5263630000000 1.0
C      1  0.5050120000000  0.3644760000000  0.4736390000000 1.0
C      1  0.5837140000000  0.3933050000000  0.5263630000000 1.0
C      1  0.6304400000000  0.4628880000000  0.4736380000000 1.0
C      1  0.6273430000000  0.5466460000000  0.5263620000000 1.0
C      1  0.4377180000000  0.5585270000000  0.3817380000000 1.0
C      1  0.4152120000000  0.5107420000000  0.6182620000000 1.0
C      1  0.4250900000000  0.4588520000000  0.3817380000000 1.0
C      1  0.4635830000000  0.4226810000000  0.6182620000000 1.0
C      1  0.5159850000000  0.4160420000000  0.3817390000000 1.0
C      1  0.5622820000000  0.4414730000000  0.6182620000000 1.0
C      1  0.5847880000000  0.4892580000000  0.3817380000000 1.0
C      1  0.5749100000000  0.5411480000000  0.6182620000000 1.0
C      1  0.5364170000000  0.5773190000000  0.3817380000000 1.0
C      1  0.4840150000000  0.5839580000000  0.6182610000000 1.0
END
