TITL C-2159255-4746-878 -0.00225633477136061 3375 -423.000105339622 0 0 60 (C1) n - 1
REM
REM in /scratch/bkarasulu/871
REM
REM
REM
REM
REM
REM ./C.cell (a2850807a9bf4ad07a5b6933b78d9264)
REM AIRSS Version 0.9.1 bugfix July 2018 build 013d7b7c2542+ Fri, 06 Jul 2018 19:26:36 +0100
REM compiler GCC version 9.2.1 20190827 (Red Hat 9.2.1-1)
REM options -cpp -mtune=generic -march=x86-64 -g -O0 -fpre-include=/usr/include/finclude/math-vector-fortran.h
REM seed 1715444468 715915965 -2117576247 -615332952 1231817674 -1821982298 455570996 1568151903 -216906748 -93391771 -788270353 530206162 688629588 -1520652664 1852078752 178746387 -82395986 -1479216776 -727706730 -565921520 -999258248 340899983 -1763627706 -211273482 -1312475382 -1278649995 -995885645 1222317285 -1802843770 70729372 1389476815 2104882975 -1747720748
REM
CELL 1.54180   15.00000   15.00000   15.00000   90.00000   90.00000   90.00000
LATT -1
SFAC C  
C      1  0.5966990000000  0.5742570000000  0.5799930000000 1.0
C      1  0.3746050000000  0.6372130000000  0.3516080000000 1.0
C      1  0.5090730000000  0.6991060000000  0.5391750000000 1.0
C      1  0.3448770000000  0.5399080000000  0.6404400000000 1.0
C      1  0.4527240000000  0.3190640000000  0.3853460000000 1.0
C      1  0.2277980000000  0.5875540000000  0.3873470000000 1.0
C      1  0.6249780000000  0.4540240000000  0.3599390000000 1.0
C      1  0.7440600000000  0.5384940000000  0.5879460000000 1.0
C      1  0.6417120000000  0.5870680000000  0.3160100000000 1.0
C      1  0.3885870000000  0.3508680000000  0.6569740000000 1.0
C      1  0.3822880000000  0.6742820000000  0.4388830000000 1.0
C      1  0.6356930000000  0.5431100000000  0.4969670000000 1.0
C      1  0.4895470000000  0.5512800000000  0.7236970000000 1.0
C      1  0.3027930000000  0.5795780000000  0.3346380000000 1.0
C      1  0.5846080000000  0.4897960000000  0.4451870000000 1.0
C      1  0.4199290000000  0.4164140000000  0.7174820000000 1.0
C      1  0.2914780000000  0.4066980000000  0.4485040000000 1.0
C      1  0.6081070000000  0.2969310000000  0.4410960000000 1.0
C      1  0.6407240000000  0.4798510000000  0.6932990000000 1.0
C      1  0.4179370000000  0.2991720000000  0.4724950000000 1.0
C      1  0.6113790000000  0.3338460000000  0.6131520000000 1.0
C      1  0.3301740000000  0.6342100000000  0.5065890000000 1.0
C      1  0.3316990000000  0.3788370000000  0.5906760000000 1.0
C      1  0.5125060000000  0.3990740000000  0.7322520000000 1.0
C      1  0.7040870000000  0.5239060000000  0.3556330000000 1.0
C      1  0.5464900000000  0.3055730000000  0.3730680000000 1.0
C      1  0.6266240000000  0.3568140000000  0.3656840000000 1.0
C      1  0.4614490000000  0.2981530000000  0.6290520000000 1.0
C      1  0.5773250000000  0.2923350000000  0.5304760000000 1.0
C      1  0.4605060000000  0.6225150000000  0.3165830000000 1.0
C      1  0.5197190000000  0.6737400000000  0.3710200000000 1.0
C      1  0.3022100000000  0.4702980000000  0.5889240000000 1.0
C      1  0.5785550000000  0.5184810000000  0.2952230000000 1.0
C      1  0.3658500000000  0.6224940000000  0.5931580000000 1.0
C      1  0.5573100000000  0.4811520000000  0.7327780000000 1.0
C      1  0.5002280000000  0.4841240000000  0.4906550000000 1.0
C      1  0.6142830000000  0.6678510000000  0.3592350000000 1.0
C      1  0.4814230000000  0.2783720000000  0.5402480000000 1.0
C      1  0.6785880000000  0.6762090000000  0.4987070000000 1.0
C      1  0.7441320000000  0.4466660000000  0.5893590000000 1.0
C      1  0.4515140000000  0.6646550000000  0.6111040000000 1.0
C      1  0.4040530000000  0.5086330000000  0.7079980000000 1.0
C      1  0.5989940000000  0.6694580000000  0.5541440000000 1.0
C      1  0.5099460000000  0.5137450000000  0.5722550000000 1.0
C      1  0.6721590000000  0.7148660000000  0.4167450000000 1.0
C      1  0.4872920000000  0.5362410000000  0.2805670000000 1.0
C      1  0.2667950000000  0.5708980000000  0.4678710000000 1.0
C      1  0.6682450000000  0.5569280000000  0.6456710000000 1.0
C      1  0.3293960000000  0.4945790000000  0.3079800000000 1.0
C      1  0.2711110000000  0.4836990000000  0.5021090000000 1.0
C      1  0.7626100000000  0.5437070000000  0.4183860000000 1.0
C      1  0.6739810000000  0.4054190000000  0.6341710000000 1.0
C      1  0.4060370000000  0.3823960000000  0.3340950000000 1.0
C      1  0.5392510000000  0.3285380000000  0.6747080000000 1.0
C      1  0.7264670000000  0.5807220000000  0.4992780000000 1.0
C      1  0.4199720000000  0.4691400000000  0.2873100000000 1.0
C      1  0.3393720000000  0.3442350000000  0.5025530000000 1.0
C      1  0.4729450000000  0.6994130000000  0.4516000000000 1.0
C      1  0.4993310000000  0.6292010000000  0.6818780000000 1.0
C      1  0.3177720000000  0.4142080000000  0.3600750000000 1.0
END
