TITL C-2158988-7926-62 -0.00467983978606608 3375 -408.111014416745 0 0 60 (C1) n - 1
REM
REM in /scratch/bkarasulu/868
REM
REM
REM
REM
REM
REM ./C.cell (a2850807a9bf4ad07a5b6933b78d9264)
REM AIRSS Version 0.9.1 bugfix July 2018 build 013d7b7c2542+ Fri, 06 Jul 2018 19:26:36 +0100
REM compiler GCC version 9.2.1 20190827 (Red Hat 9.2.1-1)
REM options -cpp -mtune=generic -march=x86-64 -g -O0 -fpre-include=/usr/include/finclude/math-vector-fortran.h
REM seed -1034360291 414741129 -1071128633 -1397290212 540464081 1478611966 -1704563048 -779514910 2120258407 848753086 675383217 -1883824752 7059447 -907783347 -863474869 -1364130343 1697753682 -1033494768 271740377 -19601947 2056598016 -2010774646 -1294400066 699796568 -1562064383 1281175337 1942547943 445094505 -1798075386 -477869461 935848494 1449754006 -1772771829
REM
CELL 1.54180   15.00000   15.00000   15.00000   90.00000   90.00000   90.00000
LATT -1
SFAC C  
C      1  0.4277830000000  0.7033410000000  0.5026620000000 1.0
C      1  0.6045980000000  0.6641080000000  0.4823740000000 1.0
C      1  0.6834480000000  0.6178110000000  0.5135390000000 1.0
C      1  0.7207020000000  0.5277160000000  0.5114950000000 1.0
C      1  0.6579170000000  0.3610170000000  0.4856290000000 1.0
C      1  0.5777000000000  0.3087050000000  0.4826670000000 1.0
C      1  0.4043140000000  0.3044440000000  0.5118340000000 1.0
C      1  0.3231640000000  0.3383340000000  0.5430840000000 1.0
C      1  0.2963140000000  0.4237310000000  0.5152460000000 1.0
C      1  0.3061380000000  0.5970400000000  0.5096990000000 1.0
C      1  0.3427490000000  0.6797140000000  0.5328020000000 1.0
C      1  0.3293320000000  0.5567780000000  0.6010710000000 1.0
C      1  0.3834470000000  0.6391550000000  0.6180540000000 1.0
C      1  0.4729200000000  0.6769050000000  0.5900060000000 1.0
C      1  0.5617150000000  0.6537090000000  0.5724350000000 1.0
C      1  0.6350520000000  0.5927930000000  0.5990740000000 1.0
C      1  0.6653280000000  0.4926700000000  0.5835970000000 1.0
C      1  0.6344970000000  0.4010800000000  0.5743100000000 1.0
C      1  0.5491410000000  0.3402390000000  0.5744240000000 1.0
C      1  0.4583000000000  0.3312530000000  0.5926140000000 1.0
C      1  0.3690260000000  0.3765690000000  0.6239340000000 1.0
C      1  0.3251530000000  0.4651520000000  0.6035800000000 1.0
C      1  0.6931640000000  0.4034710000000  0.4093310000000 1.0
C      1  0.5220150000000  0.3114340000000  0.4053060000000 1.0
C      1  0.4284940000000  0.3242360000000  0.4232750000000 1.0
C      1  0.3757470000000  0.3930130000000  0.3789740000000 1.0
C      1  0.3248660000000  0.4588470000000  0.4305070000000 1.0
C      1  0.3315440000000  0.5545600000000  0.4271820000000 1.0
C      1  0.3923820000000  0.6109910000000  0.3740000000000 1.0
C      1  0.4557310000000  0.6719690000000  0.4182030000000 1.0
C      1  0.5506380000000  0.6664090000000  0.4012480000000 1.0
C      1  0.7274490000000  0.5613070000000  0.3670540000000 1.0
C      1  0.7333270000000  0.4899010000000  0.4269500000000 1.0
C      1  0.5949060000000  0.3966390000000  0.8040590000000 1.0
C      1  0.5173980000000  0.3633420000000  0.8164680000000 1.0
C      1  0.4310760000000  0.3555190000000  0.8155420000000 1.0
C      1  0.3601760000000  0.4054760000000  0.8182510000000 1.0
C      1  0.3496100000000  0.4906260000000  0.8331910000000 1.0
C      1  0.3839630000000  0.5686380000000  0.8414910000000 1.0
C      1  0.4529870000000  0.6202910000000  0.8379920000000 1.0
C      1  0.5357940000000  0.6272880000000  0.8173560000000 1.0
C      1  0.6172600000000  0.6127210000000  0.7912990000000 1.0
C      1  0.6532190000000  0.5363530000000  0.7702740000000 1.0
C      1  0.6580570000000  0.4502640000000  0.7771510000000 1.0
C      1  0.4024000000000  0.4126580000000  0.2907720000000 1.0
C      1  0.3531660000000  0.4766560000000  0.2449710000000 1.0
C      1  0.3445630000000  0.5585450000000  0.2218160000000 1.0
C      1  0.4152550000000  0.5889400000000  0.2852420000000 1.0
C      1  0.5084900000000  0.5765530000000  0.2696110000000 1.0
C      1  0.5753540000000  0.6226020000000  0.3209780000000 1.0
C      1  0.6549560000000  0.5662000000000  0.3167810000000 1.0
C      1  0.6303900000000  0.4808170000000  0.2805220000000 1.0
C      1  0.6405280000000  0.3996490000000  0.3300020000000 1.0
C      1  0.5553570000000  0.3549480000000  0.3279390000000 1.0
C      1  0.4958980000000  0.4076180000000  0.2745650000000 1.0
C      1  0.5375560000000  0.4939600000000  0.4449160000000 1.0
C      1  0.5057580000000  0.4974240000000  0.6177030000000 1.0
C      1  0.4972120000000  0.4979710000000  0.6998030000000 1.0
C      1  0.5410270000000  0.4882330000000  0.2513370000000 1.0
C      1  0.4987000000000  0.4975220000000  0.5207970000000 1.0
END
