TITL C-2159255-4746-1337 -0.0150445816990107 3375 -405.776181634822 0 0 60 (C1) n - 1
REM
REM in /scratch/bkarasulu/871
REM
REM
REM
REM
REM
REM ./C.cell (a2850807a9bf4ad07a5b6933b78d9264)
REM AIRSS Version 0.9.1 bugfix July 2018 build 013d7b7c2542+ Fri, 06 Jul 2018 19:26:36 +0100
REM compiler GCC version 9.2.1 20190827 (Red Hat 9.2.1-1)
REM options -cpp -mtune=generic -march=x86-64 -g -O0 -fpre-include=/usr/include/finclude/math-vector-fortran.h
REM seed 628432263 587624486 -193913155 -195240555 867706221 -1931689946 -978356339 -736452538 1842326521 -59807798 1358863190 -393280404 666632553 -427970534 -285053222 -1608114283 409239527 -1996381920 -1093858012 1627893954 989735686 -495703353 2061474312 -2134273149 -2116262013 858828756 974971882 68851285 663094505 1803751820 1808559071 1700417522 -143946369
REM
CELL 1.54180   15.00000   15.00000   15.00000   90.00000   90.00000   90.00000
LATT -1
SFAC C  
C      1  0.6583830000000  0.5550210000000  0.7047160000000 1.0
C      1  0.5860530000000  0.4033990000000  0.7378430000000 1.0
C      1  0.5134400000000  0.2568520000000  0.6821270000000 1.0
C      1  0.4313610000000  0.1801780000000  0.5543050000000 1.0
C      1  0.3655800000000  0.1980650000000  0.3958340000000 1.0
C      1  0.3513440000000  0.2928800000000  0.2519160000000 1.0
C      1  0.3798260000000  0.4482270000000  0.1810260000000 1.0
C      1  0.4580690000000  0.6018940000000  0.1886970000000 1.0
C      1  0.5425740000000  0.7114650000000  0.2876640000000 1.0
C      1  0.6080050000000  0.7409620000000  0.4448960000000 1.0
C      1  0.6668550000000  0.6819070000000  0.5944590000000 1.0
C      1  0.5258890000000  0.6297920000000  0.2460800000000 1.0
C      1  0.5890600000000  0.6930550000000  0.3671700000000 1.0
C      1  0.6464840000000  0.6796830000000  0.5041530000000 1.0
C      1  0.6761500000000  0.5934330000000  0.6217930000000 1.0
C      1  0.6326080000000  0.4676150000000  0.6883090000000 1.0
C      1  0.5662660000000  0.3344310000000  0.6782960000000 1.0
C      1  0.5001630000000  0.2283270000000  0.5944930000000 1.0
C      1  0.4243900000000  0.2072570000000  0.4662180000000 1.0
C      1  0.3880580000000  0.2581830000000  0.3293730000000 1.0
C      1  0.3935900000000  0.3727180000000  0.2323430000000 1.0
C      1  0.4431090000000  0.5117120000000  0.2028720000000 1.0
C      1  0.4902420000000  0.6979030000000  0.7958210000000 1.0
C      1  0.4477860000000  0.5503420000000  0.8714110000000 1.0
C      1  0.3664420000000  0.4039300000000  0.8441170000000 1.0
C      1  0.2936340000000  0.3256420000000  0.7116990000000 1.0
C      1  0.2420120000000  0.3107680000000  0.5494210000000 1.0
C      1  0.2122700000000  0.3754730000000  0.3966830000000 1.0
C      1  0.2326910000000  0.5192600000000  0.3129950000000 1.0
C      1  0.2909480000000  0.6789910000000  0.3200010000000 1.0
C      1  0.3592670000000  0.8208670000000  0.3865790000000 1.0
C      1  0.4387620000000  0.8795910000000  0.5233330000000 1.0
C      1  0.4871310000000  0.8191680000000  0.6742040000000 1.0
C      1  0.4742220000000  0.6267540000000  0.8410680000000 1.0
C      1  0.4096840000000  0.4731930000000  0.8721700000000 1.0
C      1  0.3269420000000  0.3541460000000  0.7856330000000 1.0
C      1  0.2658920000000  0.3110710000000  0.6317040000000 1.0
C      1  0.2207520000000  0.3320950000000  0.4693470000000 1.0
C      1  0.2157860000000  0.4414900000000  0.3428750000000 1.0
C      1  0.2615570000000  0.5996140000000  0.3064880000000 1.0
C      1  0.3226350000000  0.7545330000000  0.3459830000000 1.0
C      1  0.3995790000000  0.8670490000000  0.4474260000000 1.0
C      1  0.4695510000000  0.8629860000000  0.6019270000000 1.0
C      1  0.4944500000000  0.7634010000000  0.7390460000000 1.0
C      1  0.6359990000000  0.4439180000000  0.5872590000000 1.0
C      1  0.5894900000000  0.3596380000000  0.5815040000000 1.0
C      1  0.5414980000000  0.2955660000000  0.5270780000000 1.0
C      1  0.4935920000000  0.2806000000000  0.4450470000000 1.0
C      1  0.4694650000000  0.3141640000000  0.3584020000000 1.0
C      1  0.4734550000000  0.3872020000000  0.2957560000000 1.0
C      1  0.5052990000000  0.4755760000000  0.2763670000000 1.0
C      1  0.5576280000000  0.5508920000000  0.3056160000000 1.0
C      1  0.6041850000000  0.5922900000000  0.3796870000000 1.0
C      1  0.6449420000000  0.5828850000000  0.4665940000000 1.0
C      1  0.6619250000000  0.5255900000000  0.5425710000000 1.0
C      1  0.5620660000000  0.4368120000000  0.4328970000000 1.0
C      1  0.4440490000000  0.5222690000000  0.5225220000000 1.0
C      1  0.4002960000000  0.5735690000000  0.5782560000000 1.0
C      1  0.6334330000000  0.4039730000000  0.4002030000000 1.0
C      1  0.4901640000000  0.4728920000000  0.4692250000000 1.0
END
