TITL C-2159255-4746-1084 -0.00169184018447877 3375 -398.929676931409 0 0 60 (D4) n - 1
REM
REM in /scratch/bkarasulu/871
REM
REM
REM
REM
REM
REM ./C.cell (a2850807a9bf4ad07a5b6933b78d9264)
REM AIRSS Version 0.9.1 bugfix July 2018 build 013d7b7c2542+ Fri, 06 Jul 2018 19:26:36 +0100
REM compiler GCC version 9.2.1 20190827 (Red Hat 9.2.1-1)
REM options -cpp -mtune=generic -march=x86-64 -g -O0 -fpre-include=/usr/include/finclude/math-vector-fortran.h
REM seed 1930950038 -1752598730 1748120926 1575802320 -489424369 -1090795427 1807041773 -2127991361 -1827887797 -1448822793 87654592 -1595770165 -1433357435 535962888 -1400420273 2132888871 -894293507 1721947604 -1410465459 -1845981123 1166406836 -1267783254 229538634 -5343348 -1049070874 1933579027 -1020806339 -930652898 -1320878676 -2101705689 -689657657 -1747741174 1636130491
REM
CELL 1.54180   15.00000   15.00000   15.00000   90.00000   90.00000   90.00000
LATT -1
SFAC C  
C      1  0.4950380000000  0.2894930000000  0.3443110000000 1.0
C      1  0.6556890000000  0.2894930000000  0.4950380000000 1.0
C      1  0.5049620000000  0.2894930000000  0.6556890000000 1.0
C      1  0.3443110000000  0.2894930000000  0.5049620000000 1.0
C      1  0.5049620000000  0.7040300000000  0.3443110000000 1.0
C      1  0.3443110000000  0.7040300000000  0.4950380000000 1.0
C      1  0.4950380000000  0.7040300000000  0.6556890000000 1.0
C      1  0.6556890000000  0.7040300000000  0.5049620000000 1.0
C      1  0.3073800000000  0.4216490000000  0.5917450000000 1.0
C      1  0.4082550000000  0.4216490000000  0.3073800000000 1.0
C      1  0.6926200000000  0.4216490000000  0.4082550000000 1.0
C      1  0.5917450000000  0.4216490000000  0.6926200000000 1.0
C      1  0.6926200000000  0.5718740000000  0.5917450000000 1.0
C      1  0.5917450000000  0.5718740000000  0.3073800000000 1.0
C      1  0.3073800000000  0.5718740000000  0.4082550000000 1.0
C      1  0.4082550000000  0.5718740000000  0.6926200000000 1.0
C      1  0.4915310000000  0.5412660000000  0.7209530000000 1.0
C      1  0.2790470000000  0.5412660000000  0.4915310000000 1.0
C      1  0.5084690000000  0.5412660000000  0.2790470000000 1.0
C      1  0.7209530000000  0.5412660000000  0.5084690000000 1.0
C      1  0.5084690000000  0.4522570000000  0.7209530000000 1.0
C      1  0.7209530000000  0.4522570000000  0.4915310000000 1.0
C      1  0.4915310000000  0.4522570000000  0.2790470000000 1.0
C      1  0.2790470000000  0.4522570000000  0.5084690000000 1.0
C      1  0.4884110000000  0.4470550000000  0.5692310000000 1.0
C      1  0.4307690000000  0.4470550000000  0.4884110000000 1.0
C      1  0.5115890000000  0.4470550000000  0.4307690000000 1.0
C      1  0.5692310000000  0.4470550000000  0.5115890000000 1.0
C      1  0.5115890000000  0.5464680000000  0.5692310000000 1.0
C      1  0.5692310000000  0.5464680000000  0.4884110000000 1.0
C      1  0.4884110000000  0.5464680000000  0.4307690000000 1.0
C      1  0.4307690000000  0.5464680000000  0.5115890000000 1.0
C      1  0.6552370000000  0.4304180000000  0.5595540000000 1.0
C      1  0.4404460000000  0.4304180000000  0.6552370000000 1.0
C      1  0.3447630000000  0.4304180000000  0.4404460000000 1.0
C      1  0.5595540000000  0.4304180000000  0.3447630000000 1.0
C      1  0.3447630000000  0.5631050000000  0.5595540000000 1.0
C      1  0.5595540000000  0.5631050000000  0.6552370000000 1.0
C      1  0.6552370000000  0.5631050000000  0.4404460000000 1.0
C      1  0.4404460000000  0.5631050000000  0.3447630000000 1.0
C      1  0.5846630000000  0.6591480000000  0.3518360000000 1.0
C      1  0.6481640000000  0.6591480000000  0.5846630000000 1.0
C      1  0.4153370000000  0.6591480000000  0.6481640000000 1.0
C      1  0.3518360000000  0.6591480000000  0.4153370000000 1.0
C      1  0.4153370000000  0.3343750000000  0.3518360000000 1.0
C      1  0.3518360000000  0.3343750000000  0.5846630000000 1.0
C      1  0.5846630000000  0.3343750000000  0.6481640000000 1.0
C      1  0.6481640000000  0.3343750000000  0.4153370000000 1.0
C      1  0.6426770000000  0.6595560000000  0.4275220000000 1.0
C      1  0.5724780000000  0.6595560000000  0.6426770000000 1.0
C      1  0.3573230000000  0.6595560000000  0.5724780000000 1.0
C      1  0.4275220000000  0.6595560000000  0.3573230000000 1.0
C      1  0.3573230000000  0.3339670000000  0.4275220000000 1.0
C      1  0.4275220000000  0.3339670000000  0.6426770000000 1.0
C      1  0.6426770000000  0.3339670000000  0.5724780000000 1.0
C      1  0.5724780000000  0.3339670000000  0.3573230000000 1.0
C      1  0.6380110000000  0.4967620000000  0.3619890000000 1.0
C      1  0.3619890000000  0.4967620000000  0.3619890000000 1.0
C      1  0.3619890000000  0.4967620000000  0.6380110000000 1.0
C      1  0.6380110000000  0.4967620000000  0.6380110000000 1.0
END
