TITL C-2159252-5904-352 -0.00218689595838213 3375 -403.353350207254 0 0 60 (C2h) n - 1
REM
REM in /scratch/bkarasulu/870
REM
REM
REM
REM
REM
REM ./C.cell (a2850807a9bf4ad07a5b6933b78d9264)
REM AIRSS Version 0.9.1 bugfix July 2018 build 013d7b7c2542+ Fri, 06 Jul 2018 19:26:36 +0100
REM compiler GCC version 9.2.1 20190827 (Red Hat 9.2.1-1)
REM options -cpp -mtune=generic -march=x86-64 -g -O0 -fpre-include=/usr/include/finclude/math-vector-fortran.h
REM seed 1463628554 1125900045 1403972441 1061333819 1671806738 -859625092 -1757027620 -991129270 -1741851823 1840048968 -369471033 1798022949 1174920213 -494701990 -1976483330 1790892426 -585080691 520184482 1288275339 -1771677756 -160240714 -480233583 -1523457177 897101753 -1372963637 1292694247 -391962405 1979727714 909193855 24742964 -668299666 -651885995 1603431691
REM
CELL 1.54180   15.00000   15.00000   15.00000   90.00000   90.00000   90.00000
LATT -1
SFAC C  
C      1  0.4498910000000  0.5802630000000  0.6000620000000 1.0
C      1  0.4498910000000  0.4197370000000  0.3999380000000 1.0
C      1  0.5501090000000  0.5802630000000  0.6000620000000 1.0
C      1  0.5501090000000  0.4197370000000  0.3999380000000 1.0
C      1  0.2351230000000  0.4189980000000  0.5266320000000 1.0
C      1  0.2351230000000  0.5810020000000  0.4733680000000 1.0
C      1  0.7648770000000  0.4189980000000  0.5266320000000 1.0
C      1  0.7648770000000  0.5810020000000  0.4733680000000 1.0
C      1  0.2934600000000  0.4365180000000  0.4445750000000 1.0
C      1  0.2934600000000  0.5634820000000  0.5554250000000 1.0
C      1  0.7065400000000  0.4365180000000  0.4445750000000 1.0
C      1  0.7065400000000  0.5634820000000  0.5554250000000 1.0
C      1  0.4483800000000  0.6227250000000  0.4507150000000 1.0
C      1  0.4483800000000  0.3772750000000  0.5492850000000 1.0
C      1  0.5516200000000  0.6227250000000  0.4507150000000 1.0
C      1  0.5516200000000  0.3772750000000  0.5492850000000 1.0
C      1  0.4056510000000  0.6110620000000  0.3606740000000 1.0
C      1  0.4056510000000  0.3889380000000  0.6393260000000 1.0
C      1  0.5943490000000  0.6110620000000  0.3606740000000 1.0
C      1  0.5943490000000  0.3889380000000  0.6393260000000 1.0
C      1  0.4007090000000  0.4531650000000  0.4854020000000 1.0
C      1  0.4007090000000  0.5468350000000  0.5145980000000 1.0
C      1  0.5992910000000  0.4531650000000  0.4854020000000 1.0
C      1  0.5992910000000  0.5468350000000  0.5145980000000 1.0
C      1  0.4115530000000  0.3008240000000  0.4944100000000 1.0
C      1  0.4115530000000  0.6991760000000  0.5055900000000 1.0
C      1  0.5884470000000  0.3008240000000  0.4944100000000 1.0
C      1  0.5884470000000  0.6991760000000  0.5055900000000 1.0
C      1  0.2765840000000  0.3431410000000  0.5664030000000 1.0
C      1  0.2765840000000  0.6568590000000  0.4335970000000 1.0
C      1  0.7234160000000  0.3431410000000  0.5664030000000 1.0
C      1  0.7234160000000  0.6568590000000  0.4335970000000 1.0
C      1  0.4060140000000  0.3314990000000  0.4014910000000 1.0
C      1  0.4060140000000  0.6685010000000  0.5985090000000 1.0
C      1  0.5939860000000  0.3314990000000  0.4014910000000 1.0
C      1  0.5939860000000  0.6685010000000  0.5985090000000 1.0
C      1  0.3129940000000  0.4013880000000  0.6324810000000 1.0
C      1  0.3129940000000  0.5986120000000  0.3675190000000 1.0
C      1  0.6870060000000  0.4013880000000  0.6324810000000 1.0
C      1  0.6870060000000  0.5986120000000  0.3675190000000 1.0
C      1  0.6815740000000  0.7038780000000  0.4998890000000 1.0
C      1  0.6815740000000  0.2961220000000  0.5001110000000 1.0
C      1  0.3184260000000  0.7038780000000  0.4998890000000 1.0
C      1  0.3184260000000  0.2961220000000  0.5001110000000 1.0
C      1  0.5480270000000  0.4388040000000  0.7016850000000 1.0
C      1  0.5480270000000  0.5611960000000  0.2983150000000 1.0
C      1  0.4519730000000  0.4388040000000  0.7016850000000 1.0
C      1  0.4519730000000  0.5611960000000  0.2983150000000 1.0
C      1  0.6861650000000  0.6553590000000  0.5833880000000 1.0
C      1  0.6861650000000  0.3446410000000  0.4166120000000 1.0
C      1  0.3138350000000  0.6553590000000  0.5833880000000 1.0
C      1  0.3138350000000  0.3446410000000  0.4166120000000 1.0
C      1  0.2635180000000  0.4805540000000  0.5972110000000 1.0
C      1  0.2635180000000  0.5194460000000  0.4027890000000 1.0
C      1  0.7364820000000  0.4805540000000  0.5972110000000 1.0
C      1  0.7364820000000  0.5194460000000  0.4027890000000 1.0
C      1  0.5491550000000  0.4658830000000  0.3128650000000 1.0
C      1  0.5491550000000  0.5341170000000  0.6871350000000 1.0
C      1  0.4508450000000  0.4658830000000  0.3128650000000 1.0
C      1  0.4508450000000  0.5341170000000  0.6871350000000 1.0
END
