TITL C-2159255-4746-40 -0.00181459118272831 3375 -402.268512331554 0 0 60 (Cs) n - 1
REM
REM in /scratch/bkarasulu/871
REM
REM
REM
REM
REM
REM ./C.cell (a2850807a9bf4ad07a5b6933b78d9264)
REM AIRSS Version 0.9.1 bugfix July 2018 build 013d7b7c2542+ Fri, 06 Jul 2018 19:26:36 +0100
REM compiler GCC version 9.2.1 20190827 (Red Hat 9.2.1-1)
REM options -cpp -mtune=generic -march=x86-64 -g -O0 -fpre-include=/usr/include/finclude/math-vector-fortran.h
REM seed 653622546 -1433667132 1492144395 -451586030 854179215 706509651 -1130872784 -372972662 -27384091 385661916 -1798957159 1645224568 -1839131685 2117529550 949437187 -1645002019 985934405 -1499957079 1264488693 -1523050716 -1103203209 1299334144 986835162 -814890325 -550689762 896870364 1180633098 2044111067 1852848247 1276681672 418975940 494683085 -2103969876
REM
CELL 1.54180   15.00000   15.00000   15.00000   90.00000   90.00000   90.00000
LATT -1
SFAC C  
C      1  0.7060310000000  0.4916940000000  0.5455790000000 1.0
C      1  0.4061800000000  0.6726060000000  0.5451390000000 1.0
C      1  0.3910980000000  0.3207710000000  0.5453680000000 1.0
C      1  0.7060330000000  0.4916930000000  0.4544270000000 1.0
C      1  0.4061810000000  0.6726050000000  0.4548540000000 1.0
C      1  0.3910990000000  0.3207700000000  0.4546330000000 1.0
C      1  0.3300950000000  0.3764610000000  0.5970390000000 1.0
C      1  0.6852580000000  0.4112770000000  0.5925250000000 1.0
C      1  0.4823430000000  0.6954910000000  0.5951730000000 1.0
C      1  0.3300970000000  0.3764590000000  0.4029600000000 1.0
C      1  0.6852600000000  0.4112750000000  0.4074820000000 1.0
C      1  0.4823450000000  0.6954890000000  0.4048220000000 1.0
C      1  0.2850880000000  0.5242780000000  0.6967750000000 1.0
C      1  0.5809500000000  0.3391680000000  0.6998790000000 1.0
C      1  0.6317390000000  0.6751600000000  0.6965320000000 1.0
C      1  0.2850930000000  0.5242730000000  0.3032190000000 1.0
C      1  0.5809550000000  0.3391630000000  0.3001270000000 1.0
C      1  0.6317440000000  0.6751550000000  0.3034670000000 1.0
C      1  0.5551610000000  0.5683660000000  0.5883100000000 1.0
C      1  0.4718270000000  0.5219160000000  0.5489490000000 1.0
C      1  0.4871530000000  0.4456550000000  0.6073790000000 1.0
C      1  0.5551640000000  0.5683630000000  0.4116900000000 1.0
C      1  0.4718290000000  0.5219150000000  0.4510500000000 1.0
C      1  0.4871550000000  0.4456520000000  0.3926220000000 1.0
C      1  0.6550970000000  0.5486780000000  0.3946850000000 1.0
C      1  0.3950330000000  0.5829930000000  0.4080510000000 1.0
C      1  0.4665340000000  0.3446630000000  0.3949790000000 1.0
C      1  0.6550950000000  0.5486800000000  0.6053170000000 1.0
C      1  0.3950310000000  0.5829950000000  0.5919440000000 1.0
C      1  0.4665320000000  0.3446650000000  0.6050240000000 1.0
C      1  0.5025240000000  0.4771650000000  0.7026830000000 1.0
C      1  0.5194030000000  0.5741400000000  0.6871750000000 1.0
C      1  0.4180070000000  0.4409580000000  0.7360010000000 1.0
C      1  0.5025290000000  0.4771610000000  0.2973170000000 1.0
C      1  0.5194080000000  0.5741360000000  0.3128240000000 1.0
C      1  0.4180130000000  0.4409530000000  0.2639980000000 1.0
C      1  0.6553350000000  0.4671830000000  0.3331680000000 1.0
C      1  0.4480630000000  0.6290210000000  0.3375020000000 1.0
C      1  0.3977290000000  0.3728430000000  0.3279870000000 1.0
C      1  0.6553310000000  0.4671870000000  0.6668360000000 1.0
C      1  0.4480590000000  0.6290250000000  0.6624940000000 1.0
C      1  0.3977250000000  0.3728470000000  0.6720140000000 1.0
C      1  0.3001650000000  0.4544730000000  0.4515490000000 1.0
C      1  0.6328580000000  0.3421450000000  0.4511750000000 1.0
C      1  0.5660940000000  0.6642120000000  0.4483280000000 1.0
C      1  0.3001640000000  0.4544740000000  0.5484470000000 1.0
C      1  0.6328570000000  0.3421460000000  0.5488320000000 1.0
C      1  0.5660930000000  0.6642130000000  0.5516700000000 1.0
C      1  0.5845890000000  0.4286530000000  0.2818540000000 1.0
C      1  0.5749460000000  0.6289480000000  0.2589420000000 1.0
C      1  0.3467500000000  0.4980970000000  0.2497320000000 1.0
C      1  0.5845830000000  0.4286590000000  0.7181500000000 1.0
C      1  0.5749400000000  0.6289540000000  0.7410570000000 1.0
C      1  0.3467440000000  0.4981030000000  0.7502640000000 1.0
C      1  0.6496740000000  0.6537370000000  0.6107190000000 1.0
C      1  0.3126190000000  0.5320560000000  0.6059610000000 1.0
C      1  0.5616500000000  0.3171980000000  0.6126740000000 1.0
C      1  0.6496770000000  0.6537340000000  0.3892810000000 1.0
C      1  0.3126210000000  0.5320530000000  0.3940340000000 1.0
C      1  0.5616520000000  0.3171960000000  0.3873320000000 1.0
END
