TITL C-2158988-7926-116 -0.00272209291177734 3375 -410.60425400648 0 0 60 (C4v) n - 1
REM
REM in /scratch/bkarasulu/868
REM
REM
REM
REM
REM
REM ./C.cell (a2850807a9bf4ad07a5b6933b78d9264)
REM AIRSS Version 0.9.1 bugfix July 2018 build 013d7b7c2542+ Fri, 06 Jul 2018 19:26:36 +0100
REM compiler GCC version 9.2.1 20190827 (Red Hat 9.2.1-1)
REM options -cpp -mtune=generic -march=x86-64 -g -O0 -fpre-include=/usr/include/finclude/math-vector-fortran.h
REM seed -1161262298 1643712410 -1349325953 865736341 551693799 -1818731917 -932919267 463199604 1356392814 -1011911869 433138960 1752990508 -100548732 28527019 -219656963 -277019376 -275088937 -1066264740 2116001566 -1270105774 214270169 1754635340 1351428081 1017668141 -2053623724 340452238 -1844451229 -1499377581 -917730307 -2134480277 -1263843475 1020581084 709571705
REM
CELL 1.54180   15.00000   15.00000   15.00000   90.00000   90.00000   90.00000
LATT -1
SFAC C  
C      1  0.4324740000000  0.5486100000000  0.2889080000000 1.0
C      1  0.4324740000000  0.7110920000000  0.5486100000000 1.0
C      1  0.4324740000000  0.4513900000000  0.7110920000000 1.0
C      1  0.4324740000000  0.2889080000000  0.4513900000000 1.0
C      1  0.4507570000000  0.4673800000000  0.3380810000000 1.0
C      1  0.4507570000000  0.6619190000000  0.4673800000000 1.0
C      1  0.4507570000000  0.5326200000000  0.6619190000000 1.0
C      1  0.4507570000000  0.3380810000000  0.5326200000000 1.0
C      1  0.2543600000000  0.4401340000000  0.4602120000000 1.0
C      1  0.2543600000000  0.5397880000000  0.4401340000000 1.0
C      1  0.2543600000000  0.5598660000000  0.5397880000000 1.0
C      1  0.2543600000000  0.4602120000000  0.5598660000000 1.0
C      1  0.5079130000000  0.7402060000000  0.6008840000000 1.0
C      1  0.5079130000000  0.3991160000000  0.7402060000000 1.0
C      1  0.5079130000000  0.2597940000000  0.3991160000000 1.0
C      1  0.5079130000000  0.6008840000000  0.2597940000000 1.0
C      1  0.3703280000000  0.6104430000000  0.3338280000000 1.0
C      1  0.3703280000000  0.6661720000000  0.6104430000000 1.0
C      1  0.3703280000000  0.3895570000000  0.6661720000000 1.0
C      1  0.3703280000000  0.3338280000000  0.3895570000000 1.0
C      1  0.6698000000000  0.4297700000000  0.3973640000000 1.0
C      1  0.6698000000000  0.6026360000000  0.4297700000000 1.0
C      1  0.6698000000000  0.5702300000000  0.6026360000000 1.0
C      1  0.6698000000000  0.3973640000000  0.5702300000000 1.0
C      1  0.6316250000000  0.6902520000000  0.4087000000000 1.0
C      1  0.6316250000000  0.5913000000000  0.6902520000000 1.0
C      1  0.6316250000000  0.3097480000000  0.5913000000000 1.0
C      1  0.6316250000000  0.4087000000000  0.3097480000000 1.0
C      1  0.5883450000000  0.2775440000000  0.6623420000000 1.0
C      1  0.5883450000000  0.3376580000000  0.2775440000000 1.0
C      1  0.5883450000000  0.7224560000000  0.3376580000000 1.0
C      1  0.5883450000000  0.6623420000000  0.7224560000000 1.0
C      1  0.2931220000000  0.3727970000000  0.4154570000000 1.0
C      1  0.2931220000000  0.5845430000000  0.3727970000000 1.0
C      1  0.2931220000000  0.6272030000000  0.5845430000000 1.0
C      1  0.2931220000000  0.4154570000000  0.6272030000000 1.0
C      1  0.5079150000000  0.6860240000000  0.6823990000000 1.0
C      1  0.5079150000000  0.3176010000000  0.6860240000000 1.0
C      1  0.5079150000000  0.3139760000000  0.3176010000000 1.0
C      1  0.5079150000000  0.6823990000000  0.3139760000000 1.0
C      1  0.4711230000000  0.5683210000000  0.4862360000000 1.0
C      1  0.4711230000000  0.5137640000000  0.5683210000000 1.0
C      1  0.4711230000000  0.4316790000000  0.5137640000000 1.0
C      1  0.4711230000000  0.4862360000000  0.4316790000000 1.0
C      1  0.5883420000000  0.5635420000000  0.2320260000000 1.0
C      1  0.5883420000000  0.7679740000000  0.5635420000000 1.0
C      1  0.5883420000000  0.4364580000000  0.7679740000000 1.0
C      1  0.5883420000000  0.2320260000000  0.4364580000000 1.0
C      1  0.6316230000000  0.4894780000000  0.7107640000000 1.0
C      1  0.6316230000000  0.2892360000000  0.4894780000000 1.0
C      1  0.6316230000000  0.5105220000000  0.2892360000000 1.0
C      1  0.6316230000000  0.7107640000000  0.5105220000000 1.0
C      1  0.6697980000000  0.3781770000000  0.4749810000000 1.0
C      1  0.6697980000000  0.5250190000000  0.3781770000000 1.0
C      1  0.6697980000000  0.6218230000000  0.5250190000000 1.0
C      1  0.6697980000000  0.4749810000000  0.6218230000000 1.0
C      1  0.4324750000000  0.3241990000000  0.6265550000000 1.0
C      1  0.4324750000000  0.3734450000000  0.3241990000000 1.0
C      1  0.4324750000000  0.6758010000000  0.3734450000000 1.0
C      1  0.4324750000000  0.6265550000000  0.6758010000000 1.0
END
