TITL C-2158984-8299-833 0.227803719686715 3375 -408.328536431699 0 0 60 (C3) n - 1
REM
REM in /scratch/bkarasulu/869
REM
REM
REM
REM
REM
REM ./C.cell (a2850807a9bf4ad07a5b6933b78d9264)
REM AIRSS Version 0.9.1 bugfix July 2018 build 013d7b7c2542+ Fri, 06 Jul 2018 19:26:36 +0100
REM compiler GCC version 9.2.1 20190827 (Red Hat 9.2.1-1)
REM options -cpp -mtune=generic -march=x86-64 -g -O0 -fpre-include=/usr/include/finclude/math-vector-fortran.h
REM seed 716850882 1940433333 -1083064207 -1866002142 -1324877753 279891766 393585589 47013652 1182544358 1849649968 -1911575513 -317565285 -1455473905 1832731522 1535904082 469742233 1627006218 118131908 -370840308 -1178666745 -903141394 -433508243 1509066971 544337090 2044891876 -1114399934 1623877924 -402438895 1125175968 658732087 -378792875 -1992041991 2084698733
REM
CELL 1.54180   15.00000   15.00000   15.00000   90.00000   90.00000   90.00000
LATT -1
SFAC C  
C      1  0.6008400000000  0.6698430000000  0.4753760000000 1.0
C      1  0.6008350000000  0.4401570000000  0.6529750000000 1.0
C      1  0.6008370000000  0.4011940000000  0.3652650000000 1.0
C      1  0.7331140000000  0.4557850000000  0.4148470000000 1.0
C      1  0.7331160000000  0.5996060000000  0.4978660000000 1.0
C      1  0.7331120000000  0.4557990000000  0.5809060000000 1.0
C      1  0.6516160000000  0.5992260000000  0.3413600000000 1.0
C      1  0.6516140000000  0.5915260000000  0.6588320000000 1.0
C      1  0.6516120000000  0.3204370000000  0.4934260000000 1.0
C      1  0.4626380000000  0.3721450000000  0.6666560000000 1.0
C      1  0.4626420000000  0.4233510000000  0.2995200000000 1.0
C      1  0.4626420000000  0.7156980000000  0.5274350000000 1.0
C      1  0.3701820000000  0.3651810000000  0.6345580000000 1.0
C      1  0.3701860000000  0.4546290000000  0.3095370000000 1.0
C      1  0.3701850000000  0.6913820000000  0.5495110000000 1.0
C      1  0.6755460000000  0.3749310000000  0.4186690000000 1.0
C      1  0.6755480000000  0.6367230000000  0.4259310000000 1.0
C      1  0.6755450000000  0.4995360000000  0.6490180000000 1.0
C      1  0.6847810000000  0.3804480000000  0.5560440000000 1.0
C      1  0.6847840000000  0.5149910000000  0.3620210000000 1.0
C      1  0.6847870000000  0.6157520000000  0.5755530000000 1.0
C      1  0.4929420000000  0.6840610000000  0.6163250000000 1.0
C      1  0.4929390000000  0.3109820000000  0.5948140000000 1.0
C      1  0.4929440000000  0.5161500000000  0.2824730000000 1.0
C      1  0.3069950000000  0.4412530000000  0.3769190000000 1.0
C      1  0.3069990000000  0.6397100000000  0.5042360000000 1.0
C      1  0.3069940000000  0.4302240000000  0.6124470000000 1.0
C      1  0.4010340000000  0.5451610000000  0.2927110000000 1.0
C      1  0.4010310000000  0.6606870000000  0.6363280000000 1.0
C      1  0.4010290000000  0.3053430000000  0.5645680000000 1.0
C      1  0.5485480000000  0.6057760000000  0.6373990000000 1.0
C      1  0.5485460000000  0.3318730000000  0.5164800000000 1.0
C      1  0.5485490000000  0.5735420000000  0.3397350000000 1.0
C      1  0.2681020000000  0.4174720000000  0.5257520000000 1.0
C      1  0.2681050000000  0.5227090000000  0.4092240000000 1.0
C      1  0.2681060000000  0.5710060000000  0.5586260000000 1.0
C      1  0.3135150000000  0.6072900000000  0.4112230000000 1.0
C      1  0.3135140000000  0.5269860000000  0.6308780000000 1.0
C      1  0.3135120000000  0.3769110000000  0.4515040000000 1.0
C      1  0.5131690000000  0.4491920000000  0.6883840000000 1.0
C      1  0.5131710000000  0.3660110000000  0.3553830000000 1.0
C      1  0.5131730000000  0.6959900000000  0.4498460000000 1.0
C      1  0.3923370000000  0.5718310000000  0.6663300000000 1.0
C      1  0.3923370000000  0.3237880000000  0.4726170000000 1.0
C      1  0.3923400000000  0.6155700000000  0.3546620000000 1.0
C      1  0.5927460000000  0.4228500000000  0.5550620000000 1.0
C      1  0.5927470000000  0.4946430000000  0.3992320000000 1.0
C      1  0.5927530000000  0.5937020000000  0.5393220000000 1.0
C      1  0.4833200000000  0.3292430000000  0.4388350000000 1.0
C      1  0.4833220000000  0.6420990000000  0.3762800000000 1.0
C      1  0.4833200000000  0.5398480000000  0.6784980000000 1.0
C      1  0.2223510000000  0.5037300000000  0.4978670000000 1.0
C      1  0.7777360000000  0.5037300000000  0.4978740000000 1.0
C      1  0.9556800000000  0.5037300000000  0.4978710000000 1.0
C      1  0.5763470000000  0.5037320000000  0.4978720000000 1.0
C      1  0.1252570000000  0.5037300000000  0.4978670000000 1.0
C      1  0.4829980000000  0.5037450000000  0.4978780000000 1.0
C      1  0.0444698000000  0.5037280000000  0.4978700000000 1.0
C      1  0.8748910000000  0.5037300000000  0.4978730000000 1.0
C      1  0.4025190000000  0.5037210000000  0.4978650000000 1.0
END
