TITL C-2158988-7926-182 -0.00363519382371034 3375 -376.127231701346 0 0 60 (Th) n - 1
REM
REM in /scratch/bkarasulu/868
REM
REM
REM
REM
REM
REM ./C.cell (a2850807a9bf4ad07a5b6933b78d9264)
REM AIRSS Version 0.9.1 bugfix July 2018 build 013d7b7c2542+ Fri, 06 Jul 2018 19:26:36 +0100
REM compiler GCC version 9.2.1 20190827 (Red Hat 9.2.1-1)
REM options -cpp -mtune=generic -march=x86-64 -g -O0 -fpre-include=/usr/include/finclude/math-vector-fortran.h
REM seed 976621674 312896242 171196352 -1501633079 584031601 859933826 -1398381334 -558698882 -1480378933 -447802355 -1380430719 1470532072 -2132343510 519374111 -1438477759 1385656333 -821364880 2005321822 1123261211 -58907823 642288487 1195390490 -1717920374 647511155 2097186478 -1961026291 -1011046789 -756502793 -855111161 1860757090 1266992802 -1810188028 -593091937
REM
CELL 1.54180   15.00000   15.00000   15.00000   90.00000   90.00000   90.00000
LATT -1
SFAC C  
C      1  0.4064590000000  0.4463830000000  0.6388450000000 1.0
C      1  0.4463830000000  0.6388450000000  0.4064590000000 1.0
C      1  0.6388450000000  0.4064590000000  0.4463830000000 1.0
C      1  0.4064590000000  0.5536170000000  0.3611550000000 1.0
C      1  0.5935410000000  0.4463830000000  0.3611550000000 1.0
C      1  0.5935410000000  0.5536170000000  0.6388450000000 1.0
C      1  0.4463830000000  0.3611550000000  0.5935410000000 1.0
C      1  0.5536170000000  0.6388450000000  0.5935410000000 1.0
C      1  0.5536170000000  0.3611550000000  0.4064590000000 1.0
C      1  0.6388450000000  0.5935410000000  0.5536170000000 1.0
C      1  0.3611550000000  0.4064590000000  0.5536170000000 1.0
C      1  0.3611550000000  0.5935410000000  0.4463830000000 1.0
C      1  0.5935410000000  0.4463830000000  0.6388450000000 1.0
C      1  0.5536170000000  0.6388450000000  0.4064590000000 1.0
C      1  0.3611550000000  0.4064590000000  0.4463830000000 1.0
C      1  0.5935410000000  0.5536170000000  0.3611550000000 1.0
C      1  0.4064590000000  0.4463830000000  0.3611550000000 1.0
C      1  0.4064590000000  0.5536170000000  0.6388450000000 1.0
C      1  0.5536170000000  0.3611550000000  0.5935410000000 1.0
C      1  0.4463830000000  0.6388450000000  0.5935410000000 1.0
C      1  0.4463830000000  0.3611550000000  0.4064590000000 1.0
C      1  0.3611550000000  0.5935410000000  0.5536170000000 1.0
C      1  0.6388450000000  0.4064590000000  0.5536170000000 1.0
C      1  0.6388450000000  0.5935410000000  0.4463830000000 1.0
C      1  0.2644800000000  0.4318380000000  0.4510500000000 1.0
C      1  0.4318380000000  0.4510500000000  0.2644800000000 1.0
C      1  0.4510500000000  0.2644800000000  0.4318380000000 1.0
C      1  0.2644800000000  0.5681620000000  0.5489500000000 1.0
C      1  0.7355200000000  0.4318380000000  0.5489500000000 1.0
C      1  0.7355200000000  0.5681620000000  0.4510500000000 1.0
C      1  0.4318380000000  0.5489500000000  0.7355200000000 1.0
C      1  0.5681620000000  0.4510500000000  0.7355200000000 1.0
C      1  0.5681620000000  0.5489500000000  0.2644800000000 1.0
C      1  0.4510500000000  0.7355200000000  0.5681620000000 1.0
C      1  0.5489500000000  0.2644800000000  0.5681620000000 1.0
C      1  0.5489500000000  0.7355200000000  0.4318380000000 1.0
C      1  0.7355200000000  0.4318380000000  0.4510500000000 1.0
C      1  0.5681620000000  0.4510500000000  0.2644800000000 1.0
C      1  0.5489500000000  0.2644800000000  0.4318380000000 1.0
C      1  0.7355200000000  0.5681620000000  0.5489500000000 1.0
C      1  0.2644800000000  0.4318380000000  0.5489500000000 1.0
C      1  0.2644800000000  0.5681620000000  0.4510500000000 1.0
C      1  0.5681620000000  0.5489500000000  0.7355200000000 1.0
C      1  0.4318380000000  0.4510500000000  0.7355200000000 1.0
C      1  0.4318380000000  0.5489500000000  0.2644800000000 1.0
C      1  0.5489500000000  0.7355200000000  0.5681620000000 1.0
C      1  0.4510500000000  0.2644800000000  0.5681620000000 1.0
C      1  0.4510500000000  0.7355200000000  0.4318380000000 1.0
C      1  0.5966370000000  0.2250450000000  0.5000000000000 1.0
C      1  0.2250450000000  0.5000000000000  0.5966370000000 1.0
C      1  0.5000000000000  0.5966370000000  0.2250450000000 1.0
C      1  0.4033630000000  0.7749550000000  0.5000000000000 1.0
C      1  0.2250450000000  0.5000000000000  0.4033630000000 1.0
C      1  0.7749550000000  0.5000000000000  0.4033630000000 1.0
C      1  0.7749550000000  0.5000000000000  0.5966370000000 1.0
C      1  0.5000000000000  0.4033630000000  0.7749550000000 1.0
C      1  0.5000000000000  0.4033630000000  0.2250450000000 1.0
C      1  0.5000000000000  0.5966370000000  0.7749550000000 1.0
C      1  0.5966370000000  0.7749550000000  0.5000000000000 1.0
C      1  0.4033630000000  0.2250450000000  0.5000000000000 1.0
END
