TITL C-2158984-8299-971 -0.001602429556204 3375 -399.485390639679 0 0 60 (Cs) n - 1
REM
REM in /scratch/bkarasulu/869
REM
REM
REM
REM
REM
REM ./C.cell (a2850807a9bf4ad07a5b6933b78d9264)
REM AIRSS Version 0.9.1 bugfix July 2018 build 013d7b7c2542+ Fri, 06 Jul 2018 19:26:36 +0100
REM compiler GCC version 9.2.1 20190827 (Red Hat 9.2.1-1)
REM options -cpp -mtune=generic -march=x86-64 -g -O0 -fpre-include=/usr/include/finclude/math-vector-fortran.h
REM seed -765394417 -1150686699 -1395106744 54565425 -738630397 1058240239 -1495263236 -129206060 1701338344 1116355509 -527803430 304903054 1807219071 -900611187 1135540727 316263118 -1187077857 1848698081 2472051 -961797240 -2083670063 -532721085 387432306 383729382 -1870288726 2031052860 -469179163 322196709 -1874191337 -80915883 -1684179049 -1813456861 1767287393
REM
CELL 1.54180   15.00000   15.00000   15.00000   90.00000   90.00000   90.00000
LATT -1
SFAC C  
C      1  0.7187540000000  0.5381720000000  0.4529060000000 1.0
C      1  0.5318090000000  0.7155090000000  0.4531010000000 1.0
C      1  0.3042980000000  0.5996090000000  0.4529140000000 1.0
C      1  0.3527430000000  0.3464940000000  0.4531550000000 1.0
C      1  0.6058080000000  0.3099100000000  0.4533840000000 1.0
C      1  0.7187540000000  0.5381720000000  0.5470940000000 1.0
C      1  0.5318090000000  0.7155090000000  0.5468990000000 1.0
C      1  0.3042980000000  0.5996090000000  0.5470860000000 1.0
C      1  0.3527430000000  0.3464940000000  0.5468450000000 1.0
C      1  0.6058080000000  0.3099100000000  0.5466160000000 1.0
C      1  0.4728980000000  0.5791950000000  0.2859870000000 1.0
C      1  0.4098960000000  0.5020690000000  0.3051260000000 1.0
C      1  0.4556440000000  0.4159430000000  0.2723730000000 1.0
C      1  0.5470470000000  0.4348420000000  0.3115720000000 1.0
C      1  0.5587530000000  0.5426050000000  0.3168430000000 1.0
C      1  0.4728980000000  0.5791950000000  0.7140130000000 1.0
C      1  0.4098960000000  0.5020690000000  0.6948740000000 1.0
C      1  0.4556440000000  0.4159430000000  0.7276270000000 1.0
C      1  0.5470470000000  0.4348420000000  0.6884280000000 1.0
C      1  0.5587530000000  0.5426050000000  0.6831570000000 1.0
C      1  0.4586350000000  0.6662870000000  0.3115020000000 1.0
C      1  0.3143110000000  0.5159550000000  0.3139630000000 1.0
C      1  0.4227230000000  0.3404880000000  0.3114580000000 1.0
C      1  0.6222810000000  0.3755470000000  0.3122260000000 1.0
C      1  0.6466360000000  0.5863370000000  0.3134530000000 1.0
C      1  0.4586350000000  0.6662870000000  0.6884980000000 1.0
C      1  0.3143110000000  0.5159550000000  0.6860370000000 1.0
C      1  0.4227230000000  0.3404880000000  0.6885420000000 1.0
C      1  0.6222810000000  0.3755470000000  0.6877740000000 1.0
C      1  0.6466360000000  0.5863370000000  0.6865470000000 1.0
C      1  0.4520680000000  0.7062240000000  0.6066770000000 1.0
C      1  0.2848840000000  0.5201570000000  0.6006130000000 1.0
C      1  0.4214980000000  0.3084000000000  0.6043780000000 1.0
C      1  0.6653140000000  0.3593890000000  0.6075300000000 1.0
C      1  0.6868790000000  0.6100040000000  0.6069660000000 1.0
C      1  0.4520680000000  0.7062240000000  0.3933230000000 1.0
C      1  0.2848840000000  0.5201570000000  0.3993870000000 1.0
C      1  0.4214980000000  0.3084000000000  0.3956220000000 1.0
C      1  0.6653140000000  0.3593890000000  0.3924700000000 1.0
C      1  0.6868790000000  0.6100040000000  0.3930340000000 1.0
C      1  0.5518280000000  0.5666310000000  0.5826980000000 1.0
C      1  0.4582000000000  0.5630220000000  0.5495070000000 1.0
C      1  0.4305890000000  0.4787080000000  0.5939340000000 1.0
C      1  0.5144720000000  0.4250800000000  0.5912730000000 1.0
C      1  0.5831610000000  0.4800740000000  0.5479750000000 1.0
C      1  0.5518280000000  0.5666310000000  0.4173020000000 1.0
C      1  0.4582000000000  0.5630220000000  0.4504930000000 1.0
C      1  0.4305890000000  0.4787080000000  0.4060660000000 1.0
C      1  0.5144720000000  0.4250800000000  0.4087270000000 1.0
C      1  0.5831610000000  0.4800740000000  0.4520250000000 1.0
C      1  0.6033970000000  0.6441940000000  0.4491140000000 1.0
C      1  0.3953150000000  0.6431200000000  0.4473770000000 1.0
C      1  0.3451800000000  0.4467140000000  0.4491200000000 1.0
C      1  0.5080160000000  0.3339220000000  0.4478710000000 1.0
C      1  0.6769640000000  0.4453990000000  0.4459040000000 1.0
C      1  0.6033970000000  0.6441940000000  0.5508860000000 1.0
C      1  0.3953150000000  0.6431200000000  0.5526230000000 1.0
C      1  0.3451800000000  0.4467140000000  0.5508800000000 1.0
C      1  0.5080160000000  0.3339220000000  0.5521290000000 1.0
C      1  0.6769640000000  0.4453990000000  0.5540960000000 1.0
END
