TITL C-2159255-4746-1103 -0.00475877200887103 3375 -383.355282467476 0 0 60 (C6) n - 1
REM
REM in /scratch/bkarasulu/871
REM
REM
REM
REM
REM
REM ./C.cell (a2850807a9bf4ad07a5b6933b78d9264)
REM AIRSS Version 0.9.1 bugfix July 2018 build 013d7b7c2542+ Fri, 06 Jul 2018 19:26:36 +0100
REM compiler GCC version 9.2.1 20190827 (Red Hat 9.2.1-1)
REM options -cpp -mtune=generic -march=x86-64 -g -O0 -fpre-include=/usr/include/finclude/math-vector-fortran.h
REM seed 2128213019 -307818034 106523864 267464992 -1954567089 1685207704 1225774802 1255847034 1378127076 -328255113 -618282666 1421937266 -1921635325 1976870261 -1144812147 1923216572 609072641 283889870 1902887270 819361839 1099558242 -502730581 1994300991 464351428 -450241925 -1587295228 1754965347 -677572820 24140395 -919877592 -347230427 -381043763 -662298585
REM
CELL 1.54180   15.00000   15.00000   15.00000   90.00000   90.00000   90.00000
LATT -1
SFAC C  
C      1  0.4226240000000  0.7532460000000  0.5464570000000 1.0
C      1  0.4226340000000  0.6668490000000  0.3039200000000 1.0
C      1  0.4226310000000  0.4136130000000  0.2574590000000 1.0
C      1  0.4226240000000  0.2467540000000  0.4535430000000 1.0
C      1  0.4226340000000  0.3331510000000  0.6960800000000 1.0
C      1  0.4226310000000  0.5863870000000  0.7425410000000 1.0
C      1  0.4226240000000  0.2467540000000  0.5464570000000 1.0
C      1  0.4226340000000  0.3331510000000  0.3039200000000 1.0
C      1  0.4226310000000  0.5863870000000  0.2574590000000 1.0
C      1  0.4226240000000  0.7532460000000  0.4535430000000 1.0
C      1  0.4226340000000  0.6668490000000  0.6960800000000 1.0
C      1  0.4226310000000  0.4136130000000  0.7425410000000 1.0
C      1  0.3548730000000  0.3237720000000  0.4507650000000 1.0
C      1  0.3548790000000  0.3692480000000  0.6279980000000 1.0
C      1  0.3548760000000  0.5454740000000  0.6772360000000 1.0
C      1  0.3548730000000  0.6762280000000  0.5492350000000 1.0
C      1  0.3548790000000  0.6307520000000  0.3720020000000 1.0
C      1  0.3548760000000  0.4545260000000  0.3227640000000 1.0
C      1  0.3548730000000  0.6762280000000  0.4507650000000 1.0
C      1  0.3548790000000  0.6307520000000  0.6279980000000 1.0
C      1  0.3548760000000  0.4545260000000  0.6772360000000 1.0
C      1  0.3548730000000  0.3237720000000  0.5492350000000 1.0
C      1  0.3548790000000  0.3692480000000  0.3720020000000 1.0
C      1  0.3548760000000  0.5454740000000  0.3227640000000 1.0
C      1  0.5031780000000  0.2564520000000  0.4114090000000 1.0
C      1  0.5031850000000  0.3015070000000  0.6666110000000 1.0
C      1  0.5031850000000  0.5450470000000  0.7552140000000 1.0
C      1  0.5031780000000  0.7435480000000  0.5885910000000 1.0
C      1  0.5031850000000  0.6984930000000  0.3333890000000 1.0
C      1  0.5031850000000  0.4549530000000  0.2447860000000 1.0
C      1  0.5031780000000  0.7435480000000  0.4114090000000 1.0
C      1  0.5031850000000  0.6984930000000  0.6666110000000 1.0
C      1  0.5031850000000  0.4549530000000  0.7552140000000 1.0
C      1  0.5031780000000  0.2564520000000  0.5885910000000 1.0
C      1  0.5031850000000  0.3015070000000  0.3333890000000 1.0
C      1  0.5031850000000  0.5450470000000  0.2447860000000 1.0
C      1  0.6358660000000  0.6761090000000  0.2817730000000 1.0
C      1  0.6358470000000  0.3990930000000  0.2383510000000 1.0
C      1  0.6358230000000  0.2229220000000  0.4565790000000 1.0
C      1  0.6358660000000  0.3238910000000  0.7182270000000 1.0
C      1  0.6358470000000  0.6009070000000  0.7616490000000 1.0
C      1  0.6358230000000  0.7770780000000  0.5434210000000 1.0
C      1  0.6358660000000  0.3238910000000  0.2817730000000 1.0
C      1  0.6358470000000  0.6009070000000  0.2383510000000 1.0
C      1  0.6358230000000  0.7770780000000  0.4565790000000 1.0
C      1  0.6358660000000  0.6761090000000  0.7182270000000 1.0
C      1  0.6358470000000  0.3990930000000  0.7616490000000 1.0
C      1  0.6358230000000  0.2229220000000  0.5434210000000 1.0
C      1  0.5834630000000  0.5497640000000  0.6860640000000 1.0
C      1  0.5834680000000  0.6860300000000  0.5499350000000 1.0
C      1  0.5834680000000  0.6362630000000  0.3638670000000 1.0
C      1  0.5834630000000  0.4502360000000  0.3139360000000 1.0
C      1  0.5834680000000  0.3139700000000  0.4500650000000 1.0
C      1  0.5834680000000  0.3637370000000  0.6361330000000 1.0
C      1  0.5834630000000  0.4502360000000  0.6860640000000 1.0
C      1  0.5834680000000  0.3139700000000  0.5499350000000 1.0
C      1  0.5834680000000  0.3637370000000  0.3638670000000 1.0
C      1  0.5834630000000  0.5497640000000  0.3139360000000 1.0
C      1  0.5834680000000  0.6860300000000  0.4500650000000 1.0
C      1  0.5834680000000  0.6362630000000  0.6361330000000 1.0
END
