TITL C-2159255-4746-927 -0.00182800063541097 3375 -401.011933020495 0 0 60 (Ci) n - 1
REM
REM in /scratch/bkarasulu/871
REM
REM
REM
REM
REM
REM ./C.cell (a2850807a9bf4ad07a5b6933b78d9264)
REM AIRSS Version 0.9.1 bugfix July 2018 build 013d7b7c2542+ Fri, 06 Jul 2018 19:26:36 +0100
REM compiler GCC version 9.2.1 20190827 (Red Hat 9.2.1-1)
REM options -cpp -mtune=generic -march=x86-64 -g -O0 -fpre-include=/usr/include/finclude/math-vector-fortran.h
REM seed 1872176374 1071644928 1774887313 1554400302 1394323482 971311287 262530385 1686534315 -342145786 -472292469 2028604580 -159487524 764165875 2108268096 -1347792984 646988707 1075259754 1202202794 -1362583757 -1251247601 -1912617318 -2047119533 -6451488 -2123552801 68577137 -504899256 -527696192 325274075 -125168846 1100859194 1273908780 518437605 -395978169
REM
CELL 1.54180   15.00000   15.00000   15.00000   90.00000   90.00000   90.00000
LATT -1
SFAC C  
C      1  0.4074480000000  0.4261820000000  0.5101390000000 1.0
C      1  0.5925520000000  0.5738180000000  0.4898610000000 1.0
C      1  0.3172260000000  0.4256180000000  0.4036830000000 1.0
C      1  0.6827740000000  0.5743820000000  0.5963170000000 1.0
C      1  0.3564680000000  0.4442890000000  0.6614180000000 1.0
C      1  0.6435320000000  0.5557110000000  0.3385820000000 1.0
C      1  0.6104050000000  0.5735460000000  0.7378990000000 1.0
C      1  0.3895950000000  0.4264540000000  0.2621010000000 1.0
C      1  0.5511920000000  0.4286810000000  0.2706510000000 1.0
C      1  0.4488080000000  0.5713190000000  0.7293490000000 1.0
C      1  0.2797650000000  0.4553750000000  0.6024330000000 1.0
C      1  0.7202350000000  0.5446250000000  0.3975670000000 1.0
C      1  0.7016110000000  0.3958460000000  0.4296670000000 1.0
C      1  0.2983890000000  0.6041540000000  0.5703330000000 1.0
C      1  0.6921020000000  0.5435420000000  0.5024290000000 1.0
C      1  0.3078980000000  0.4564580000000  0.4975710000000 1.0
C      1  0.4333050000000  0.4224970000000  0.6096310000000 1.0
C      1  0.5666950000000  0.5775030000000  0.3903690000000 1.0
C      1  0.3449310000000  0.4831250000000  0.3282100000000 1.0
C      1  0.6550690000000  0.5168750000000  0.6717900000000 1.0
C      1  0.3066690000000  0.5531560000000  0.4908780000000 1.0
C      1  0.6933310000000  0.4468440000000  0.5091220000000 1.0
C      1  0.7119000000000  0.4554740000000  0.3574100000000 1.0
C      1  0.2881000000000  0.5445260000000  0.6425900000000 1.0
C      1  0.5086620000000  0.3464200000000  0.3102430000000 1.0
C      1  0.4913380000000  0.6535800000000  0.6897570000000 1.0
C      1  0.4685880000000  0.4812030000000  0.2522890000000 1.0
C      1  0.5314120000000  0.5187970000000  0.7477110000000 1.0
C      1  0.5876850000000  0.6516060000000  0.6952740000000 1.0
C      1  0.4123150000000  0.3483940000000  0.3047260000000 1.0
C      1  0.6075520000000  0.3256260000000  0.5950890000000 1.0
C      1  0.3924480000000  0.6743740000000  0.4049110000000 1.0
C      1  0.6059910000000  0.4049980000000  0.5271870000000 1.0
C      1  0.3940090000000  0.5950020000000  0.4728130000000 1.0
C      1  0.5727120000000  0.4546510000000  0.6824070000000 1.0
C      1  0.4272880000000  0.5453490000000  0.3175930000000 1.0
C      1  0.5580070000000  0.6626630000000  0.5371300000000 1.0
C      1  0.4419930000000  0.3373370000000  0.4628700000000 1.0
C      1  0.4905520000000  0.5127720000000  0.3834500000000 1.0
C      1  0.5094480000000  0.4872280000000  0.6165500000000 1.0
C      1  0.5282720000000  0.7162040000000  0.4517820000000 1.0
C      1  0.4717280000000  0.2837960000000  0.5482180000000 1.0
C      1  0.5606310000000  0.3569500000000  0.6680160000000 1.0
C      1  0.4393690000000  0.6430500000000  0.3319840000000 1.0
C      1  0.5262950000000  0.6626100000000  0.3718320000000 1.0
C      1  0.4737050000000  0.3373900000000  0.6281680000000 1.0
C      1  0.5246050000000  0.3197940000000  0.4018760000000 1.0
C      1  0.4753950000000  0.6802060000000  0.5981240000000 1.0
C      1  0.4108340000000  0.7405690000000  0.5486340000000 1.0
C      1  0.5891660000000  0.2594310000000  0.4513660000000 1.0
C      1  0.5408020000000  0.4958440000000  0.5269890000000 1.0
C      1  0.4591980000000  0.5041560000000  0.4730110000000 1.0
C      1  0.3725130000000  0.3459270000000  0.3916230000000 1.0
C      1  0.6274870000000  0.6540730000000  0.6083770000000 1.0
C      1  0.3641230000000  0.5312710000000  0.7064250000000 1.0
C      1  0.6358770000000  0.4687290000000  0.2935750000000 1.0
C      1  0.6186980000000  0.3487050000000  0.4422210000000 1.0
C      1  0.3813020000000  0.6512950000000  0.5577790000000 1.0
C      1  0.5610800000000  0.2559940000000  0.5413280000000 1.0
C      1  0.4389200000000  0.7440060000000  0.4586720000000 1.0
END
