TITL C-2158988-7926-846 -0.00204659187549353 3375 -405.141522011691 0 0 60 (S4) n - 1
REM
REM in /scratch/bkarasulu/868
REM
REM
REM
REM
REM
REM ./C.cell (a2850807a9bf4ad07a5b6933b78d9264)
REM AIRSS Version 0.9.1 bugfix July 2018 build 013d7b7c2542+ Fri, 06 Jul 2018 19:26:36 +0100
REM compiler GCC version 9.2.1 20190827 (Red Hat 9.2.1-1)
REM options -cpp -mtune=generic -march=x86-64 -g -O0 -fpre-include=/usr/include/finclude/math-vector-fortran.h
REM seed -579954437 1521995472 1900972833 1006146596 1079424452 1578520265 -984596722 483751398 645495036 -1683304934 956361596 -2082498243 -1134262098 -870248591 -712336045 647223227 1352209988 -931911575 1279072582 325661024 -1109514025 768376551 1977143295 1405846765 1930214346 -887363656 -575448483 469433282 -1990536654 282883303 -1702376519 -1647741584 193921657
REM
CELL 1.54180   15.00000   15.00000   15.00000   90.00000   90.00000   90.00000
LATT -1
SFAC C  
C      1  0.6747670000000  0.5735140000000  0.5860390000000 1.0
C      1  0.3252330000000  0.5860390000000  0.4264860000000 1.0
C      1  0.6747670000000  0.4264860000000  0.4139610000000 1.0
C      1  0.3252330000000  0.4139610000000  0.5735140000000 1.0
C      1  0.6172240000000  0.7072620000000  0.5084920000000 1.0
C      1  0.3827760000000  0.5084920000000  0.2927380000000 1.0
C      1  0.6172240000000  0.2927380000000  0.4915080000000 1.0
C      1  0.3827760000000  0.4915080000000  0.7072620000000 1.0
C      1  0.4824470000000  0.2810790000000  0.6039100000000 1.0
C      1  0.5175530000000  0.6039100000000  0.7189210000000 1.0
C      1  0.4824470000000  0.7189210000000  0.3960900000000 1.0
C      1  0.5175530000000  0.3960900000000  0.2810790000000 1.0
C      1  0.3457850000000  0.4289990000000  0.3247770000000 1.0
C      1  0.6542150000000  0.3247770000000  0.5710010000000 1.0
C      1  0.3457850000000  0.5710010000000  0.6752230000000 1.0
C      1  0.6542150000000  0.6752230000000  0.4289990000000 1.0
C      1  0.4740730000000  0.4361960000000  0.5848010000000 1.0
C      1  0.5259270000000  0.5848010000000  0.5638040000000 1.0
C      1  0.4740730000000  0.5638040000000  0.4151990000000 1.0
C      1  0.5259270000000  0.4151990000000  0.4361960000000 1.0
C      1  0.4442000000000  0.7061670000000  0.4843840000000 1.0
C      1  0.5558000000000  0.4843840000000  0.2938330000000 1.0
C      1  0.4442000000000  0.2938330000000  0.5156160000000 1.0
C      1  0.5558000000000  0.5156160000000  0.7061670000000 1.0
C      1  0.4942010000000  0.3660450000000  0.7579590000000 1.0
C      1  0.5057990000000  0.7579590000000  0.6339550000000 1.0
C      1  0.4942010000000  0.6339550000000  0.2420410000000 1.0
C      1  0.5057990000000  0.2420410000000  0.3660450000000 1.0
C      1  0.5478580000000  0.3260870000000  0.3427990000000 1.0
C      1  0.4521420000000  0.3427990000000  0.6739130000000 1.0
C      1  0.5478580000000  0.6739130000000  0.6572010000000 1.0
C      1  0.4521420000000  0.6572010000000  0.3260870000000 1.0
C      1  0.6043510000000  0.6443390000000  0.5826410000000 1.0
C      1  0.3956490000000  0.5826410000000  0.3556610000000 1.0
C      1  0.6043510000000  0.3556610000000  0.4173590000000 1.0
C      1  0.3956490000000  0.4173590000000  0.6443390000000 1.0
C      1  0.3161280000000  0.4220290000000  0.4142700000000 1.0
C      1  0.6838720000000  0.4142700000000  0.5779710000000 1.0
C      1  0.3161280000000  0.5779710000000  0.5857300000000 1.0
C      1  0.6838720000000  0.5857300000000  0.4220290000000 1.0
C      1  0.3606320000000  0.3816900000000  0.4909920000000 1.0
C      1  0.6393680000000  0.4909920000000  0.6183100000000 1.0
C      1  0.3606320000000  0.6183100000000  0.5090080000000 1.0
C      1  0.6393680000000  0.5090080000000  0.3816900000000 1.0
C      1  0.5302790000000  0.4438600000000  0.7637900000000 1.0
C      1  0.4697210000000  0.7637900000000  0.5561400000000 1.0
C      1  0.5302790000000  0.5561400000000  0.2362100000000 1.0
C      1  0.4697210000000  0.2362100000000  0.4438600000000 1.0
C      1  0.2877810000000  0.4957100000000  0.5477820000000 1.0
C      1  0.7122190000000  0.5477820000000  0.5042900000000 1.0
C      1  0.2877810000000  0.5042900000000  0.4522180000000 1.0
C      1  0.7122190000000  0.4522180000000  0.4957100000000 1.0
C      1  0.5764530000000  0.7280600000000  0.4252330000000 1.0
C      1  0.4235470000000  0.4252330000000  0.2719400000000 1.0
C      1  0.5764530000000  0.2719400000000  0.5747670000000 1.0
C      1  0.4235470000000  0.5747670000000  0.7280600000000 1.0
C      1  0.5406480000000  0.5014460000000  0.6073600000000 1.0
C      1  0.4593520000000  0.6073600000000  0.4985540000000 1.0
C      1  0.5406480000000  0.4985540000000  0.3926400000000 1.0
C      1  0.4593520000000  0.3926400000000  0.5014460000000 1.0
END
