TITL C-2159255-4746-1445 -0.0013559549550235 3375 -390.587050173783 0 0 60 (C3) n - 1
REM
REM in /scratch/bkarasulu/871
REM
REM
REM
REM
REM
REM ./C.cell (a2850807a9bf4ad07a5b6933b78d9264)
REM AIRSS Version 0.9.1 bugfix July 2018 build 013d7b7c2542+ Fri, 06 Jul 2018 19:26:36 +0100
REM compiler GCC version 9.2.1 20190827 (Red Hat 9.2.1-1)
REM options -cpp -mtune=generic -march=x86-64 -g -O0 -fpre-include=/usr/include/finclude/math-vector-fortran.h
REM seed -1072143734 -961639294 1050801532 -1253710397 -1545302914 1989515591 126453029 334856794 -1575487181 -2079899394 481022755 126755102 -879227288 -1818412283 2114916657 1409687839 -883130007 -941061402 -1382680977 -1588067974 -921478705 1001886662 -844555085 -443602089 681959496 342887242 1068149398 4636028 610640092 1163411514 1297100319 -435170396 1195607336
REM
CELL 1.54180   15.00000   15.00000   15.00000   90.00000   90.00000   90.00000
LATT -1
SFAC C  
C      1  0.5374090000000  0.4109680000000  0.3541700000000 1.0
C      1  0.5583960000000  0.5769120000000  0.3541690000000 1.0
C      1  0.4041910000000  0.5121170000000  0.3541700000000 1.0
C      1  0.3727370000000  0.4415330000000  0.6049170000000 1.0
C      1  0.6142690000000  0.4190220000000  0.6049140000000 1.0
C      1  0.5129980000000  0.6394500000000  0.6049140000000 1.0
C      1  0.3980710000000  0.3457100000000  0.3505380000000 1.0
C      1  0.6845830000000  0.4888710000000  0.3505360000000 1.0
C      1  0.4173460000000  0.6654200000000  0.3505360000000 1.0
C      1  0.5685850000000  0.4191420000000  0.4500210000000 1.0
C      1  0.5357310000000  0.5998250000000  0.4500210000000 1.0
C      1  0.3956830000000  0.4810320000000  0.4500220000000 1.0
C      1  0.7127490000000  0.4594430000000  0.4336370000000 1.0
C      1  0.4287480000000  0.7045260000000  0.4336380000000 1.0
C      1  0.3585040000000  0.3360320000000  0.4336400000000 1.0
C      1  0.4590490000000  0.4523690000000  0.5301200000000 1.0
C      1  0.5617300000000  0.4883490000000  0.5301190000000 1.0
C      1  0.4792250000000  0.5592840000000  0.5301190000000 1.0
C      1  0.4180610000000  0.5527910000000  0.6896190000000 1.0
C      1  0.4952550000000  0.4026440000000  0.6896190000000 1.0
C      1  0.5866890000000  0.5445700000000  0.6896180000000 1.0
C      1  0.3587400000000  0.6615690000000  0.4874420000000 1.0
C      1  0.4307070000000  0.2968810000000  0.4874460000000 1.0
C      1  0.7105520000000  0.5415490000000  0.4874420000000 1.0
C      1  0.6609480000000  0.3855280000000  0.4601120000000 1.0
C      1  0.5186600000000  0.6966220000000  0.4601130000000 1.0
C      1  0.3203910000000  0.4178500000000  0.4601160000000 1.0
C      1  0.3644590000000  0.6762330000000  0.5880040000000 1.0
C      1  0.4151500000000  0.2945020000000  0.5880080000000 1.0
C      1  0.7203940000000  0.5292680000000  0.5880030000000 1.0
C      1  0.4947270000000  0.2549770000000  0.4231290000000 1.0
C      1  0.7148260000000  0.6179420000000  0.4231220000000 1.0
C      1  0.2904460000000  0.6270710000000  0.4231230000000 1.0
C      1  0.2470020000000  0.5458700000000  0.4275020000000 1.0
C      1  0.5867700000000  0.2579600000000  0.4275020000000 1.0
C      1  0.6662240000000  0.6961640000000  0.4274980000000 1.0
C      1  0.4966210000000  0.3212510000000  0.6365560000000 1.0
C      1  0.6564940000000  0.5864480000000  0.6365520000000 1.0
C      1  0.3468900000000  0.5923050000000  0.6365550000000 1.0
C      1  0.5436340000000  0.3058400000000  0.3594870000000 1.0
C      1  0.6463220000000  0.6348700000000  0.3594830000000 1.0
C      1  0.3100340000000  0.5592790000000  0.3594850000000 1.0
C      1  0.6159880000000  0.5683250000000  0.5061040000000 1.0
C      1  0.3828340000000  0.5662870000000  0.5061050000000 1.0
C      1  0.5011770000000  0.3653890000000  0.5061070000000 1.0
C      1  0.4418580000000  0.4226300000000  0.3356520000000 1.0
C      1  0.5960730000000  0.4883320000000  0.3356530000000 1.0
C      1  0.4620640000000  0.5890360000000  0.3356530000000 1.0
C      1  0.5764640000000  0.4513590000000  0.6873870000000 1.0
C      1  0.5038960000000  0.5905410000000  0.6873870000000 1.0
C      1  0.4196450000000  0.4581050000000  0.6873890000000 1.0
C      1  0.6050280000000  0.7151960000000  0.4979650000000 1.0
C      1  0.2611200000000  0.4833580000000  0.4979700000000 1.0
C      1  0.6338500000000  0.3014450000000  0.4979670000000 1.0
C      1  0.3208670000000  0.5218020000000  0.5735880000000 1.0
C      1  0.5706870000000  0.3339660000000  0.5735870000000 1.0
C      1  0.6084480000000  0.6442340000000  0.5735850000000 1.0
C      1  0.7054900000000  0.4422170000000  0.6040560000000 1.0
C      1  0.4473000000000  0.7068520000000  0.6040530000000 1.0
C      1  0.3472140000000  0.3509370000000  0.6040580000000 1.0
END
