TITL C-2158984-8299-650 -0.00212272588983308 3375 -399.837027692247 0 0 60 (C5) n - 1
REM
REM in /scratch/bkarasulu/869
REM
REM
REM
REM
REM
REM ./C.cell (a2850807a9bf4ad07a5b6933b78d9264)
REM AIRSS Version 0.9.1 bugfix July 2018 build 013d7b7c2542+ Fri, 06 Jul 2018 19:26:36 +0100
REM compiler GCC version 9.2.1 20190827 (Red Hat 9.2.1-1)
REM options -cpp -mtune=generic -march=x86-64 -g -O0 -fpre-include=/usr/include/finclude/math-vector-fortran.h
REM seed 887150946 162158769 -483861063 -54792680 246372415 1855127763 936120118 -782456164 -560193804 1025983406 -935558756 -1161288716 675079102 583361213 -452338932 619433072 483123060 -1002745515 1090654803 -1457377933 -1839414116 22259167 -9678919 538098088 -740253832 518452646 2085907069 -862696133 2140474826 -1551242783 1466359580 -1319492058 762665306
REM
CELL 1.54180   15.00000   15.00000   15.00000   90.00000   90.00000   90.00000
LATT -1
SFAC C  
C      1  0.3267820000000  0.5905940000000  0.5119740000000 1.0
C      1  0.3267820000000  0.5166070000000  0.5898600000000 1.0
C      1  0.3267810000000  0.4196710000000  0.5435620000000 1.0
C      1  0.3267810000000  0.4337470000000  0.4370640000000 1.0
C      1  0.3267810000000  0.5393830000000  0.4175410000000 1.0
C      1  0.5405340000000  0.3212200000000  0.3900470000000 1.0
C      1  0.5405350000000  0.5493250000000  0.2959920000000 1.0
C      1  0.5405350000000  0.7092650000000  0.4838690000000 1.0
C      1  0.5405350000000  0.5800070000000  0.6940380000000 1.0
C      1  0.5405350000000  0.3401830000000  0.6360520000000 1.0
C      1  0.4490580000000  0.5183440000000  0.2938580000000 1.0
C      1  0.4490590000000  0.7017220000000  0.4537450000000 1.0
C      1  0.4490590000000  0.6063270000000  0.6775550000000 1.0
C      1  0.4490580000000  0.3639930000000  0.6559900000000 1.0
C      1  0.4490580000000  0.3096160000000  0.4188530000000 1.0
C      1  0.7184780000000  0.6444130000000  0.5224720000000 1.0
C      1  0.7184780000000  0.5232530000000  0.6442890000000 1.0
C      1  0.7184770000000  0.3699580000000  0.5667030000000 1.0
C      1  0.7184770000000  0.3963760000000  0.3969350000000 1.0
C      1  0.7184770000000  0.5659980000000  0.3695990000000 1.0
C      1  0.4825150000000  0.5671220000000  0.5447780000000 1.0
C      1  0.4825150000000  0.4781550000000  0.5776740000000 1.0
C      1  0.4825140000000  0.4193770000000  0.5032270000000 1.0
C      1  0.4825140000000  0.4720170000000  0.4243200000000 1.0
C      1  0.4825150000000  0.5633290000000  0.4500000000000 1.0
C      1  0.6960730000000  0.6063910000000  0.6058440000000 1.0
C      1  0.6960730000000  0.4322130000000  0.6338910000000 1.0
C      1  0.6960730000000  0.3517140000000  0.4769050000000 1.0
C      1  0.6960730000000  0.4761410000000  0.3518350000000 1.0
C      1  0.6960730000000  0.6335400000000  0.4315240000000 1.0
C      1  0.2217210000000  0.4391820000000  0.4422910000000 1.0
C      1  0.2217210000000  0.5360910000000  0.4243250000000 1.0
C      1  0.2217210000000  0.5831250000000  0.5109400000000 1.0
C      1  0.2217210000000  0.5152830000000  0.5824360000000 1.0
C      1  0.2217210000000  0.4263220000000  0.5400090000000 1.0
C      1  0.5429980000000  0.4868730000000  0.7110410000000 1.0
C      1  0.5429980000000  0.2952310000000  0.5527300000000 1.0
C      1  0.5429980000000  0.3865740000000  0.3215480000000 1.0
C      1  0.5429980000000  0.6346660000000  0.3369800000000 1.0
C      1  0.5429990000000  0.6966560000000  0.5777000000000 1.0
C      1  0.3881130000000  0.6708860000000  0.5253260000000 1.0
C      1  0.3881130000000  0.5287200000000  0.6703480000000 1.0
C      1  0.3881130000000  0.3468650000000  0.5799540000000 1.0
C      1  0.3881130000000  0.3766380000000  0.3790670000000 1.0
C      1  0.3881130000000  0.5768930000000  0.3453060000000 1.0
C      1  0.5982840000000  0.3240750000000  0.4727180000000 1.0
C      1  0.5982850000000  0.4715830000000  0.3242550000000 1.0
C      1  0.5982850000000  0.6583620000000  0.4186650000000 1.0
C      1  0.5982850000000  0.6262900000000  0.6254770000000 1.0
C      1  0.5982850000000  0.4196900000000  0.6588840000000 1.0
C      1  0.4529250000000  0.4292450000000  0.3289090000000 1.0
C      1  0.4529250000000  0.6408530000000  0.3798380000000 1.0
C      1  0.4529260000000  0.6578080000000  0.5968270000000 1.0
C      1  0.4529250000000  0.4566770000000  0.6800060000000 1.0
C      1  0.4529250000000  0.3154170000000  0.5144220000000 1.0
C      1  0.5825180000000  0.4648500000000  0.5739250000000 1.0
C      1  0.5825180000000  0.4188310000000  0.4894150000000 1.0
C      1  0.5825180000000  0.4849850000000  0.4195330000000 1.0
C      1  0.5825190000000  0.5718880000000  0.4608540000000 1.0
C      1  0.5825190000000  0.5594450000000  0.5562730000000 1.0
END
