TITL C-2158984-8299-116 -0.00227058401855228 3375 -402.444632293639 0 0 60 (C5) n - 1
REM
REM in /scratch/bkarasulu/869
REM
REM
REM
REM
REM
REM ./C.cell (a2850807a9bf4ad07a5b6933b78d9264)
REM AIRSS Version 0.9.1 bugfix July 2018 build 013d7b7c2542+ Fri, 06 Jul 2018 19:26:36 +0100
REM compiler GCC version 9.2.1 20190827 (Red Hat 9.2.1-1)
REM options -cpp -mtune=generic -march=x86-64 -g -O0 -fpre-include=/usr/include/finclude/math-vector-fortran.h
REM seed -1330024563 -808787102 -784163759 -2056981533 -960962657 92586503 1268466330 -1188393863 1055689087 -1508304266 -1607713112 -548338281 -1728908407 1229640594 1430839955 -384323168 -170844372 523759639 -1865151197 -1344709285 -1269612370 -1934767381 2003802590 -2000443479 13601872 -1846703152 42670812 1294128348 866426409 1885913918 299904911 654518953 1772209867
REM
CELL 1.54180   15.00000   15.00000   15.00000   90.00000   90.00000   90.00000
LATT -1
SFAC C  
C      1  0.2781840000000  0.5051710000000  0.6331550000000 1.0
C      1  0.5580940000000  0.5051720000000  0.7521090000000 1.0
C      1  0.7577210000000  0.5051710000000  0.5226520000000 1.0
C      1  0.6011830000000  0.5051690000000  0.2618930000000 1.0
C      1  0.3048170000000  0.5051690000000  0.3301900000000 1.0
C      1  0.5747660000000  0.4903920000000  0.5490790000000 1.0
C      1  0.5697800000000  0.4903920000000  0.4440610000000 1.0
C      1  0.4683610000000  0.4903920000000  0.4163500000000 1.0
C      1  0.4106660000000  0.4903920000000  0.5042410000000 1.0
C      1  0.4764280000000  0.4903920000000  0.5862730000000 1.0
C      1  0.5336370000000  0.5711090000000  0.2761880000000 1.0
C      1  0.2975380000000  0.5711090000000  0.3988470000000 1.0
C      1  0.3412340000000  0.5711090000000  0.6612940000000 1.0
C      1  0.6043390000000  0.5711090000000  0.7008380000000 1.0
C      1  0.7232510000000  0.5711090000000  0.4628280000000 1.0
C      1  0.4528990000000  0.5583130000000  0.3291890000000 1.0
C      1  0.3229940000000  0.5583140000000  0.4920120000000 1.0
C      1  0.4377050000000  0.5583140000000  0.6658740000000 1.0
C      1  0.6385060000000  0.5583130000000  0.6105030000000 1.0
C      1  0.6478950000000  0.5583130000000  0.4024200000000 1.0
C      1  0.5770010000000  0.2229180000000  0.5387670000000 1.0
C      1  0.5606630000000  0.2229170000000  0.4387490000000 1.0
C      1  0.4604920000000  0.2229170000000  0.4233800000000 1.0
C      1  0.4149210000000  0.2229180000000  0.5138990000000 1.0
C      1  0.4869270000000  0.2229180000000  0.5852120000000 1.0
C      1  0.6040390000000  0.4019190000000  0.3993710000000 1.0
C      1  0.4364460000000  0.4019180000000  0.3699570000000 1.0
C      1  0.3566820000000  0.4019190000000  0.5202590000000 1.0
C      1  0.4749800000000  0.4019190000000  0.6425660000000 1.0
C      1  0.6278560000000  0.4019190000000  0.5678510000000 1.0
C      1  0.3241930000000  0.6509110000000  0.3570450000000 1.0
C      1  0.3097140000000  0.6509120000000  0.6230260000000 1.0
C      1  0.5582040000000  0.6509110000000  0.7189900000000 1.0
C      1  0.7262570000000  0.6509110000000  0.5123150000000 1.0
C      1  0.5816290000000  0.6509120000000  0.2886210000000 1.0
C      1  0.3382070000000  0.6490230000000  0.5350670000000 1.0
C      1  0.4833540000000  0.6490220000000  0.6647100000000 1.0
C      1  0.6515050000000  0.6490220000000  0.5667280000000 1.0
C      1  0.6102790000000  0.6490220000000  0.3765290000000 1.0
C      1  0.4166520000000  0.6490220000000  0.3569620000000 1.0
C      1  0.7282070000000  0.5099970000000  0.6070830000000 1.0
C      1  0.6723610000000  0.5099960000000  0.3160530000000 1.0
C      1  0.3783210000000  0.5099960000000  0.2792310000000 1.0
C      1  0.2524340000000  0.5099970000000  0.5475010000000 1.0
C      1  0.4686760000000  0.5099970000000  0.7501290000000 1.0
C      1  0.7171430000000  0.4241210000000  0.5709380000000 1.0
C      1  0.6345660000000  0.4241200000000  0.3154070000000 1.0
C      1  0.3660260000000  0.4241200000000  0.3149770000000 1.0
C      1  0.2826310000000  0.4241210000000  0.5702400000000 1.0
C      1  0.4996320000000  0.4241210000000  0.7284370000000 1.0
C      1  0.4608960000000  0.6932420000000  0.4289540000000 1.0
C      1  0.4203480000000  0.6932420000000  0.5152350000000 1.0
C      1  0.4898760000000  0.6932410000000  0.5804610000000 1.0
C      1  0.5733950000000  0.6932410000000  0.5344920000000 1.0
C      1  0.5554840000000  0.6932420000000  0.4408560000000 1.0
C      1  0.4146280000000  0.3228870000000  0.5146390000000 1.0
C      1  0.4875410000000  0.3228870000000  0.5857190000000 1.0
C      1  0.5776730000000  0.3228870000000  0.5383390000000 1.0
C      1  0.5604640000000  0.3228870000000  0.4379780000000 1.0
C      1  0.4596970000000  0.3228870000000  0.4233310000000 1.0
END
