TITL C-2158984-8299-160 -0.00254944283026766 3375 -435.96399775503 0 0 60 (C1) n - 1
REM
REM in /scratch/bkarasulu/869
REM
REM
REM
REM
REM
REM ./C.cell (a2850807a9bf4ad07a5b6933b78d9264)
REM AIRSS Version 0.9.1 bugfix July 2018 build 013d7b7c2542+ Fri, 06 Jul 2018 19:26:36 +0100
REM compiler GCC version 9.2.1 20190827 (Red Hat 9.2.1-1)
REM options -cpp -mtune=generic -march=x86-64 -g -O0 -fpre-include=/usr/include/finclude/math-vector-fortran.h
REM seed 1466206750 -2122546516 334014966 625383445 -1805374726 117306906 -1237721961 970974608 508207026 -1051431547 -1900998435 1190269574 -328766993 -448883695 1779784731 1559478332 -1284555342 -969317197 -2073742258 934781557 -370070488 -1151382514 -512356306 1925462531 -234306626 1173994807 778576808 738942630 507002514 916590974 -1925569372 1731179786 -2141665638
REM
CELL 1.54180   15.00000   15.00000   15.00000   90.00000   90.00000   90.00000
LATT -1
SFAC C  
C      1  0.6457040000000  0.6001930000000  0.6165070000000 1.0
C      1  0.6774580000000  0.5130170000000  0.5814190000000 1.0
C      1  0.6440490000000  0.4348080000000  0.6282650000000 1.0
C      1  0.6215500000000  0.3463850000000  0.5894860000000 1.0
C      1  0.6247080000000  0.3093900000000  0.5032880000000 1.0
C      1  0.6335070000000  0.3397000000000  0.4098080000000 1.0
C      1  0.6422050000000  0.4209130000000  0.3665220000000 1.0
C      1  0.6380380000000  0.5741440000000  0.3515820000000 1.0
C      1  0.6277380000000  0.6624470000000  0.3809510000000 1.0
C      1  0.6523420000000  0.6972760000000  0.4669920000000 1.0
C      1  0.6448850000000  0.6749420000000  0.5612780000000 1.0
C      1  0.3283630000000  0.3267800000000  0.4845020000000 1.0
C      1  0.3313460000000  0.3600290000000  0.3904590000000 1.0
C      1  0.3345610000000  0.4352080000000  0.3362540000000 1.0
C      1  0.3348890000000  0.5355540000000  0.3325480000000 1.0
C      1  0.3312330000000  0.6099340000000  0.3919720000000 1.0
C      1  0.3090810000000  0.5957790000000  0.4853500000000 1.0
C      1  0.3437450000000  0.6474240000000  0.5584950000000 1.0
C      1  0.3504620000000  0.6007230000000  0.6419410000000 1.0
C      1  0.3285580000000  0.5072520000000  0.6537900000000 1.0
C      1  0.3043560000000  0.4566800000000  0.5793540000000 1.0
C      1  0.3261760000000  0.3628920000000  0.5710980000000 1.0
C      1  0.4276900000000  0.7325580000000  0.4494600000000 1.0
C      1  0.4113100000000  0.7131150000000  0.5409880000000 1.0
C      1  0.4244110000000  0.6162730000000  0.6989220000000 1.0
C      1  0.3916060000000  0.4689700000000  0.7170880000000 1.0
C      1  0.4269740000000  0.3847620000000  0.7010190000000 1.0
C      1  0.3930880000000  0.3300190000000  0.6306110000000 1.0
C      1  0.3951110000000  0.2598920000000  0.4629260000000 1.0
C      1  0.4022500000000  0.2926710000000  0.3735510000000 1.0
C      1  0.4140520000000  0.4361210000000  0.2752580000000 1.0
C      1  0.4103520000000  0.5300700000000  0.2705580000000 1.0
C      1  0.3966840000000  0.6769130000000  0.3780100000000 1.0
C      1  0.5850890000000  0.7687780000000  0.4826030000000 1.0
C      1  0.5745780000000  0.7436020000000  0.5711800000000 1.0
C      1  0.5780630000000  0.6066120000000  0.6833160000000 1.0
C      1  0.5469110000000  0.5288100000000  0.7269840000000 1.0
C      1  0.5827430000000  0.4463180000000  0.7022580000000 1.0
C      1  0.5460630000000  0.3129810000000  0.6388900000000 1.0
C      1  0.5539880000000  0.2477890000000  0.4736780000000 1.0
C      1  0.5612820000000  0.2795520000000  0.3836400000000 1.0
C      1  0.5748470000000  0.4430410000000  0.3022010000000 1.0
C      1  0.5718150000000  0.5367950000000  0.2946080000000 1.0
C      1  0.5467430000000  0.7067750000000  0.3542570000000 1.0
C      1  0.4886840000000  0.7218860000000  0.6009160000000 1.0
C      1  0.4995120000000  0.6641830000000  0.6722320000000 1.0
C      1  0.4530530000000  0.5359310000000  0.7396300000000 1.0
C      1  0.5210520000000  0.3748070000000  0.7040410000000 1.0
C      1  0.4669820000000  0.2776300000000  0.6005280000000 1.0
C      1  0.4700460000000  0.2397440000000  0.5153330000000 1.0
C      1  0.4869230000000  0.3091450000000  0.3356100000000 1.0
C      1  0.4952030000000  0.3917990000000  0.2900200000000 1.0
C      1  0.4877070000000  0.5798920000000  0.2781420000000 1.0
C      1  0.4731150000000  0.6608230000000  0.3216400000000 1.0
C      1  0.5150500000000  0.7618790000000  0.4246650000000 1.0
C      1  0.4255420000000  0.4916970000000  0.4606500000000 1.0
C      1  0.4980630000000  0.5025490000000  0.5009620000000 1.0
C      1  0.3212660000000  0.5039010000000  0.5001120000000 1.0
C      1  0.7037470000000  0.5110820000000  0.4927430000000 1.0
C      1  0.6771910000000  0.5031750000000  0.4067650000000 1.0
END
