TITL C-2159255-4746-1375 -0.00317455422063368 3375 -422.577481090192 0 0 60 (C2v) n - 1
REM
REM in /scratch/bkarasulu/871
REM
REM
REM
REM
REM
REM ./C.cell (a2850807a9bf4ad07a5b6933b78d9264)
REM AIRSS Version 0.9.1 bugfix July 2018 build 013d7b7c2542+ Fri, 06 Jul 2018 19:26:36 +0100
REM compiler GCC version 9.2.1 20190827 (Red Hat 9.2.1-1)
REM options -cpp -mtune=generic -march=x86-64 -g -O0 -fpre-include=/usr/include/finclude/math-vector-fortran.h
REM seed 726051080 -1657431220 -68398872 -649829151 983713649 435957175 -904537146 454120670 1990715380 -1236186052 -976198142 -1010064111 -130177596 -1255415700 1464542735 -362621700 -1908854524 -773357026 -330882460 -1086656420 2048932473 1675117011 824645294 1703549480 242474159 203406616 1397879476 -1444034763 -1051131300 461110378 1113595810 1610652149 -1655729329
REM
CELL 1.54180   15.00000   15.00000   15.00000   90.00000   90.00000   90.00000
LATT -1
SFAC C  
C      1  0.2868570000000  0.6113110000000  0.3687530000000 1.0
C      1  0.3766850000000  0.7064300000000  0.3687520000000 1.0
C      1  0.5186680000000  0.7206250000000  0.4058060000000 1.0
C      1  0.6583930000000  0.6677230000000  0.3917960000000 1.0
C      1  0.7191970000000  0.5312510000000  0.4058070000000 1.0
C      1  0.7131430000000  0.3886890000000  0.3687530000000 1.0
C      1  0.6233150000000  0.2935700000000  0.3687520000000 1.0
C      1  0.4813320000000  0.2793750000000  0.4058060000000 1.0
C      1  0.3416070000000  0.3322770000000  0.3917960000000 1.0
C      1  0.2808030000000  0.4687490000000  0.4058070000000 1.0
C      1  0.3671220000000  0.4815410000000  0.7221120000000 1.0
C      1  0.3242840000000  0.5473160000000  0.6795810000000 1.0
C      1  0.4427150000000  0.6727280000000  0.6795800000000 1.0
C      1  0.5108330000000  0.6337230000000  0.7221120000000 1.0
C      1  0.5745960000000  0.5789930000000  0.7310190000000 1.0
C      1  0.6328780000000  0.5184590000000  0.7221120000000 1.0
C      1  0.6757160000000  0.4526840000000  0.6795810000000 1.0
C      1  0.5572850000000  0.3272720000000  0.6795800000000 1.0
C      1  0.4891670000000  0.3662770000000  0.7221120000000 1.0
C      1  0.4254040000000  0.4210070000000  0.7310190000000 1.0
C      1  0.3608290000000  0.5659760000000  0.3178600000000 1.0
C      1  0.4261750000000  0.6351710000000  0.3178600000000 1.0
C      1  0.5180110000000  0.6515750000000  0.3347230000000 1.0
C      1  0.6062540000000  0.6125130000000  0.3325360000000 1.0
C      1  0.6502980000000  0.5266470000000  0.3347230000000 1.0
C      1  0.6391710000000  0.4340240000000  0.3178600000000 1.0
C      1  0.5738250000000  0.3648290000000  0.3178600000000 1.0
C      1  0.4819890000000  0.3484250000000  0.3347230000000 1.0
C      1  0.3937460000000  0.3874870000000  0.3325360000000 1.0
C      1  0.3497020000000  0.4733530000000  0.3347230000000 1.0
C      1  0.4322870000000  0.7318340000000  0.4409860000000 1.0
C      1  0.6037900000000  0.7228760000000  0.4445550000000 1.0
C      1  0.7165770000000  0.6163630000000  0.4445560000000 1.0
C      1  0.7353260000000  0.4456520000000  0.4409860000000 1.0
C      1  0.7137050000000  0.2981830000000  0.3672390000000 1.0
C      1  0.5677130000000  0.2681660000000  0.4409860000000 1.0
C      1  0.3962100000000  0.2771240000000  0.4445550000000 1.0
C      1  0.2834230000000  0.3836370000000  0.4445560000000 1.0
C      1  0.2646740000000  0.5543480000000  0.4409860000000 1.0
C      1  0.2862950000000  0.7018170000000  0.3672390000000 1.0
C      1  0.7201820000000  0.5743880000000  0.5945390000000 1.0
C      1  0.7250960000000  0.4848430000000  0.6026890000000 1.0
C      1  0.6401970000000  0.3676000000000  0.6549180000000 1.0
C      1  0.5280020000000  0.2761340000000  0.6026890000000 1.0
C      1  0.4383220000000  0.2759210000000  0.5945390000000 1.0
C      1  0.2798180000000  0.4256120000000  0.5945390000000 1.0
C      1  0.2749040000000  0.5151570000000  0.6026890000000 1.0
C      1  0.3598030000000  0.6324000000000  0.6549180000000 1.0
C      1  0.4719980000000  0.7238660000000  0.6026890000000 1.0
C      1  0.5616780000000  0.7240790000000  0.5945390000000 1.0
C      1  0.7183860000000  0.4197110000000  0.5308230000000 1.0
C      1  0.6613260000000  0.3476470000000  0.5634320000000 1.0
C      1  0.5926440000000  0.2865600000000  0.5308230000000 1.0
C      1  0.3728230000000  0.2922020000000  0.5371020000000 1.0
C      1  0.2998150000000  0.3611500000000  0.5371030000000 1.0
C      1  0.2816140000000  0.5802890000000  0.5308230000000 1.0
C      1  0.3386740000000  0.6523530000000  0.5634320000000 1.0
C      1  0.4073560000000  0.7134400000000  0.5308230000000 1.0
C      1  0.6271770000000  0.7077980000000  0.5371020000000 1.0
C      1  0.7001850000000  0.6388500000000  0.5371030000000 1.0
END
