TITL C-2159255-4746-109 -0.00349212252350699 3375 -406.841145815733 0 0 60 (C1) n - 1
REM
REM in /scratch/bkarasulu/871
REM
REM
REM
REM
REM
REM ./C.cell (a2850807a9bf4ad07a5b6933b78d9264)
REM AIRSS Version 0.9.1 bugfix July 2018 build 013d7b7c2542+ Fri, 06 Jul 2018 19:26:36 +0100
REM compiler GCC version 9.2.1 20190827 (Red Hat 9.2.1-1)
REM options -cpp -mtune=generic -march=x86-64 -g -O0 -fpre-include=/usr/include/finclude/math-vector-fortran.h
REM seed 1436396367 1388861098 -1736090524 -554207432 1616070376 -1780560280 -1218872127 -598290349 1240216136 432289941 -1938267536 -25521945 -389363300 -1965525249 -442046259 -918994702 -1759851728 -912119407 369723050 -817623101 410746449 -1933173122 1176642074 -1906327320 -2129300422 1116140851 -1067763509 2121603415 -1293049156 -864188920 -98823822 -212179538 -199125132
REM
CELL 1.54180   15.00000   15.00000   15.00000   90.00000   90.00000   90.00000
LATT -1
SFAC C  
C      1  0.4444480000000  0.4147590000000  0.2641990000000 1.0
C      1  0.4440910000000  0.5558680000000  0.2561290000000 1.0
C      1  0.4315800000000  0.6827880000000  0.3211340000000 1.0
C      1  0.4438160000000  0.7424990000000  0.4500420000000 1.0
C      1  0.4315790000000  0.7377580000000  0.5920250000000 1.0
C      1  0.4440940000000  0.6462090000000  0.7013570000000 1.0
C      1  0.4444430000000  0.5131160000000  0.7489350000000 1.0
C      1  0.4316010000000  0.3725580000000  0.7230310000000 1.0
C      1  0.4440130000000  0.2772340000000  0.6164930000000 1.0
C      1  0.4440100000000  0.2491490000000  0.4781030000000 1.0
C      1  0.4316040000000  0.2954130000000  0.3428390000000 1.0
C      1  0.6284560000000  0.3246160000000  0.5348360000000 1.0
C      1  0.6300870000000  0.3385610000000  0.4403250000000 1.0
C      1  0.6299090000000  0.4003370000000  0.3608910000000 1.0
C      1  0.6283350000000  0.4880790000000  0.3232770000000 1.0
C      1  0.6293200000000  0.5795160000000  0.3487450000000 1.0
C      1  0.6304330000000  0.6479250000000  0.4217570000000 1.0
C      1  0.6304330000000  0.6664310000000  0.5129510000000 1.0
C      1  0.6293190000000  0.6318900000000  0.6068520000000 1.0
C      1  0.6283340000000  0.5576110000000  0.6659460000000 1.0
C      1  0.6299070000000  0.4621470000000  0.6655100000000 1.0
C      1  0.6300850000000  0.3742960000000  0.6164380000000 1.0
C      1  0.4877020000000  0.7176500000000  0.6641570000000 1.0
C      1  0.4942320000000  0.5906630000000  0.7558010000000 1.0
C      1  0.4881400000000  0.4340360000000  0.7654860000000 1.0
C      1  0.4879520000000  0.3041990000000  0.6924950000000 1.0
C      1  0.4939840000000  0.2311270000000  0.5538040000000 1.0
C      1  0.4879540000000  0.2443600000000  0.3976040000000 1.0
C      1  0.4881440000000  0.3354820000000  0.2797810000000 1.0
C      1  0.4942340000000  0.4834960000000  0.2276440000000 1.0
C      1  0.4877030000000  0.6361560000000  0.2625430000000 1.0
C      1  0.4883540000000  0.7387540000000  0.3699980000000 1.0
C      1  0.4883540000000  0.7702520000000  0.5252130000000 1.0
C      1  0.5873180000000  0.2355720000000  0.5529010000000 1.0
C      1  0.5794330000000  0.2730130000000  0.3879030000000 1.0
C      1  0.5795610000000  0.3330490000000  0.3102200000000 1.0
C      1  0.5874810000000  0.4834950000000  0.2320770000000 1.0
C      1  0.5798760000000  0.6423540000000  0.2912310000000 1.0
C      1  0.5799340000000  0.7099420000000  0.3614230000000 1.0
C      1  0.5799350000000  0.7470620000000  0.5443400000000 1.0
C      1  0.5798760000000  0.7121760000000  0.6353240000000 1.0
C      1  0.5874790000000  0.5889300000000  0.7517200000000 1.0
C      1  0.5795580000000  0.4199330000000  0.7384030000000 1.0
C      1  0.5794310000000  0.3343680000000  0.6902630000000 1.0
C      1  0.3774890000000  0.6687170000000  0.4650120000000 1.0
C      1  0.3725490000000  0.6618560000000  0.5630790000000 1.0
C      1  0.3778100000000  0.6008360000000  0.6405580000000 1.0
C      1  0.3782460000000  0.5091290000000  0.6731990000000 1.0
C      1  0.3735440000000  0.4125820000000  0.6520630000000 1.0
C      1  0.3781460000000  0.3444300000000  0.5804640000000 1.0
C      1  0.3781450000000  0.3250770000000  0.4850910000000 1.0
C      1  0.3735450000000  0.3599320000000  0.3925920000000 1.0
C      1  0.3782490000000  0.4406050000000  0.3354960000000 1.0
C      1  0.3778090000000  0.5377810000000  0.3298080000000 1.0
C      1  0.3725500000000  0.6241740000000  0.3773750000000 1.0
C      1  0.2807190000000  0.4982980000000  0.4995920000000 1.0
C      1  0.6260830000000  0.4884750000000  0.5015850000000 1.0
C      1  0.5369540000000  0.4963020000000  0.4999980000000 1.0
C      1  0.3633680000000  0.4988670000000  0.4994770000000 1.0
C      1  0.4524960000000  0.4998410000000  0.4992810000000 1.0
END
