TITL C-2159252-5904-147 -0.00277652080625825 3375 -380.011037665162 0 0 60 (Td) n - 1
REM
REM in /scratch/bkarasulu/870
REM
REM
REM
REM
REM
REM ./C.cell (a2850807a9bf4ad07a5b6933b78d9264)
REM AIRSS Version 0.9.1 bugfix July 2018 build 013d7b7c2542+ Fri, 06 Jul 2018 19:26:36 +0100
REM compiler GCC version 9.2.1 20190827 (Red Hat 9.2.1-1)
REM options -cpp -mtune=generic -march=x86-64 -g -O0 -fpre-include=/usr/include/finclude/math-vector-fortran.h
REM seed -980789400 1801885800 -816680109 1935732925 -1740974166 1583160964 -1063718701 1484233536 314922606 1492247321 -1782939502 732539257 -287465209 -2029426175 -298863399 -445939637 895809865 1846978619 -1801760424 -897016524 730107771 1624376787 822954650 -1936905626 1291569558 -2008686282 -1489771559 1401935159 -1465444918 -1403251320 2086999562 2130125454 526435679
REM
CELL 1.54180   15.00000   15.00000   15.00000   90.00000   90.00000   90.00000
LATT -1
SFAC C  
C      1  0.6085550000000  0.7645640000000  0.4511650000000 1.0
C      1  0.4511650000000  0.6085550000000  0.7645640000000 1.0
C      1  0.7645640000000  0.4511650000000  0.6085550000000 1.0
C      1  0.3914450000000  0.2354360000000  0.4511650000000 1.0
C      1  0.3914450000000  0.7645640000000  0.5488350000000 1.0
C      1  0.6085550000000  0.2354360000000  0.5488350000000 1.0
C      1  0.5488350000000  0.3914450000000  0.7645640000000 1.0
C      1  0.5488350000000  0.6085550000000  0.2354360000000 1.0
C      1  0.4511650000000  0.3914450000000  0.2354360000000 1.0
C      1  0.2354360000000  0.5488350000000  0.6085550000000 1.0
C      1  0.2354360000000  0.4511650000000  0.3914450000000 1.0
C      1  0.7645640000000  0.5488350000000  0.3914450000000 1.0
C      1  0.7645640000000  0.6085550000000  0.4511650000000 1.0
C      1  0.6085550000000  0.4511650000000  0.7645640000000 1.0
C      1  0.4511650000000  0.7645640000000  0.6085550000000 1.0
C      1  0.2354360000000  0.3914450000000  0.4511650000000 1.0
C      1  0.7645640000000  0.3914450000000  0.5488350000000 1.0
C      1  0.2354360000000  0.6085550000000  0.5488350000000 1.0
C      1  0.3914450000000  0.5488350000000  0.7645640000000 1.0
C      1  0.6085550000000  0.5488350000000  0.2354360000000 1.0
C      1  0.3914450000000  0.4511650000000  0.2354360000000 1.0
C      1  0.5488350000000  0.2354360000000  0.6085550000000 1.0
C      1  0.4511650000000  0.2354360000000  0.3914450000000 1.0
C      1  0.5488350000000  0.7645640000000  0.3914450000000 1.0
C      1  0.3352280000000  0.4761390000000  0.4041140000000 1.0
C      1  0.4041140000000  0.3352280000000  0.4761390000000 1.0
C      1  0.4761390000000  0.4041140000000  0.3352280000000 1.0
C      1  0.6647720000000  0.5238610000000  0.4041140000000 1.0
C      1  0.6647720000000  0.4761390000000  0.5958860000000 1.0
C      1  0.3352280000000  0.5238610000000  0.5958860000000 1.0
C      1  0.5958860000000  0.6647720000000  0.4761390000000 1.0
C      1  0.5958860000000  0.3352280000000  0.5238610000000 1.0
C      1  0.4041140000000  0.6647720000000  0.5238610000000 1.0
C      1  0.5238610000000  0.5958860000000  0.3352280000000 1.0
C      1  0.5238610000000  0.4041140000000  0.6647720000000 1.0
C      1  0.4761390000000  0.5958860000000  0.6647720000000 1.0
C      1  0.4761390000000  0.3352280000000  0.4041140000000 1.0
C      1  0.3352280000000  0.4041140000000  0.4761390000000 1.0
C      1  0.4041140000000  0.4761390000000  0.3352280000000 1.0
C      1  0.5238610000000  0.6647720000000  0.4041140000000 1.0
C      1  0.4761390000000  0.6647720000000  0.5958860000000 1.0
C      1  0.5238610000000  0.3352280000000  0.5958860000000 1.0
C      1  0.6647720000000  0.5958860000000  0.4761390000000 1.0
C      1  0.3352280000000  0.5958860000000  0.5238610000000 1.0
C      1  0.6647720000000  0.4041140000000  0.5238610000000 1.0
C      1  0.5958860000000  0.5238610000000  0.3352280000000 1.0
C      1  0.4041140000000  0.5238610000000  0.6647720000000 1.0
C      1  0.5958860000000  0.4761390000000  0.6647720000000 1.0
C      1  0.4338510000000  0.4338510000000  0.6368230000000 1.0
C      1  0.6368230000000  0.4338510000000  0.4338510000000 1.0
C      1  0.4338510000000  0.6368230000000  0.4338510000000 1.0
C      1  0.5661490000000  0.4338510000000  0.3631770000000 1.0
C      1  0.4338510000000  0.5661490000000  0.3631770000000 1.0
C      1  0.3631770000000  0.5661490000000  0.4338510000000 1.0
C      1  0.3631770000000  0.4338510000000  0.5661490000000 1.0
C      1  0.6368230000000  0.5661490000000  0.5661490000000 1.0
C      1  0.5661490000000  0.3631770000000  0.4338510000000 1.0
C      1  0.4338510000000  0.3631770000000  0.5661490000000 1.0
C      1  0.5661490000000  0.6368230000000  0.5661490000000 1.0
C      1  0.5661490000000  0.5661490000000  0.6368230000000 1.0
END
