TITL C-2159255-4746-1420 -0.00130079446515007 3375 -385.420483515019 0 0 60 (Td) n - 1
REM
REM in /scratch/bkarasulu/871
REM
REM
REM
REM
REM
REM ./C.cell (a2850807a9bf4ad07a5b6933b78d9264)
REM AIRSS Version 0.9.1 bugfix July 2018 build 013d7b7c2542+ Fri, 06 Jul 2018 19:26:36 +0100
REM compiler GCC version 9.2.1 20190827 (Red Hat 9.2.1-1)
REM options -cpp -mtune=generic -march=x86-64 -g -O0 -fpre-include=/usr/include/finclude/math-vector-fortran.h
REM seed 506000418 1040357317 993870915 -1219688848 496120584 -1996205015 -1557086949 -41972131 1808004150 231717773 236666588 -2805709 192240 600247948 1457557089 -141105540 -1444283953 -40881196 -1586782696 112785412 1428652328 -2092439993 2077587385 430464242 -609931629 1760278215 1161990955 -873583497 -1472350488 594486110 -136237464 -818641355 -1418291072
REM
CELL 1.54180   15.00000   15.00000   15.00000   90.00000   90.00000   90.00000
LATT -1
SFAC C  
C      1  0.6402560000000  0.5698070000000  0.5005270000000 1.0
C      1  0.5005270000000  0.6402560000000  0.5698070000000 1.0
C      1  0.5698070000000  0.5005270000000  0.6402560000000 1.0
C      1  0.3597440000000  0.4301930000000  0.5005270000000 1.0
C      1  0.3597440000000  0.5698070000000  0.4994730000000 1.0
C      1  0.6402560000000  0.4301930000000  0.4994730000000 1.0
C      1  0.4994730000000  0.3597440000000  0.5698070000000 1.0
C      1  0.4994730000000  0.6402560000000  0.4301930000000 1.0
C      1  0.5005270000000  0.3597440000000  0.4301930000000 1.0
C      1  0.4301930000000  0.4994730000000  0.6402560000000 1.0
C      1  0.4301930000000  0.5005270000000  0.3597440000000 1.0
C      1  0.5698070000000  0.4994730000000  0.3597440000000 1.0
C      1  0.7101420000000  0.3653150000000  0.3653150000000 1.0
C      1  0.3653150000000  0.7101420000000  0.3653150000000 1.0
C      1  0.3653150000000  0.3653150000000  0.7101420000000 1.0
C      1  0.2898580000000  0.6346850000000  0.3653150000000 1.0
C      1  0.2898580000000  0.3653150000000  0.6346850000000 1.0
C      1  0.7101420000000  0.6346850000000  0.6346850000000 1.0
C      1  0.6346850000000  0.2898580000000  0.3653150000000 1.0
C      1  0.6346850000000  0.7101420000000  0.6346850000000 1.0
C      1  0.3653150000000  0.2898580000000  0.6346850000000 1.0
C      1  0.6346850000000  0.6346850000000  0.7101420000000 1.0
C      1  0.6346850000000  0.3653150000000  0.2898580000000 1.0
C      1  0.3653150000000  0.6346850000000  0.2898580000000 1.0
C      1  0.2958610000000  0.6384620000000  0.4622060000000 1.0
C      1  0.4622060000000  0.2958610000000  0.6384620000000 1.0
C      1  0.6384620000000  0.4622060000000  0.2958610000000 1.0
C      1  0.7041390000000  0.3615380000000  0.4622060000000 1.0
C      1  0.7041390000000  0.6384620000000  0.5377940000000 1.0
C      1  0.2958610000000  0.3615380000000  0.5377940000000 1.0
C      1  0.5377940000000  0.7041390000000  0.6384620000000 1.0
C      1  0.5377940000000  0.2958610000000  0.3615380000000 1.0
C      1  0.4622060000000  0.7041390000000  0.3615380000000 1.0
C      1  0.3615380000000  0.5377940000000  0.2958610000000 1.0
C      1  0.3615380000000  0.4622060000000  0.7041390000000 1.0
C      1  0.6384620000000  0.5377940000000  0.7041390000000 1.0
C      1  0.6384620000000  0.7041390000000  0.5377940000000 1.0
C      1  0.5377940000000  0.6384620000000  0.7041390000000 1.0
C      1  0.7041390000000  0.5377940000000  0.6384620000000 1.0
C      1  0.3615380000000  0.2958610000000  0.5377940000000 1.0
C      1  0.3615380000000  0.7041390000000  0.4622060000000 1.0
C      1  0.6384620000000  0.2958610000000  0.4622060000000 1.0
C      1  0.4622060000000  0.3615380000000  0.7041390000000 1.0
C      1  0.4622060000000  0.6384620000000  0.2958610000000 1.0
C      1  0.5377940000000  0.3615380000000  0.2958610000000 1.0
C      1  0.2958610000000  0.4622060000000  0.6384620000000 1.0
C      1  0.2958610000000  0.5377940000000  0.3615380000000 1.0
C      1  0.7041390000000  0.4622060000000  0.3615380000000 1.0
C      1  0.5005270000000  0.4301930000000  0.3597440000000 1.0
C      1  0.3597440000000  0.5005270000000  0.4301930000000 1.0
C      1  0.4301930000000  0.3597440000000  0.5005270000000 1.0
C      1  0.4994730000000  0.5698070000000  0.3597440000000 1.0
C      1  0.4994730000000  0.4301930000000  0.6402560000000 1.0
C      1  0.5005270000000  0.5698070000000  0.6402560000000 1.0
C      1  0.6402560000000  0.4994730000000  0.4301930000000 1.0
C      1  0.6402560000000  0.5005270000000  0.5698070000000 1.0
C      1  0.3597440000000  0.4994730000000  0.5698070000000 1.0
C      1  0.5698070000000  0.6402560000000  0.5005270000000 1.0
C      1  0.5698070000000  0.3597440000000  0.4994730000000 1.0
C      1  0.4301930000000  0.6402560000000  0.4994730000000 1.0
END
