TITL C-2158988-7926-60 -0.00347128140200564 3375 -421.629458480633 0 0 60 (C5) n - 1
REM
REM in /scratch/bkarasulu/868
REM
REM
REM
REM
REM
REM ./C.cell (a2850807a9bf4ad07a5b6933b78d9264)
REM AIRSS Version 0.9.1 bugfix July 2018 build 013d7b7c2542+ Fri, 06 Jul 2018 19:26:36 +0100
REM compiler GCC version 9.2.1 20190827 (Red Hat 9.2.1-1)
REM options -cpp -mtune=generic -march=x86-64 -g -O0 -fpre-include=/usr/include/finclude/math-vector-fortran.h
REM seed -118870586 1440179316 1600593175 1069453252 -1795234660 1054218013 1828982500 581727021 1035936651 -2000909292 -2110102166 -2039819385 -90573437 -517951671 -784701938 1792632142 473817204 -1614915570 -1646826517 -1212348128 271806052 -193085310 -60411538 1980938169 1280072862 922437555 -1498167488 404327400 1619740349 2006139185 -175269811 -351529821 -676300170
REM
CELL 1.54180   15.00000   15.00000   15.00000   90.00000   90.00000   90.00000
LATT -1
SFAC C  
C      1  0.6277960000000  0.4501160000000  0.7266300000000 1.0
C      1  0.6277970000000  0.7001180000000  0.6174740000000 1.0
C      1  0.6278010000000  0.6735620000000  0.3459790000000 1.0
C      1  0.6278020000000  0.4071520000000  0.2873360000000 1.0
C      1  0.6277990000000  0.2690510000000  0.5225890000000 1.0
C      1  0.6277960000000  0.5498840000000  0.7266300000000 1.0
C      1  0.6277970000000  0.2998820000000  0.6174740000000 1.0
C      1  0.6278010000000  0.3264380000000  0.3459790000000 1.0
C      1  0.6278020000000  0.5928480000000  0.2873360000000 1.0
C      1  0.6277990000000  0.7309490000000  0.5225890000000 1.0
C      1  0.3147250000000  0.4544880000000  0.3522020000000 1.0
C      1  0.3147250000000  0.3453770000000  0.4976110000000 1.0
C      1  0.3147230000000  0.4499500000000  0.6463170000000 1.0
C      1  0.3147240000000  0.6236890000000  0.5928130000000 1.0
C      1  0.3147250000000  0.6264950000000  0.4110420000000 1.0
C      1  0.3147250000000  0.5455120000000  0.3522020000000 1.0
C      1  0.3147250000000  0.6546230000000  0.4976110000000 1.0
C      1  0.3147230000000  0.5500500000000  0.6463170000000 1.0
C      1  0.3147240000000  0.3763110000000  0.5928130000000 1.0
C      1  0.3147250000000  0.3735050000000  0.4110420000000 1.0
C      1  0.3821370000000  0.4521130000000  0.7178100000000 1.0
C      1  0.3821400000000  0.6923500000000  0.6128480000000 1.0
C      1  0.3821420000000  0.6667650000000  0.3519340000000 1.0
C      1  0.3821420000000  0.4107170000000  0.2956380000000 1.0
C      1  0.3821400000000  0.2780540000000  0.5217620000000 1.0
C      1  0.3821370000000  0.5478870000000  0.7178100000000 1.0
C      1  0.3821400000000  0.3076500000000  0.6128480000000 1.0
C      1  0.3821420000000  0.3332350000000  0.3519340000000 1.0
C      1  0.3821420000000  0.5892830000000  0.2956380000000 1.0
C      1  0.3821400000000  0.7219460000000  0.5217620000000 1.0
C      1  0.5351910000000  0.7195240000000  0.6228390000000 1.0
C      1  0.5351950000000  0.6846620000000  0.3291810000000 1.0
C      1  0.5351960000000  0.3946060000000  0.2715870000000 1.0
C      1  0.5351930000000  0.2501960000000  0.5296530000000 1.0
C      1  0.5351890000000  0.4510090000000  0.7467460000000 1.0
C      1  0.5351910000000  0.2804760000000  0.6228390000000 1.0
C      1  0.5351950000000  0.3153380000000  0.3291810000000 1.0
C      1  0.5351960000000  0.6053940000000  0.2715870000000 1.0
C      1  0.5351930000000  0.7498040000000  0.5296530000000 1.0
C      1  0.5351890000000  0.5489910000000  0.7467460000000 1.0
C      1  0.6801840000000  0.4537940000000  0.3530600000000 1.0
C      1  0.6801810000000  0.3459720000000  0.4985390000000 1.0
C      1  0.6801770000000  0.4510110000000  0.6460420000000 1.0
C      1  0.6801790000000  0.6237510000000  0.5917210000000 1.0
C      1  0.6801820000000  0.6254710000000  0.4106510000000 1.0
C      1  0.6801840000000  0.5462060000000  0.3530600000000 1.0
C      1  0.6801810000000  0.6540280000000  0.4985390000000 1.0
C      1  0.6801770000000  0.5489890000000  0.6460420000000 1.0
C      1  0.6801790000000  0.3762490000000  0.5917210000000 1.0
C      1  0.6801820000000  0.3745290000000  0.4106510000000 1.0
C      1  0.4599600000000  0.5999470000000  0.7198480000000 1.0
C      1  0.4599630000000  0.7399730000000  0.4728800000000 1.0
C      1  0.4599650000000  0.5483630000000  0.2633890000000 1.0
C      1  0.4599640000000  0.2899190000000  0.3808880000000 1.0
C      1  0.4599610000000  0.3218000000000  0.6629910000000 1.0
C      1  0.4599600000000  0.4000530000000  0.7198480000000 1.0
C      1  0.4599630000000  0.2600270000000  0.4728800000000 1.0
C      1  0.4599650000000  0.4516370000000  0.2633890000000 1.0
C      1  0.4599640000000  0.7100810000000  0.3808880000000 1.0
C      1  0.4599610000000  0.6782000000000  0.6629910000000 1.0
END
