TITL C-2158988-7926-934 -0.00225373154187966 3375 -397.559655177634 0 0 60 (C2) n - 1
REM
REM in /scratch/bkarasulu/868
REM
REM
REM
REM
REM
REM ./C.cell (a2850807a9bf4ad07a5b6933b78d9264)
REM AIRSS Version 0.9.1 bugfix July 2018 build 013d7b7c2542+ Fri, 06 Jul 2018 19:26:36 +0100
REM compiler GCC version 9.2.1 20190827 (Red Hat 9.2.1-1)
REM options -cpp -mtune=generic -march=x86-64 -g -O0 -fpre-include=/usr/include/finclude/math-vector-fortran.h
REM seed -107137573 1271517140 -1008189799 -1793045494 -5252193 -1338434650 -126508445 -427232659 1026932839 -419615289 1491711690 1701552239 552976972 1115280047 -1801168940 814836287 2040895300 -1630584378 1737362560 -1747435499 -1465262578 -1314169592 223433187 1459788638 -756376665 1218054317 -1777742986 754956316 1184698522 1385035289 -1642162694 355295520 1447855443
REM
CELL 1.54180   15.00000   15.00000   15.00000   90.00000   90.00000   90.00000
LATT -1
SFAC C  
C      1  0.5952430000000  0.6326080000000  0.6839190000000 1.0
C      1  0.4047570000000  0.3673920000000  0.6839190000000 1.0
C      1  0.3186450000000  0.4082140000000  0.3734350000000 1.0
C      1  0.6813550000000  0.5917860000000  0.3734350000000 1.0
C      1  0.2695660000000  0.4780250000000  0.3689410000000 1.0
C      1  0.7304340000000  0.5219750000000  0.3689410000000 1.0
C      1  0.4809190000000  0.3720080000000  0.7463650000000 1.0
C      1  0.5190810000000  0.6279920000000  0.7463650000000 1.0
C      1  0.5841830000000  0.3596340000000  0.2859220000000 1.0
C      1  0.4158170000000  0.6403660000000  0.2859220000000 1.0
C      1  0.6028340000000  0.5383180000000  0.5326440000000 1.0
C      1  0.3971660000000  0.4616820000000  0.5326440000000 1.0
C      1  0.5335810000000  0.5310530000000  0.7522590000000 1.0
C      1  0.4664190000000  0.4689470000000  0.7522590000000 1.0
C      1  0.5490350000000  0.5062170000000  0.3657210000000 1.0
C      1  0.4509650000000  0.4937830000000  0.3657210000000 1.0
C      1  0.5112260000000  0.3281040000000  0.2383590000000 1.0
C      1  0.4887740000000  0.6718960000000  0.2383590000000 1.0
C      1  0.6589050000000  0.3211380000000  0.5915320000000 1.0
C      1  0.3410950000000  0.6788620000000  0.5915320000000 1.0
C      1  0.5495520000000  0.4870090000000  0.4712830000000 1.0
C      1  0.4504480000000  0.5129910000000  0.4712830000000 1.0
C      1  0.5382930000000  0.3975850000000  0.5018020000000 1.0
C      1  0.4617070000000  0.6024150000000  0.5018020000000 1.0
C      1  0.6868980000000  0.3568150000000  0.5115180000000 1.0
C      1  0.3131020000000  0.6431850000000  0.5115180000000 1.0
C      1  0.3124880000000  0.5605690000000  0.3643690000000 1.0
C      1  0.6875120000000  0.4394310000000  0.3643690000000 1.0
C      1  0.5113840000000  0.2896430000000  0.3923440000000 1.0
C      1  0.4886160000000  0.7103570000000  0.3923440000000 1.0
C      1  0.4278760000000  0.6908500000000  0.6366700000000 1.0
C      1  0.5721240000000  0.3091500000000  0.6366700000000 1.0
C      1  0.6166380000000  0.4808860000000  0.6090820000000 1.0
C      1  0.3833620000000  0.5191140000000  0.6090820000000 1.0
C      1  0.5348400000000  0.6467670000000  0.4527020000000 1.0
C      1  0.4651600000000  0.3532330000000  0.4527020000000 1.0
C      1  0.5833370000000  0.6002980000000  0.3698080000000 1.0
C      1  0.4166630000000  0.3997020000000  0.3698080000000 1.0
C      1  0.4936250000000  0.2689700000000  0.6030940000000 1.0
C      1  0.5063750000000  0.7310300000000  0.6030940000000 1.0
C      1  0.4064820000000  0.3668980000000  0.5273860000000 1.0
C      1  0.5935180000000  0.6331020000000  0.5273860000000 1.0
C      1  0.4600560000000  0.3230320000000  0.3121450000000 1.0
C      1  0.5399440000000  0.6769680000000  0.3121450000000 1.0
C      1  0.6742610000000  0.3580700000000  0.4158960000000 1.0
C      1  0.3257390000000  0.6419300000000  0.4158960000000 1.0
C      1  0.6055340000000  0.4469950000000  0.3129120000000 1.0
C      1  0.3944660000000  0.5530050000000  0.3129120000000 1.0
C      1  0.4531950000000  0.5921140000000  0.5984220000000 1.0
C      1  0.5468050000000  0.4078860000000  0.5984220000000 1.0
C      1  0.6081950000000  0.5380000000000  0.6885000000000 1.0
C      1  0.3918050000000  0.4620000000000  0.6885000000000 1.0
C      1  0.4170390000000  0.3189680000000  0.6059580000000 1.0
C      1  0.5829610000000  0.6810320000000  0.6059580000000 1.0
C      1  0.3955780000000  0.6899840000000  0.3698980000000 1.0
C      1  0.6044220000000  0.3100160000000  0.3698980000000 1.0
C      1  0.5536580000000  0.3214050000000  0.7314250000000 1.0
C      1  0.4463420000000  0.6785950000000  0.7314250000000 1.0
C      1  0.3194890000000  0.5894660000000  0.5856880000000 1.0
C      1  0.6805110000000  0.4105340000000  0.5856880000000 1.0
END
