TITL C-2159255-4746-396 -0.00177183953937874 3375 -417.984562208188 0 0 60 (C1) n - 1
REM
REM in /scratch/bkarasulu/871
REM
REM
REM
REM
REM
REM ./C.cell (a2850807a9bf4ad07a5b6933b78d9264)
REM AIRSS Version 0.9.1 bugfix July 2018 build 013d7b7c2542+ Fri, 06 Jul 2018 19:26:36 +0100
REM compiler GCC version 9.2.1 20190827 (Red Hat 9.2.1-1)
REM options -cpp -mtune=generic -march=x86-64 -g -O0 -fpre-include=/usr/include/finclude/math-vector-fortran.h
REM seed -397220845 2053391084 531246344 -656295324 -2051619593 503689850 -386392130 -262046803 -254160301 766802744 1942630876 -2068400732 1315480170 -1384105479 -1264930245 -1706041197 1797531295 -1226767197 -609184443 1047344799 1291428498 127267338 215427021 929335545 -2042201657 1285880736 -1468170487 -1107125091 -622093582 1857691811 -775332871 930168611 -777753067
REM
CELL 1.54180   15.00000   15.00000   15.00000   90.00000   90.00000   90.00000
LATT -1
SFAC C  
C      1  0.3495450000000  0.5363330000000  0.6758750000000 1.0
C      1  0.3466200000000  0.6333120000000  0.3765520000000 1.0
C      1  0.3559360000000  0.3340880000000  0.4491390000000 1.0
C      1  0.7522670000000  0.3984750000000  0.3717790000000 1.0
C      1  0.7549720000000  0.4452200000000  0.6283530000000 1.0
C      1  0.7462610000000  0.6342830000000  0.4949350000000 1.0
C      1  0.4807140000000  0.7163670000000  0.5636860000000 1.0
C      1  0.4825860000000  0.4423680000000  0.2837930000000 1.0
C      1  0.4845590000000  0.3406690000000  0.6516140000000 1.0
C      1  0.4937290000000  0.4605160000000  0.4433620000000 1.0
C      1  0.4828930000000  0.5075620000000  0.5876090000000 1.0
C      1  0.4331830000000  0.5879070000000  0.4706200000000 1.0
C      1  0.7534640000000  0.4822960000000  0.3662610000000 1.0
C      1  0.7486650000000  0.3975320000000  0.5598170000000 1.0
C      1  0.7586670000000  0.6246980000000  0.5776190000000 1.0
C      1  0.2915300000000  0.6356330000000  0.4577450000000 1.0
C      1  0.2969840000000  0.4008810000000  0.4097110000000 1.0
C      1  0.2964750000000  0.4702510000000  0.6292460000000 1.0
C      1  0.4298640000000  0.6753450000000  0.4143680000000 1.0
C      1  0.4300860000000  0.3223820000000  0.3860530000000 1.0
C      1  0.4237600000000  0.4872680000000  0.7133920000000 1.0
C      1  0.5311620000000  0.5878580000000  0.3177940000000 1.0
C      1  0.5307500000000  0.2878630000000  0.5104570000000 1.0
C      1  0.5250770000000  0.6171740000000  0.6771610000000 1.0
C      1  0.5335240000000  0.4800220000000  0.5169380000000 1.0
C      1  0.4214610000000  0.5685330000000  0.5590130000000 1.0
C      1  0.4231960000000  0.5131400000000  0.4205880000000 1.0
C      1  0.5696070000000  0.6878070000000  0.5411070000000 1.0
C      1  0.5720300000000  0.4306010000000  0.3114470000000 1.0
C      1  0.5746180000000  0.3671240000000  0.6445640000000 1.0
C      1  0.2535160000000  0.4981420000000  0.5508380000000 1.0
C      1  0.2493500000000  0.5558150000000  0.4778170000000 1.0
C      1  0.2546040000000  0.4641640000000  0.4641340000000 1.0
C      1  0.6043950000000  0.5245660000000  0.3233160000000 1.0
C      1  0.6061110000000  0.3233940000000  0.5600210000000 1.0
C      1  0.6008220000000  0.6395390000000  0.6209070000000 1.0
C      1  0.5966910000000  0.4555430000000  0.6808680000000 1.0
C      1  0.5939440000000  0.6650120000000  0.4487720000000 1.0
C      1  0.5940650000000  0.3535430000000  0.3709430000000 1.0
C      1  0.6800460000000  0.4978880000000  0.6593470000000 1.0
C      1  0.6788300000000  0.6225450000000  0.4314070000000 1.0
C      1  0.6787310000000  0.3542500000000  0.4145240000000 1.0
C      1  0.3680830000000  0.6234020000000  0.6208990000000 1.0
C      1  0.3712970000000  0.5404620000000  0.3343060000000 1.0
C      1  0.3704720000000  0.3279510000000  0.5454370000000 1.0
C      1  0.6845860000000  0.5489930000000  0.3674600000000 1.0
C      1  0.6848190000000  0.3483130000000  0.5118330000000 1.0
C      1  0.6818490000000  0.5913610000000  0.6295720000000 1.0
C      1  0.5210130000000  0.3033870000000  0.4141600000000 1.0
C      1  0.5139290000000  0.5182830000000  0.6865800000000 1.0
C      1  0.5235270000000  0.6596960000000  0.3812320000000 1.0
C      1  0.3427260000000  0.3851060000000  0.6234790000000 1.0
C      1  0.3308220000000  0.6813350000000  0.5351420000000 1.0
C      1  0.3379490000000  0.4416000000000  0.3330080000000 1.0
C      1  0.4566230000000  0.2977960000000  0.5695890000000 1.0
C      1  0.4517370000000  0.6660010000000  0.6407920000000 1.0
C      1  0.4562780000000  0.5358270000000  0.2908950000000 1.0
C      1  0.4140580000000  0.3928640000000  0.6860030000000 1.0
C      1  0.4107660000000  0.7219230000000  0.5004910000000 1.0
C      1  0.4141770000000  0.3877930000000  0.3156320000000 1.0
END
