TITL C-2158988-7926-643 -0.00310813816604556 3375 -424.10348052157 0 0 60 (C1) n - 1
REM
REM in /scratch/bkarasulu/868
REM
REM
REM
REM
REM
REM ./C.cell (a2850807a9bf4ad07a5b6933b78d9264)
REM AIRSS Version 0.9.1 bugfix July 2018 build 013d7b7c2542+ Fri, 06 Jul 2018 19:26:36 +0100
REM compiler GCC version 9.2.1 20190827 (Red Hat 9.2.1-1)
REM options -cpp -mtune=generic -march=x86-64 -g -O0 -fpre-include=/usr/include/finclude/math-vector-fortran.h
REM seed 1350080918 -1701914872 -2109776502 -2126162641 778690349 1586634858 -1828860721 244478887 641312618 -909302465 843876513 -63150679 -1470145966 -551026459 -2054160083 674207273 619798070 694247674 -246421161 -702605780 1851391763 1268428194 590192853 -461694 2026365864 1902091742 2019693846 526108143 -648676405 862595513 966926252 -1726743476 -158646871
REM
CELL 1.54180   15.00000   15.00000   15.00000   90.00000   90.00000   90.00000
LATT -1
SFAC C  
C      1  0.6134390000000  0.4750110000000  0.2453600000000 1.0
C      1  0.5920030000000  0.5696630000000  0.2451120000000 1.0
C      1  0.5055870000000  0.6136590000000  0.2483580000000 1.0
C      1  0.4181300000000  0.5718990000000  0.2448860000000 1.0
C      1  0.3948600000000  0.4777300000000  0.2454870000000 1.0
C      1  0.4544150000000  0.4011710000000  0.2437150000000 1.0
C      1  0.5514560000000  0.4006150000000  0.2410490000000 1.0
C      1  0.6107100000000  0.4642990000000  0.7252050000000 1.0
C      1  0.5929550000000  0.5563770000000  0.7389160000000 1.0
C      1  0.5063460000000  0.6842040000000  0.7371240000000 1.0
C      1  0.4186380000000  0.5568810000000  0.7374760000000 1.0
C      1  0.3945280000000  0.4659090000000  0.7251790000000 1.0
C      1  0.4528280000000  0.3896110000000  0.7225690000000 1.0
C      1  0.5496400000000  0.3899560000000  0.7281670000000 1.0
C      1  0.6944150000000  0.5424840000000  0.4321960000000 1.0
C      1  0.5948360000000  0.6709430000000  0.4337470000000 1.0
C      1  0.4154630000000  0.6739330000000  0.4342430000000 1.0
C      1  0.3112950000000  0.5485760000000  0.4318780000000 1.0
C      1  0.3410880000000  0.3711120000000  0.4293380000000 1.0
C      1  0.5062620000000  0.2969460000000  0.4238920000000 1.0
C      1  0.6542130000000  0.3680720000000  0.4265070000000 1.0
C      1  0.5787020000000  0.3305550000000  0.6584970000000 1.0
C      1  0.6717710000000  0.4528920000000  0.6477710000000 1.0
C      1  0.6405840000000  0.6023490000000  0.6667730000000 1.0
C      1  0.5060970000000  0.6927710000000  0.6447450000000 1.0
C      1  0.3705110000000  0.6054300000000  0.6669220000000 1.0
C      1  0.3298500000000  0.4584900000000  0.6525150000000 1.0
C      1  0.4255930000000  0.3332720000000  0.6473560000000 1.0
C      1  0.5069250000000  0.2977390000000  0.6041850000000 1.0
C      1  0.6500730000000  0.3673350000000  0.6052950000000 1.0
C      1  0.6902170000000  0.5407880000000  0.6114430000000 1.0
C      1  0.5954780000000  0.6683690000000  0.6108070000000 1.0
C      1  0.4159500000000  0.6708360000000  0.6108430000000 1.0
C      1  0.3164630000000  0.5469110000000  0.6131650000000 1.0
C      1  0.3456410000000  0.3734100000000  0.6042880000000 1.0
C      1  0.6286980000000  0.6557700000000  0.5221840000000 1.0
C      1  0.3813130000000  0.6593140000000  0.5226820000000 1.0
C      1  0.3186420000000  0.5816430000000  0.5222930000000 1.0
C      1  0.3252250000000  0.3600050000000  0.5174390000000 1.0
C      1  0.5416680000000  0.2949510000000  0.5134430000000 1.0
C      1  0.6314740000000  0.3385680000000  0.5147900000000 1.0
C      1  0.6887160000000  0.5766700000000  0.5216540000000 1.0
C      1  0.6910930000000  0.4558080000000  0.2965590000000 1.0
C      1  0.6596670000000  0.6201070000000  0.2896560000000 1.0
C      1  0.5054210000000  0.6920330000000  0.3015960000000 1.0
C      1  0.3519290000000  0.6251540000000  0.2893410000000 1.0
C      1  0.3170210000000  0.4606330000000  0.2961510000000 1.0
C      1  0.4185560000000  0.3285840000000  0.2923670000000 1.0
C      1  0.5883220000000  0.3218300000000  0.2814920000000 1.0
C      1  0.4173190000000  0.3206590000000  0.3832200000000 1.0
C      1  0.5858110000000  0.3228210000000  0.3718910000000 1.0
C      1  0.6922380000000  0.4525030000000  0.3899350000000 1.0
C      1  0.6554440000000  0.6157980000000  0.3796280000000 1.0
C      1  0.5054800000000  0.6917420000000  0.3948820000000 1.0
C      1  0.3537770000000  0.6202460000000  0.3797250000000 1.0
C      1  0.3109310000000  0.4586390000000  0.3870570000000 1.0
C      1  0.5066230000000  0.5180380000000  0.6067900000000 1.0
C      1  0.4978130000000  0.4917070000000  0.4440580000000 1.0
C      1  0.4996090000000  0.4934300000000  0.5271530000000 1.0
C      1  0.5057840000000  0.5950750000000  0.7590580000000 1.0
END
