TITL C-2159255-4746-357 -0.00180931916659016 3375 -414.387425387546 0 0 60 (Cs) n - 1
REM
REM in /scratch/bkarasulu/871
REM
REM
REM
REM
REM
REM ./C.cell (a2850807a9bf4ad07a5b6933b78d9264)
REM AIRSS Version 0.9.1 bugfix July 2018 build 013d7b7c2542+ Fri, 06 Jul 2018 19:26:36 +0100
REM compiler GCC version 9.2.1 20190827 (Red Hat 9.2.1-1)
REM options -cpp -mtune=generic -march=x86-64 -g -O0 -fpre-include=/usr/include/finclude/math-vector-fortran.h
REM seed -2121212216 1723420048 -542457443 1557287974 -1786312169 -992364508 -1157788542 93694360 -1681485531 955793099 -1549009979 -357423417 -1301408815 -1345741127 -1857145020 1729881787 -2142561114 -929377638 362522931 -1273376835 -622678801 1118633441 1349818344 -373159813 -1146594066 1247941678 1143367592 1031944519 2068807539 1165996384 -73742136 -1409645864 1786209532
REM
CELL 1.54180   15.00000   15.00000   15.00000   90.00000   90.00000   90.00000
LATT -1
SFAC C  
C      1  0.6259190000000  0.4052900000000  0.6440290000000 1.0
C      1  0.4533930000000  0.3454670000000  0.6471500000000 1.0
C      1  0.3496610000000  0.4953660000000  0.6458910000000 1.0
C      1  0.4500870000000  0.6373070000000  0.7162020000000 1.0
C      1  0.5935310000000  0.5725410000000  0.6655790000000 1.0
C      1  0.3740820000000  0.4052890000000  0.6440300000000 1.0
C      1  0.5466090000000  0.3454670000000  0.6471490000000 1.0
C      1  0.6503380000000  0.4953680000000  0.6458900000000 1.0
C      1  0.5499100000000  0.6373070000000  0.7162020000000 1.0
C      1  0.4064660000000  0.5725410000000  0.6655800000000 1.0
C      1  0.6275020000000  0.3872780000000  0.3408650000000 1.0
C      1  0.4539210000000  0.3289800000000  0.3438340000000 1.0
C      1  0.3429240000000  0.4739210000000  0.3355950000000 1.0
C      1  0.4512880000000  0.6213310000000  0.3325600000000 1.0
C      1  0.6245240000000  0.5679790000000  0.3303520000000 1.0
C      1  0.3725010000000  0.3872750000000  0.3408660000000 1.0
C      1  0.5460830000000  0.3289810000000  0.3438330000000 1.0
C      1  0.6570780000000  0.4739240000000  0.3355940000000 1.0
C      1  0.5487120000000  0.6213320000000  0.3325580000000 1.0
C      1  0.3754770000000  0.5679760000000  0.3303540000000 1.0
C      1  0.7051860000000  0.3728670000000  0.4947120000000 1.0
C      1  0.4525090000000  0.2542650000000  0.5002560000000 1.0
C      1  0.2677290000000  0.4646720000000  0.4926020000000 1.0
C      1  0.3985170000000  0.7122470000000  0.4685330000000 1.0
C      1  0.6806960000000  0.6553730000000  0.4661900000000 1.0
C      1  0.2948160000000  0.3728630000000  0.4947130000000 1.0
C      1  0.5474950000000  0.2542670000000  0.5002550000000 1.0
C      1  0.7322720000000  0.4646760000000  0.4926020000000 1.0
C      1  0.6014800000000  0.7122480000000  0.4685330000000 1.0
C      1  0.3193010000000  0.6553710000000  0.4661900000000 1.0
C      1  0.3083640000000  0.5947020000000  0.3983260000000 1.0
C      1  0.5481800000000  0.7020390000000  0.3934540000000 1.0
C      1  0.7236970000000  0.5046660000000  0.4066760000000 1.0
C      1  0.5905360000000  0.2774950000000  0.4198570000000 1.0
C      1  0.3334560000000  0.3353820000000  0.4175470000000 1.0
C      1  0.6916360000000  0.5947060000000  0.3983260000000 1.0
C      1  0.4518190000000  0.7020370000000  0.3934550000000 1.0
C      1  0.2763040000000  0.5046620000000  0.4066760000000 1.0
C      1  0.4094680000000  0.2774930000000  0.4198580000000 1.0
C      1  0.6665470000000  0.3353860000000  0.4175460000000 1.0
C      1  0.5446810000000  0.4151710000000  0.4852020000000 1.0
C      1  0.4140960000000  0.4928220000000  0.4791400000000 1.0
C      1  0.4088550000000  0.6174730000000  0.5800630000000 1.0
C      1  0.5518630000000  0.7064780000000  0.5573100000000 1.0
C      1  0.5442950000000  0.5653660000000  0.5115980000000 1.0
C      1  0.4553230000000  0.4151670000000  0.4852040000000 1.0
C      1  0.5859020000000  0.4928280000000  0.4791310000000 1.0
C      1  0.5911410000000  0.6174730000000  0.5800620000000 1.0
C      1  0.4481330000000  0.7064780000000  0.5573100000000 1.0
C      1  0.4557000000000  0.5653630000000  0.5116010000000 1.0
C      1  0.6654880000000  0.3451430000000  0.5746060000000 1.0
C      1  0.4101450000000  0.2870760000000  0.5779470000000 1.0
C      1  0.2885920000000  0.5223310000000  0.5686650000000 1.0
C      1  0.4524030000000  0.7282040000000  0.6568150000000 1.0
C      1  0.6855810000000  0.6107670000000  0.5484470000000 1.0
C      1  0.3345150000000  0.3451400000000  0.5746060000000 1.0
C      1  0.5898580000000  0.2870780000000  0.5779460000000 1.0
C      1  0.7114060000000  0.5223340000000  0.5686650000000 1.0
C      1  0.5475940000000  0.7282040000000  0.6568150000000 1.0
C      1  0.3144150000000  0.6107650000000  0.5484470000000 1.0
END
