TITL C-2159252-5904-188 -0.00181950494569282 3375 -411.330060971206 0 0 60 (C1) n - 1
REM
REM in /scratch/bkarasulu/870
REM
REM
REM
REM
REM
REM ./C.cell (a2850807a9bf4ad07a5b6933b78d9264)
REM AIRSS Version 0.9.1 bugfix July 2018 build 013d7b7c2542+ Fri, 06 Jul 2018 19:26:36 +0100
REM compiler GCC version 9.2.1 20190827 (Red Hat 9.2.1-1)
REM options -cpp -mtune=generic -march=x86-64 -g -O0 -fpre-include=/usr/include/finclude/math-vector-fortran.h
REM seed 2101759312 -1165365181 2032325066 1056459667 1336293209 1997204221 -895306622 -30029101 -286836908 -943830770 2120651648 -1092540067 -1283348734 -89366282 1395147435 -319112916 156173136 -644850659 1569440374 -665041042 -1770618133 1970865201 -1909498249 1455088947 1215454943 168897014 1199591867 -456270597 1712151735 155328810 -1087304664 -1068915132 2146020578
REM
CELL 1.54180   15.00000   15.00000   15.00000   90.00000   90.00000   90.00000
LATT -1
SFAC C  
C      1  0.3064770000000  0.6049970000000  0.4591510000000 1.0
C      1  0.2884430000000  0.4401580000000  0.4608430000000 1.0
C      1  0.5188820000000  0.2565320000000  0.3979210000000 1.0
C      1  0.6599110000000  0.3236660000000  0.4701110000000 1.0
C      1  0.7354240000000  0.4761910000000  0.4765230000000 1.0
C      1  0.5976000000000  0.7170830000000  0.4114390000000 1.0
C      1  0.4341890000000  0.7112360000000  0.4529790000000 1.0
C      1  0.4006560000000  0.5539460000000  0.7083490000000 1.0
C      1  0.3938500000000  0.4563010000000  0.7072410000000 1.0
C      1  0.4621170000000  0.3855160000000  0.7028530000000 1.0
C      1  0.5560220000000  0.3898510000000  0.7220380000000 1.0
C      1  0.6168220000000  0.5079040000000  0.7263730000000 1.0
C      1  0.5712460000000  0.5916620000000  0.7060130000000 1.0
C      1  0.4775990000000  0.6117890000000  0.7035630000000 1.0
C      1  0.5314220000000  0.6023700000000  0.4425940000000 1.0
C      1  0.4599280000000  0.5405540000000  0.4491560000000 1.0
C      1  0.4338200000000  0.4779270000000  0.3769200000000 1.0
C      1  0.4331530000000  0.3920800000000  0.4287010000000 1.0
C      1  0.5312570000000  0.3826630000000  0.4426070000000 1.0
C      1  0.5819180000000  0.4575480000000  0.4811750000000 1.0
C      1  0.6135900000000  0.5492380000000  0.4528680000000 1.0
C      1  0.7007720000000  0.4123560000000  0.3363960000000 1.0
C      1  0.6684290000000  0.5717170000000  0.3716350000000 1.0
C      1  0.5397200000000  0.6621840000000  0.3543460000000 1.0
C      1  0.3906850000000  0.6259810000000  0.3188390000000 1.0
C      1  0.3351060000000  0.4878980000000  0.3549830000000 1.0
C      1  0.3725590000000  0.3346850000000  0.3706900000000 1.0
C      1  0.5652740000000  0.3337180000000  0.3572500000000 1.0
C      1  0.5374180000000  0.3083540000000  0.5855480000000 1.0
C      1  0.6739800000000  0.4056580000000  0.6133160000000 1.0
C      1  0.6815310000000  0.5725870000000  0.6004080000000 1.0
C      1  0.5460130000000  0.6909630000000  0.5842640000000 1.0
C      1  0.3768880000000  0.6621120000000  0.5938230000000 1.0
C      1  0.2949700000000  0.5171390000000  0.5991550000000 1.0
C      1  0.3663090000000  0.3664230000000  0.5854610000000 1.0
C      1  0.3605510000000  0.3927080000000  0.4980930000000 1.0
C      1  0.5656700000000  0.2975410000000  0.4923910000000 1.0
C      1  0.6815270000000  0.4053820000000  0.5172150000000 1.0
C      1  0.6974040000000  0.5577100000000  0.5109200000000 1.0
C      1  0.5301220000000  0.7024600000000  0.4888890000000 1.0
C      1  0.3609470000000  0.6743230000000  0.5017820000000 1.0
C      1  0.2783960000000  0.5250070000000  0.5059040000000 1.0
C      1  0.4444160000000  0.6884950000000  0.3601830000000 1.0
C      1  0.3217790000000  0.5831550000000  0.3677200000000 1.0
C      1  0.2939200000000  0.4089360000000  0.3699260000000 1.0
C      1  0.4282250000000  0.2686250000000  0.3797170000000 1.0
C      1  0.6567700000000  0.3445920000000  0.3748620000000 1.0
C      1  0.7160300000000  0.4887820000000  0.3800400000000 1.0
C      1  0.6427780000000  0.6585590000000  0.3538370000000 1.0
C      1  0.6012010000000  0.3520080000000  0.6447760000000 1.0
C      1  0.6769590000000  0.4925940000000  0.6530990000000 1.0
C      1  0.6113860000000  0.6326620000000  0.6293930000000 1.0
C      1  0.4637050000000  0.6765600000000  0.6323820000000 1.0
C      1  0.3389420000000  0.5884370000000  0.6422520000000 1.0
C      1  0.3277430000000  0.4355070000000  0.6407710000000 1.0
C      1  0.4504490000000  0.3342680000000  0.6223640000000 1.0
C      1  0.4997510000000  0.4954290000000  0.5191470000000 1.0
C      1  0.4524500000000  0.4988340000000  0.2792400000000 1.0
C      1  0.5985040000000  0.4406420000000  0.7861290000000 1.0
C      1  0.4262870000000  0.5735030000000  0.2475740000000 1.0
END
