TITL C-2158984-8299-658 -0.00185941903726095 3375 -379.716940594824 0 0 60 (Ih) n - 1
REM
REM in /scratch/bkarasulu/869
REM
REM
REM
REM
REM
REM ./C.cell (a2850807a9bf4ad07a5b6933b78d9264)
REM AIRSS Version 0.9.1 bugfix July 2018 build 013d7b7c2542+ Fri, 06 Jul 2018 19:26:36 +0100
REM compiler GCC version 9.2.1 20190827 (Red Hat 9.2.1-1)
REM options -cpp -mtune=generic -march=x86-64 -g -O0 -fpre-include=/usr/include/finclude/math-vector-fortran.h
REM seed 476953449 1241765615 -1787527941 -1109849681 477038577 -442120993 972913650 1143358413 -1835829650 687873232 -1221633834 684505305 -342691135 -1941027044 -35565163 -1155967440 770392689 1867557810 1449201126 -132805770 -1459576159 -1834652318 -913827288 -1879288570 1542754491 -1886971723 -1912259443 -109270344 -1566076817 -2004210393 1909359311 -1371287026 313251262
REM
CELL 1.54180   15.00000   15.00000   15.00000   90.00000   90.00000   90.00000
LATT -1
SFAC C  
C      1  0.4501280000000  0.2901390000000  0.4506640000000 1.0
C      1  0.4506640000000  0.4501280000000  0.2901390000000 1.0
C      1  0.2901390000000  0.4506640000000  0.4501280000000 1.0
C      1  0.5498720000000  0.7098610000000  0.4506640000000 1.0
C      1  0.5498720000000  0.2901390000000  0.5493360000000 1.0
C      1  0.4501280000000  0.7098610000000  0.5493360000000 1.0
C      1  0.5493360000000  0.5498720000000  0.2901390000000 1.0
C      1  0.5493360000000  0.4501280000000  0.7098610000000 1.0
C      1  0.4506640000000  0.5498720000000  0.7098610000000 1.0
C      1  0.7098610000000  0.5493360000000  0.4501280000000 1.0
C      1  0.7098610000000  0.4506640000000  0.5498720000000 1.0
C      1  0.2901390000000  0.5493360000000  0.5498720000000 1.0
C      1  0.4501280000000  0.2901390000000  0.5493360000000 1.0
C      1  0.4506640000000  0.4501280000000  0.7098610000000 1.0
C      1  0.2901390000000  0.4506640000000  0.5498720000000 1.0
C      1  0.5498720000000  0.7098610000000  0.5493360000000 1.0
C      1  0.5498720000000  0.2901390000000  0.4506640000000 1.0
C      1  0.4501280000000  0.7098610000000  0.4506640000000 1.0
C      1  0.5493360000000  0.5498720000000  0.7098610000000 1.0
C      1  0.5493360000000  0.4501280000000  0.2901390000000 1.0
C      1  0.4506640000000  0.5498720000000  0.2901390000000 1.0
C      1  0.7098610000000  0.5493360000000  0.5498720000000 1.0
C      1  0.7098610000000  0.4506640000000  0.4501280000000 1.0
C      1  0.2901390000000  0.5493360000000  0.4501280000000 1.0
C      1  0.3703000000000  0.3394770000000  0.5798280000000 1.0
C      1  0.5798280000000  0.3703000000000  0.3394770000000 1.0
C      1  0.3394770000000  0.5798280000000  0.3703000000000 1.0
C      1  0.6297000000000  0.6605230000000  0.5798280000000 1.0
C      1  0.6297000000000  0.3394770000000  0.4201720000000 1.0
C      1  0.3703000000000  0.6605230000000  0.4201720000000 1.0
C      1  0.4201720000000  0.6297000000000  0.3394770000000 1.0
C      1  0.4201720000000  0.3703000000000  0.6605230000000 1.0
C      1  0.5798280000000  0.6297000000000  0.6605230000000 1.0
C      1  0.6605230000000  0.4201720000000  0.3703000000000 1.0
C      1  0.6605230000000  0.5798280000000  0.6297000000000 1.0
C      1  0.3394770000000  0.4201720000000  0.6297000000000 1.0
C      1  0.3703000000000  0.3394770000000  0.4201720000000 1.0
C      1  0.5798280000000  0.3703000000000  0.6605230000000 1.0
C      1  0.3394770000000  0.5798280000000  0.6297000000000 1.0
C      1  0.6297000000000  0.6605230000000  0.4201720000000 1.0
C      1  0.6297000000000  0.3394770000000  0.5798280000000 1.0
C      1  0.3703000000000  0.6605230000000  0.5798280000000 1.0
C      1  0.4201720000000  0.6297000000000  0.6605230000000 1.0
C      1  0.4201720000000  0.3703000000000  0.3394770000000 1.0
C      1  0.5798280000000  0.6297000000000  0.3394770000000 1.0
C      1  0.6605230000000  0.4201720000000  0.6297000000000 1.0
C      1  0.6605230000000  0.5798280000000  0.3703000000000 1.0
C      1  0.3394770000000  0.4201720000000  0.3703000000000 1.0
C      1  0.3699690000000  0.5000000000000  0.3209630000000 1.0
C      1  0.6300310000000  0.5000000000000  0.3209630000000 1.0
C      1  0.3699690000000  0.5000000000000  0.6790370000000 1.0
C      1  0.6790370000000  0.3699690000000  0.5000000000000 1.0
C      1  0.5000000000000  0.6790370000000  0.3699690000000 1.0
C      1  0.5000000000000  0.3209630000000  0.6300310000000 1.0
C      1  0.6300310000000  0.5000000000000  0.6790370000000 1.0
C      1  0.3209630000000  0.6300310000000  0.5000000000000 1.0
C      1  0.3209630000000  0.3699690000000  0.5000000000000 1.0
C      1  0.6790370000000  0.6300310000000  0.5000000000000 1.0
C      1  0.5000000000000  0.3209630000000  0.3699690000000 1.0
C      1  0.5000000000000  0.6790370000000  0.6300310000000 1.0
END
