TITL C-2159255-4746-547 -0.00240496586370955 3375 -409.833717163107 0 0 60 (C4) n - 1
REM
REM in /scratch/bkarasulu/871
REM
REM
REM
REM
REM
REM ./C.cell (a2850807a9bf4ad07a5b6933b78d9264)
REM AIRSS Version 0.9.1 bugfix July 2018 build 013d7b7c2542+ Fri, 06 Jul 2018 19:26:36 +0100
REM compiler GCC version 9.2.1 20190827 (Red Hat 9.2.1-1)
REM options -cpp -mtune=generic -march=x86-64 -g -O0 -fpre-include=/usr/include/finclude/math-vector-fortran.h
REM seed -1731710711 -368394305 1708635152 1658090487 1143246759 1321452419 937935839 547105875 765036289 1155412729 -1209617180 -1610998407 1227464272 -432997854 265867002 886288654 -246574592 1611330766 -338992113 -1735538608 556653608 696152489 -174001097 1255456877 -244441644 -762918434 -1114409485 227344142 -1109005543 -858114072 1304770487 1931076087 -411631900
REM
CELL 1.54180   15.00000   15.00000   15.00000   90.00000   90.00000   90.00000
LATT -1
SFAC C  
C      1  0.4802580000000  0.2852120000000  0.4061780000000 1.0
C      1  0.7147880000000  0.4802580000000  0.4061780000000 1.0
C      1  0.5197420000000  0.7147880000000  0.4061780000000 1.0
C      1  0.2852120000000  0.5197420000000  0.4061780000000 1.0
C      1  0.5671430000000  0.4898680000000  0.7403060000000 1.0
C      1  0.5101320000000  0.5671430000000  0.7403060000000 1.0
C      1  0.4328570000000  0.5101320000000  0.7403060000000 1.0
C      1  0.4898680000000  0.4328570000000  0.7403060000000 1.0
C      1  0.5643660000000  0.2558470000000  0.4402020000000 1.0
C      1  0.7441530000000  0.5643660000000  0.4402020000000 1.0
C      1  0.4356340000000  0.7441530000000  0.4402020000000 1.0
C      1  0.2558470000000  0.4356340000000  0.4402020000000 1.0
C      1  0.4544260000000  0.5562350000000  0.5126780000000 1.0
C      1  0.4437650000000  0.4544260000000  0.5126780000000 1.0
C      1  0.5455740000000  0.4437650000000  0.5126780000000 1.0
C      1  0.5562350000000  0.5455740000000  0.5126780000000 1.0
C      1  0.3739990000000  0.6803650000000  0.5704920000000 1.0
C      1  0.3196350000000  0.3739990000000  0.5704920000000 1.0
C      1  0.6260010000000  0.3196350000000  0.5704920000000 1.0
C      1  0.6803650000000  0.6260010000000  0.5704920000000 1.0
C      1  0.4031700000000  0.4275330000000  0.6034430000000 1.0
C      1  0.5724670000000  0.4031700000000  0.6034430000000 1.0
C      1  0.5968300000000  0.5724670000000  0.6034430000000 1.0
C      1  0.4275330000000  0.5968300000000  0.6034430000000 1.0
C      1  0.4835330000000  0.3922940000000  0.6539680000000 1.0
C      1  0.6077060000000  0.4835330000000  0.6539680000000 1.0
C      1  0.5164670000000  0.6077060000000  0.6539680000000 1.0
C      1  0.3922940000000  0.5164670000000  0.6539680000000 1.0
C      1  0.3372950000000  0.3142070000000  0.4958690000000 1.0
C      1  0.6857930000000  0.3372950000000  0.4958690000000 1.0
C      1  0.6627050000000  0.6857930000000  0.4958690000000 1.0
C      1  0.3142070000000  0.6627050000000  0.4958690000000 1.0
C      1  0.3725280000000  0.6766640000000  0.4229350000000 1.0
C      1  0.3233360000000  0.3725280000000  0.4229350000000 1.0
C      1  0.6274720000000  0.3233360000000  0.4229350000000 1.0
C      1  0.6766640000000  0.6274720000000  0.4229350000000 1.0
C      1  0.2712520000000  0.5811100000000  0.4820680000000 1.0
C      1  0.4188900000000  0.2712520000000  0.4820680000000 1.0
C      1  0.7287480000000  0.4188900000000  0.4820680000000 1.0
C      1  0.5811100000000  0.7287480000000  0.4820680000000 1.0
C      1  0.4367010000000  0.7448870000000  0.5362950000000 1.0
C      1  0.2551130000000  0.4367010000000  0.5362950000000 1.0
C      1  0.5632990000000  0.2551130000000  0.5362950000000 1.0
C      1  0.7448870000000  0.5632990000000  0.5362950000000 1.0
C      1  0.5147600000000  0.6193700000000  0.3738520000000 1.0
C      1  0.3806300000000  0.5147600000000  0.3738520000000 1.0
C      1  0.4852400000000  0.3806300000000  0.3738520000000 1.0
C      1  0.6193700000000  0.4852400000000  0.3738520000000 1.0
C      1  0.2618010000000  0.5257600000000  0.5550000000000 1.0
C      1  0.4742400000000  0.2618010000000  0.5550000000000 1.0
C      1  0.7381990000000  0.4742400000000  0.5550000000000 1.0
C      1  0.5257600000000  0.7381990000000  0.5550000000000 1.0
C      1  0.5094580000000  0.5688300000000  0.2876320000000 1.0
C      1  0.4311700000000  0.5094580000000  0.2876320000000 1.0
C      1  0.4905420000000  0.4311700000000  0.2876320000000 1.0
C      1  0.5688300000000  0.4905420000000  0.2876320000000 1.0
C      1  0.4274940000000  0.5923460000000  0.4190830000000 1.0
C      1  0.4076540000000  0.4274940000000  0.4190830000000 1.0
C      1  0.5725060000000  0.4076540000000  0.4190830000000 1.0
C      1  0.5923460000000  0.5725060000000  0.4190830000000 1.0
END
