TITL C-2158984-8299-697 -0.00204077902562447 3375 -401.043403768579 0 0 60 (C1) n - 1
REM
REM in /scratch/bkarasulu/869
REM
REM
REM
REM
REM
REM ./C.cell (a2850807a9bf4ad07a5b6933b78d9264)
REM AIRSS Version 0.9.1 bugfix July 2018 build 013d7b7c2542+ Fri, 06 Jul 2018 19:26:36 +0100
REM compiler GCC version 9.2.1 20190827 (Red Hat 9.2.1-1)
REM options -cpp -mtune=generic -march=x86-64 -g -O0 -fpre-include=/usr/include/finclude/math-vector-fortran.h
REM seed 700197163 -580228429 -953192452 1989745013 -913000990 -941675405 1037307816 1271580608 -1805203546 1568241704 500872830 2146907460 -788221729 -167513453 517952845 690165616 1572969276 312344105 -1304948495 873284708 -1746280531 1526550581 491490740 2115475043 201117766 -1139609814 1306009017 774143259 -2022434490 -1352450163 -312794221 178177392 1488100554
REM
CELL 1.54180   15.00000   15.00000   15.00000   90.00000   90.00000   90.00000
LATT -1
SFAC C  
C      1  0.3048250000000  0.4603720000000  0.5309090000000 1.0
C      1  0.5910830000000  0.4588540000000  0.2892800000000 1.0
C      1  0.6175320000000  0.4639700000000  0.6762500000000 1.0
C      1  0.4563510000000  0.4884570000000  0.3334350000000 1.0
C      1  0.6327490000000  0.4842490000000  0.5305460000000 1.0
C      1  0.3660580000000  0.4993710000000  0.6593590000000 1.0
C      1  0.3748420000000  0.4275690000000  0.4710130000000 1.0
C      1  0.5971480000000  0.4187640000000  0.3823620000000 1.0
C      1  0.5294870000000  0.4283650000000  0.6390290000000 1.0
C      1  0.3597510000000  0.7473030000000  0.5797460000000 1.0
C      1  0.4978800000000  0.7450530000000  0.3403890000000 1.0
C      1  0.6264030000000  0.7364130000000  0.5780480000000 1.0
C      1  0.2995340000000  0.5312700000000  0.3705940000000 1.0
C      1  0.7233330000000  0.5274310000000  0.3942710000000 1.0
C      1  0.4749050000000  0.5334820000000  0.7537210000000 1.0
C      1  0.3970040000000  0.6666070000000  0.6182020000000 1.0
C      1  0.4578330000000  0.6611650000000  0.3574790000000 1.0
C      1  0.6344680000000  0.6602480000000  0.5235400000000 1.0
C      1  0.6194630000000  0.6538670000000  0.4249250000000 1.0
C      1  0.4942100000000  0.6608540000000  0.6425900000000 1.0
C      1  0.4032510000000  0.6416730000000  0.4418970000000 1.0
C      1  0.6160010000000  0.3271850000000  0.4237110000000 1.0
C      1  0.4993000000000  0.3337720000000  0.6393640000000 1.0
C      1  0.3825560000000  0.3328810000000  0.4388730000000 1.0
C      1  0.5031270000000  0.4390120000000  0.2542240000000 1.0
C      1  0.6825040000000  0.4383940000000  0.6141840000000 1.0
C      1  0.3049320000000  0.4338110000000  0.6208720000000 1.0
C      1  0.4716930000000  0.5733200000000  0.4877150000000 1.0
C      1  0.5465160000000  0.5835430000000  0.4257320000000 1.0
C      1  0.5213700000000  0.6003590000000  0.5649720000000 1.0
C      1  0.3181110000000  0.5907720000000  0.4397350000000 1.0
C      1  0.6691720000000  0.5898610000000  0.3604690000000 1.0
C      1  0.5267650000000  0.5935280000000  0.7113400000000 1.0
C      1  0.4325140000000  0.3516990000000  0.7027570000000 1.0
C      1  0.3678090000000  0.3564740000000  0.3482700000000 1.0
C      1  0.6979800000000  0.3548290000000  0.4606810000000 1.0
C      1  0.3995620000000  0.3298050000000  0.2685810000000 1.0
C      1  0.7531890000000  0.3296730000000  0.5280260000000 1.0
C      1  0.3509410000000  0.3129680000000  0.7169130000000 1.0
C      1  0.6155810000000  0.5760150000000  0.5689220000000 1.0
C      1  0.3569270000000  0.5802790000000  0.6086340000000 1.0
C      1  0.5049440000000  0.5751910000000  0.3375620000000 1.0
C      1  0.4684450000000  0.4716920000000  0.4857160000000 1.0
C      1  0.5050430000000  0.4380510000000  0.4018790000000 1.0
C      1  0.5401530000000  0.4453300000000  0.5432450000000 1.0
C      1  0.4533020000000  0.2794430000000  0.4745640000000 1.0
C      1  0.5476510000000  0.2790980000000  0.4730170000000 1.0
C      1  0.4993040000000  0.2790700000000  0.5567650000000 1.0
C      1  0.2964210000000  0.3552260000000  0.6637800000000 1.0
C      1  0.4591790000000  0.3708400000000  0.2181420000000 1.0
C      1  0.7447200000000  0.3755850000000  0.6024530000000 1.0
C      1  0.3090560000000  0.5553640000000  0.5282130000000 1.0
C      1  0.5955620000000  0.5528870000000  0.3045210000000 1.0
C      1  0.6065340000000  0.5570090000000  0.6687870000000 1.0
C      1  0.5733230000000  0.7199360000000  0.3737330000000 1.0
C      1  0.5591460000000  0.7345330000000  0.6315860000000 1.0
C      1  0.3790890000000  0.7099530000000  0.5055840000000 1.0
C      1  0.3624760000000  0.4612100000000  0.3678180000000 1.0
C      1  0.6744940000000  0.4566090000000  0.4416770000000 1.0
C      1  0.4464970000000  0.4594580000000  0.6993980000000 1.0
END
