TITL C-2159255-4746-582 -0.00318362692215088 3375 -424.471145373475 0 0 60 (D2h) n - 1
REM
REM in /scratch/bkarasulu/871
REM
REM
REM
REM
REM
REM ./C.cell (a2850807a9bf4ad07a5b6933b78d9264)
REM AIRSS Version 0.9.1 bugfix July 2018 build 013d7b7c2542+ Fri, 06 Jul 2018 19:26:36 +0100
REM compiler GCC version 9.2.1 20190827 (Red Hat 9.2.1-1)
REM options -cpp -mtune=generic -march=x86-64 -g -O0 -fpre-include=/usr/include/finclude/math-vector-fortran.h
REM seed 896574508 -457362946 1858498120 -18671911 552944596 -63328976 -1728800231 65294775 -1441279272 -1358064347 335893857 161629701 2087284668 -902340006 428984560 1109377840 994117138 2048061225 -1063207636 1050866446 -555097359 330266049 -1408381969 -711669807 -139471595 -1226377342 1892340952 729633181 -394240516 -252999468 463378258 -296906898 -547687321
REM
CELL 1.54180   15.00000   15.00000   15.00000   90.00000   90.00000   90.00000
LATT -1
SFAC C  
C      1  0.4516750000000  0.3475400000000  0.3056600000000 1.0
C      1  0.4516750000000  0.6524600000000  0.6943400000000 1.0
C      1  0.5501850000000  0.3475400000000  0.3056600000000 1.0
C      1  0.5501850000000  0.6524600000000  0.6943400000000 1.0
C      1  0.4516750000000  0.3475400000000  0.6943400000000 1.0
C      1  0.4516750000000  0.6524600000000  0.3056600000000 1.0
C      1  0.5501850000000  0.3475400000000  0.6943400000000 1.0
C      1  0.5501850000000  0.6524600000000  0.3056600000000 1.0
C      1  0.3893600000000  0.3447880000000  0.3740140000000 1.0
C      1  0.3893600000000  0.6552120000000  0.6259860000000 1.0
C      1  0.6125000000000  0.3447880000000  0.3740140000000 1.0
C      1  0.6125000000000  0.6552120000000  0.6259860000000 1.0
C      1  0.3893600000000  0.3447880000000  0.6259860000000 1.0
C      1  0.3893600000000  0.6552120000000  0.3740140000000 1.0
C      1  0.6125000000000  0.3447880000000  0.6259860000000 1.0
C      1  0.6125000000000  0.6552120000000  0.3740140000000 1.0
C      1  0.4523180000000  0.5786310000000  0.7563360000000 1.0
C      1  0.4523180000000  0.4213690000000  0.2436640000000 1.0
C      1  0.5495420000000  0.5786310000000  0.7563360000000 1.0
C      1  0.5495420000000  0.4213690000000  0.2436640000000 1.0
C      1  0.4523180000000  0.5786310000000  0.2436640000000 1.0
C      1  0.4523180000000  0.4213690000000  0.7563360000000 1.0
C      1  0.5495420000000  0.5786310000000  0.2436640000000 1.0
C      1  0.5495420000000  0.4213690000000  0.7563360000000 1.0
C      1  0.5872910000000  0.3010450000000  0.5444560000000 1.0
C      1  0.5872910000000  0.6989550000000  0.4555440000000 1.0
C      1  0.4145690000000  0.3010450000000  0.5444560000000 1.0
C      1  0.4145690000000  0.6989550000000  0.4555440000000 1.0
C      1  0.5872910000000  0.3010450000000  0.4555440000000 1.0
C      1  0.5872910000000  0.6989550000000  0.5444560000000 1.0
C      1  0.4145690000000  0.3010450000000  0.4555440000000 1.0
C      1  0.4145690000000  0.6989550000000  0.5444560000000 1.0
C      1  0.3262500000000  0.5835970000000  0.6212550000000 1.0
C      1  0.3262500000000  0.4164030000000  0.3787450000000 1.0
C      1  0.6756100000000  0.5835970000000  0.6212550000000 1.0
C      1  0.6756100000000  0.4164030000000  0.3787450000000 1.0
C      1  0.3262500000000  0.5835970000000  0.3787450000000 1.0
C      1  0.3262500000000  0.4164030000000  0.6212550000000 1.0
C      1  0.6756100000000  0.5835970000000  0.3787450000000 1.0
C      1  0.6756100000000  0.4164030000000  0.6212550000000 1.0
C      1  0.2731970000000  0.4191400000000  0.4553680000000 1.0
C      1  0.2731970000000  0.5808600000000  0.5446320000000 1.0
C      1  0.7286630000000  0.4191400000000  0.4553680000000 1.0
C      1  0.7286630000000  0.5808600000000  0.5446320000000 1.0
C      1  0.2731970000000  0.4191400000000  0.5446320000000 1.0
C      1  0.2731970000000  0.5808600000000  0.4553680000000 1.0
C      1  0.7286630000000  0.4191400000000  0.5446320000000 1.0
C      1  0.7286630000000  0.5808600000000  0.4553680000000 1.0
C      1  0.5981370000000  0.5000000000000  0.2608800000000 1.0
C      1  0.4037230000000  0.5000000000000  0.7391200000000 1.0
C      1  0.4037230000000  0.5000000000000  0.2608800000000 1.0
C      1  0.5981370000000  0.5000000000000  0.7391200000000 1.0
C      1  0.3404500000000  0.5000000000000  0.6672020000000 1.0
C      1  0.6614100000000  0.5000000000000  0.3327980000000 1.0
C      1  0.3404500000000  0.5000000000000  0.3327980000000 1.0
C      1  0.6614100000000  0.5000000000000  0.6672020000000 1.0
C      1  0.7582770000000  0.5000000000000  0.5000000000000 1.0
C      1  0.2435840000000  0.5000000000000  0.5000000000000 1.0
C      1  0.5009300000000  0.2847060000000  0.5000000000000 1.0
C      1  0.5009300000000  0.7152940000000  0.5000000000000 1.0
END
