TITL C-2159255-4746-260 -0.0203333629391834 3375 -411.433873601076 0 0 60 (D2) n - 1
REM
REM in /scratch/bkarasulu/871
REM
REM
REM
REM
REM
REM ./C.cell (a2850807a9bf4ad07a5b6933b78d9264)
REM AIRSS Version 0.9.1 bugfix July 2018 build 013d7b7c2542+ Fri, 06 Jul 2018 19:26:36 +0100
REM compiler GCC version 9.2.1 20190827 (Red Hat 9.2.1-1)
REM options -cpp -mtune=generic -march=x86-64 -g -O0 -fpre-include=/usr/include/finclude/math-vector-fortran.h
REM seed -1863004808 2076661759 728740866 -1695860027 487770917 -1510889903 1340876504 298963655 -2016440258 -937175459 -1904576310 938499345 -1086578828 1269153514 2094361946 491979815 -533217620 -191126300 365161388 -667672937 -634421872 625442028 418601915 -1059922605 27473540 -1145313431 1317356275 1642954940 1700861793 1889105284 -228186031 1532348416 -299271899
REM
CELL 1.54180   15.00000   15.00000   15.00000   90.00000   90.00000   90.00000
LATT -1
SFAC C  
C      1  0.6015770000000  0.4788450000000  0.2938680000000 1.0
C      1  0.5634000000000  0.4306680000000  0.7314480000000 1.0
C      1  0.5214130000000  0.4054920000000  0.2947770000000 1.0
C      1  0.4726540000000  0.4070350000000  0.7052240000000 1.0
C      1  0.4323420000000  0.4348160000000  0.2685530000000 1.0
C      1  0.3972890000000  0.4853100000000  0.7061320000000 1.0
C      1  0.3984260000000  0.5211560000000  0.2938680000000 1.0
C      1  0.4365980000000  0.5693320000000  0.7314500000000 1.0
C      1  0.4785900000000  0.5945100000000  0.2947750000000 1.0
C      1  0.5273440000000  0.5929670000000  0.7052250000000 1.0
C      1  0.5676600000000  0.5651850000000  0.2685490000000 1.0
C      1  0.6027090000000  0.5146910000000  0.7061330000000 1.0
C      1  0.3582480000000  0.3743460000000  0.8251520000000 1.0
C      1  0.3428660000000  0.4688950000000  0.1504280000000 1.0
C      1  0.3451480000000  0.5409720000000  0.8495760000000 1.0
C      1  0.3664780000000  0.6343610000000  0.1748430000000 1.0
C      1  0.4787000000000  0.6602340000000  0.8450370000000 1.0
C      1  0.5313880000000  0.6585650000000  0.1549610000000 1.0
C      1  0.6417500000000  0.6256500000000  0.8251580000000 1.0
C      1  0.6571310000000  0.5310970000000  0.1504220000000 1.0
C      1  0.6548510000000  0.4590230000000  0.8495740000000 1.0
C      1  0.6335210000000  0.3656330000000  0.1748470000000 1.0
C      1  0.5212990000000  0.3397610000000  0.8450300000000 1.0
C      1  0.4686090000000  0.3414270000000  0.1549710000000 1.0
C      1  0.3517360000000  0.5343240000000  0.3821570000000 1.0
C      1  0.3859990000000  0.6117130000000  0.5183850000000 1.0
C      1  0.4725750000000  0.6319810000000  0.3849900000000 1.0
C      1  0.5357160000000  0.6299830000000  0.6150100000000 1.0
C      1  0.6208380000000  0.6042810000000  0.4816150000000 1.0
C      1  0.6501390000000  0.5248800000000  0.6178430000000 1.0
C      1  0.6482670000000  0.4656800000000  0.3821580000000 1.0
C      1  0.6140030000000  0.3882920000000  0.5183870000000 1.0
C      1  0.5274280000000  0.3680220000000  0.3849920000000 1.0
C      1  0.4642830000000  0.3700200000000  0.6150080000000 1.0
C      1  0.3791620000000  0.3957240000000  0.4816130000000 1.0
C      1  0.3498610000000  0.4751240000000  0.6178420000000 1.0
C      1  0.3392300000000  0.5321620000000  0.5421450000000 1.0
C      1  0.3859960000000  0.6135260000000  0.4217570000000 1.0
C      1  0.4771650000000  0.6348090000000  0.5409320000000 1.0
C      1  0.5313140000000  0.6330950000000  0.4590680000000 1.0
C      1  0.6209550000000  0.6060900000000  0.5782430000000 1.0
C      1  0.6624830000000  0.5219320000000  0.4578550000000 1.0
C      1  0.6607710000000  0.4678430000000  0.5421460000000 1.0
C      1  0.6140070000000  0.3864780000000  0.4217580000000 1.0
C      1  0.5228350000000  0.3651960000000  0.5409320000000 1.0
C      1  0.4686880000000  0.3669100000000  0.4590680000000 1.0
C      1  0.3790440000000  0.3939140000000  0.5782420000000 1.0
C      1  0.3375180000000  0.4780730000000  0.4578540000000 1.0
C      1  0.5463610000000  0.3501360000000  0.2046120000000 1.0
C      1  0.4442550000000  0.3533680000000  0.7953880000000 1.0
C      1  0.4070180000000  0.4073420000000  0.1820670000000 1.0
C      1  0.3466770000000  0.4628460000000  0.7993020000000 1.0
C      1  0.3493340000000  0.5467710000000  0.2006970000000 1.0
C      1  0.4130630000000  0.5983470000000  0.8179380000000 1.0
C      1  0.4536390000000  0.6498600000000  0.2046060000000 1.0
C      1  0.5557430000000  0.6466290000000  0.7953940000000 1.0
C      1  0.5929800000000  0.5926520000000  0.1820600000000 1.0
C      1  0.6533210000000  0.5371510000000  0.7993040000000 1.0
C      1  0.6506660000000  0.4532250000000  0.2006960000000 1.0
C      1  0.5869350000000  0.4016490000000  0.8179340000000 1.0
END
