TITL C-2158988-7926-26 -0.00217709097732929 3375 -405.765637758386 0 0 60 (C5) n - 1
REM
REM in /scratch/bkarasulu/868
REM
REM
REM
REM
REM
REM ./C.cell (a2850807a9bf4ad07a5b6933b78d9264)
REM AIRSS Version 0.9.1 bugfix July 2018 build 013d7b7c2542+ Fri, 06 Jul 2018 19:26:36 +0100
REM compiler GCC version 9.2.1 20190827 (Red Hat 9.2.1-1)
REM options -cpp -mtune=generic -march=x86-64 -g -O0 -fpre-include=/usr/include/finclude/math-vector-fortran.h
REM seed -1625799081 -1316117128 -1562659531 1807543533 1427176180 1980370607 654583575 1183505021 -544155954 -1305620273 1194528091 -569263115 -849733046 -1153817522 -2092276758 -1938450597 -1051316010 982313912 1881085946 -775792663 -1493088363 1914017943 -677773584 1185398333 1905937815 -1953129394 1262518373 13870929 57887040 1615961941 -108177958 -1880593014 -751933524
REM
CELL 1.54180   15.00000   15.00000   15.00000   90.00000   90.00000   90.00000
LATT -1
SFAC C  
C      1  0.6698730000000  0.5644620000000  0.5442680000000 1.0
C      1  0.5945940000000  0.5644690000000  0.3521200000000 1.0
C      1  0.3885870000000  0.5644730000000  0.3643380000000 1.0
C      1  0.3365500000000  0.5644680000000  0.5640360000000 1.0
C      1  0.5103920000000  0.5644600000000  0.6752370000000 1.0
C      1  0.4455990000000  0.6368270000000  0.6528980000000 1.0
C      1  0.6286030000000  0.6368250000000  0.5989880000000 1.0
C      1  0.6338840000000  0.6368310000000  0.4082810000000 1.0
C      1  0.4541410000000  0.6368370000000  0.3443270000000 1.0
C      1  0.3377760000000  0.6368340000000  0.4955100000000 1.0
C      1  0.5636260000000  0.6846210000000  0.5506430000000 1.0
C      1  0.5678250000000  0.6846240000000  0.4551400000000 1.0
C      1  0.4782940000000  0.6846260000000  0.4216350000000 1.0
C      1  0.4187630000000  0.6846250000000  0.4964310000000 1.0
C      1  0.4715010000000  0.6846210000000  0.5761620000000 1.0
C      1  0.6769640000000  0.3956320000000  0.5953390000000 1.0
C      1  0.6453590000000  0.3956370000000  0.3611590000000 1.0
C      1  0.4128750000000  0.3956390000000  0.3188520000000 1.0
C      1  0.3007960000000  0.3956350000000  0.5268830000000 1.0
C      1  0.4640120000000  0.3956310000000  0.6977630000000 1.0
C      1  0.3059620000000  0.6160670000000  0.4060720000000 1.0
C      1  0.3507070000000  0.6160620000000  0.6555120000000 1.0
C      1  0.6017640000000  0.6160590000000  0.6900440000000 1.0
C      1  0.7121910000000  0.6160620000000  0.4619420000000 1.0
C      1  0.5293720000000  0.6160670000000  0.2864350000000 1.0
C      1  0.5801020000000  0.3012920000000  0.5084020000000 1.0
C      1  0.5327460000000  0.3012950000000  0.4264150000000 1.0
C      1  0.4401390000000  0.3012960000000  0.4461180000000 1.0
C      1  0.4302600000000  0.3012940000000  0.5402800000000 1.0
C      1  0.5167610000000  0.3012910000000  0.5787740000000 1.0
C      1  0.3789750000000  0.3426800000000  0.3904870000000 1.0
C      1  0.3584500000000  0.3426760000000  0.5812600000000 1.0
C      1  0.5335440000000  0.3426730000000  0.6597340000000 1.0
C      1  0.6622840000000  0.3426750000000  0.5174580000000 1.0
C      1  0.5667540000000  0.3426790000000  0.3510540000000 1.0
C      1  0.5383820000000  0.5143880000000  0.4298180000000 1.0
C      1  0.4451120000000  0.5143950000000  0.4418030000000 1.0
C      1  0.4276890000000  0.5143900000000  0.5342120000000 1.0
C      1  0.5101910000000  0.5143800000000  0.5793380000000 1.0
C      1  0.5786030000000  0.5143790000000  0.5148190000000 1.0
C      1  0.7492620000000  0.4532270000000  0.4772670000000 1.0
C      1  0.5554050000000  0.4532330000000  0.2559150000000 1.0
C      1  0.2849870000000  0.4532330000000  0.3718830000000 1.0
C      1  0.3117120000000  0.4532300000000  0.6648980000000 1.0
C      1  0.5986440000000  0.4532250000000  0.7300340000000 1.0
C      1  0.7990360000000  0.6268140000000  0.4473970000000 1.0
C      1  0.5423680000000  0.6268190000000  0.1993440000000 1.0
C      1  0.2271470000000  0.6268170000000  0.3668070000000 1.0
C      1  0.2890030000000  0.6268180000000  0.7183290000000 1.0
C      1  0.6424270000000  0.6268160000000  0.7681450000000 1.0
C      1  0.5088450000000  0.4789140000000  0.7272160000000 1.0
C      1  0.7188290000000  0.4789160000000  0.5618000000000 1.0
C      1  0.6263960000000  0.4789210000000  0.3109800000000 1.0
C      1  0.3592930000000  0.4789220000000  0.3213800000000 1.0
C      1  0.2866410000000  0.4789190000000  0.5786230000000 1.0
C      1  0.6206340000000  0.3850570000000  0.6709880000000 1.0
C      1  0.6998990000000  0.3850600000000  0.4381080000000 1.0
C      1  0.5029110000000  0.3850630000000  0.2907580000000 1.0
C      1  0.3019020000000  0.3850620000000  0.4325730000000 1.0
C      1  0.3746590000000  0.3850580000000  0.6675660000000 1.0
END
