TITL C-2158984-8299-384 -0.00390573638750774 3375 -411.181975177858 0 0 60 (Cs) n - 1
REM
REM in /scratch/bkarasulu/869
REM
REM
REM
REM
REM
REM ./C.cell (a2850807a9bf4ad07a5b6933b78d9264)
REM AIRSS Version 0.9.1 bugfix July 2018 build 013d7b7c2542+ Fri, 06 Jul 2018 19:26:36 +0100
REM compiler GCC version 9.2.1 20190827 (Red Hat 9.2.1-1)
REM options -cpp -mtune=generic -march=x86-64 -g -O0 -fpre-include=/usr/include/finclude/math-vector-fortran.h
REM seed 1690907555 1532196449 -560262653 1647942695 -1855882051 -1528587018 239645431 -22475038 1717345166 1603558623 569297586 -1053271211 1100584517 -529229294 -473297213 91461434 -947922627 -1281114171 1323670953 1513948373 2124363582 -2114090516 -597139977 -2095970261 -4265515 1840737804 -983413094 -1488117658 -555412074 -2108743226 -530053549 -1880689275 -18898177
REM
CELL 1.54180   15.00000   15.00000   15.00000   90.00000   90.00000   90.00000
LATT -1
SFAC C  
C      1  0.4893250000000  0.4654770000000  0.7519630000000 1.0
C      1  0.4891590000000  0.5634810000000  0.7460400000000 1.0
C      1  0.4811790000000  0.7135870000000  0.6644840000000 1.0
C      1  0.4901610000000  0.7538290000000  0.4996380000000 1.0
C      1  0.4901960000000  0.7350400000000  0.4040910000000 1.0
C      1  0.4902320000000  0.6046960000000  0.2696970000000 1.0
C      1  0.4902290000000  0.5097690000000  0.2479930000000 1.0
C      1  0.4812830000000  0.3437660000000  0.2831690000000 1.0
C      1  0.4892450000000  0.2576580000000  0.4307130000000 1.0
C      1  0.4893860000000  0.2487400000000  0.5284900000000 1.0
C      1  0.4814560000000  0.3071110000000  0.6887130000000 1.0
C      1  0.6232180000000  0.3037110000000  0.3483800000000 1.0
C      1  0.6359320000000  0.2475650000000  0.4788040000000 1.0
C      1  0.6238510000000  0.2798080000000  0.6170890000000 1.0
C      1  0.6238230000000  0.3779060000000  0.7182350000000 1.0
C      1  0.6358570000000  0.5151430000000  0.7546980000000 1.0
C      1  0.6231220000000  0.6472200000000  0.7025660000000 1.0
C      1  0.6239990000000  0.7335780000000  0.5911190000000 1.0
C      1  0.6370290000000  0.7502520000000  0.4500250000000 1.0
C      1  0.6252300000000  0.6792060000000  0.3278740000000 1.0
C      1  0.6370820000000  0.5592890000000  0.2531270000000 1.0
C      1  0.6240880000000  0.4177470000000  0.2654720000000 1.0
C      1  0.5799040000000  0.5896130000000  0.7588930000000 1.0
C      1  0.5735580000000  0.7157820000000  0.6661850000000 1.0
C      1  0.5812420000000  0.7734040000000  0.5210680000000 1.0
C      1  0.5809780000000  0.7429510000000  0.3759810000000 1.0
C      1  0.5810080000000  0.6330600000000  0.2626750000000 1.0
C      1  0.5813220000000  0.4889720000000  0.2277970000000 1.0
C      1  0.5736630000000  0.3421580000000  0.2809490000000 1.0
C      1  0.5800010000000  0.2456360000000  0.4042250000000 1.0
C      1  0.5803380000000  0.2324450000000  0.5520340000000 1.0
C      1  0.5740690000000  0.3056770000000  0.6901290000000 1.0
C      1  0.5802790000000  0.4414700000000  0.7675540000000 1.0
C      1  0.4353060000000  0.3375940000000  0.4345990000000 1.0
C      1  0.4353030000000  0.3279230000000  0.5391860000000 1.0
C      1  0.4389800000000  0.3702840000000  0.6274340000000 1.0
C      1  0.4352660000000  0.4571940000000  0.6724750000000 1.0
C      1  0.4352430000000  0.5620270000000  0.6660080000000 1.0
C      1  0.4391780000000  0.6430490000000  0.6113500000000 1.0
C      1  0.4363270000000  0.6758610000000  0.5197920000000 1.0
C      1  0.4360990000000  0.6541460000000  0.4176840000000 1.0
C      1  0.4361170000000  0.5886200000000  0.3501210000000 1.0
C      1  0.4363790000000  0.4872240000000  0.3252920000000 1.0
C      1  0.4392480000000  0.3947060000000  0.3552890000000 1.0
C      1  0.6874670000000  0.6013520000000  0.6389870000000 1.0
C      1  0.6881260000000  0.6599850000000  0.5634150000000 1.0
C      1  0.6936700000000  0.6689800000000  0.4672820000000 1.0
C      1  0.6884080000000  0.6224230000000  0.3829630000000 1.0
C      1  0.6937060000000  0.5395690000000  0.3338480000000 1.0
C      1  0.6881870000000  0.4432040000000  0.3398960000000 1.0
C      1  0.6875330000000  0.3658730000000  0.3961900000000 1.0
C      1  0.6927300000000  0.3297130000000  0.4859370000000 1.0
C      1  0.6876190000000  0.3499920000000  0.5805580000000 1.0
C      1  0.6876000000000  0.4165850000000  0.6492200000000 1.0
C      1  0.6926790000000  0.5105420000000  0.6723870000000 1.0
C      1  0.2227630000000  0.4991700000000  0.5023740000000 1.0
C      1  0.4804590000000  0.4989130000000  0.5026930000000 1.0
C      1  0.5645890000000  0.5008520000000  0.5008360000000 1.0
C      1  0.3940220000000  0.4993480000000  0.5022480000000 1.0
C      1  0.3064410000000  0.4994120000000  0.5021610000000 1.0
END
