TITL C-2158988-7926-944 -0.0019629316042821 3375 -404.886360882327 0 0 60 (C3) n - 1
REM
REM in /scratch/bkarasulu/868
REM
REM
REM
REM
REM
REM ./C.cell (a2850807a9bf4ad07a5b6933b78d9264)
REM AIRSS Version 0.9.1 bugfix July 2018 build 013d7b7c2542+ Fri, 06 Jul 2018 19:26:36 +0100
REM compiler GCC version 9.2.1 20190827 (Red Hat 9.2.1-1)
REM options -cpp -mtune=generic -march=x86-64 -g -O0 -fpre-include=/usr/include/finclude/math-vector-fortran.h
REM seed 1050616276 1357866250 -1704509133 1535611741 1119210315 1227825900 -598325881 -817292116 881671894 -865111793 -139824017 320345559 1550152129 880065378 727041704 864192748 -1143622747 507532488 1121534808 195335558 -2044096592 633231185 1037147863 -1561214193 -304699592 874335548 -355305974 -1150388149 1879650818 -1402180932 1134298785 -2116936398 -635914217
REM
CELL 1.54180   15.00000   15.00000   15.00000   90.00000   90.00000   90.00000
LATT -1
SFAC C  
C      1  0.5084360000000  0.3029900000000  0.4814250000000 1.0
C      1  0.3251670000000  0.5911970000000  0.4814220000000 1.0
C      1  0.6663990000000  0.6058110000000  0.4814340000000 1.0
C      1  0.6086150000000  0.6025460000000  0.7108560000000 1.0
C      1  0.5344910000000  0.3546540000000  0.7108510000000 1.0
C      1  0.3568730000000  0.5427940000000  0.7108470000000 1.0
C      1  0.3459910000000  0.6027410000000  0.6380630000000 1.0
C      1  0.6659770000000  0.5820000000000  0.6380740000000 1.0
C      1  0.4880200000000  0.3152550000000  0.6380650000000 1.0
C      1  0.6812490000000  0.5872020000000  0.3906510000000 1.0
C      1  0.4849000000000  0.2994380000000  0.3906400000000 1.0
C      1  0.3338620000000  0.6133610000000  0.3906390000000 1.0
C      1  0.4600690000000  0.5399950000000  0.5393850000000 1.0
C      1  0.5546020000000  0.5145830000000  0.5393880000000 1.0
C      1  0.4853280000000  0.4454210000000  0.5393850000000 1.0
C      1  0.6592540000000  0.4140380000000  0.6299150000000 1.0
C      1  0.3459240000000  0.4050590000000  0.6299050000000 1.0
C      1  0.4948100000000  0.6809010000000  0.6299130000000 1.0
C      1  0.6137820000000  0.4987190000000  0.6195620000000 1.0
C      1  0.4419960000000  0.4020990000000  0.6195550000000 1.0
C      1  0.4442120000000  0.5991790000000  0.6195580000000 1.0
C      1  0.6580930000000  0.6582330000000  0.3326350000000 1.0
C      1  0.5579950000000  0.2839770000000  0.3326270000000 1.0
C      1  0.2839270000000  0.5577930000000  0.3326220000000 1.0
C      1  0.3291630000000  0.4814760000000  0.3201330000000 1.0
C      1  0.5693830000000  0.6572200000000  0.3201420000000 1.0
C      1  0.6014710000000  0.3613110000000  0.3201400000000 1.0
C      1  0.6209520000000  0.3419740000000  0.6810580000000 1.0
C      1  0.3026620000000  0.4742580000000  0.6810500000000 1.0
C      1  0.5763670000000  0.6837640000000  0.6810610000000 1.0
C      1  0.4970910000000  0.6802260000000  0.3823270000000 1.0
C      1  0.6575390000000  0.4124110000000  0.3823290000000 1.0
C      1  0.3453810000000  0.4073670000000  0.3823190000000 1.0
C      1  0.5254550000000  0.6757340000000  0.4707220000000 1.0
C      1  0.6394630000000  0.3900900000000  0.4707230000000 1.0
C      1  0.3350860000000  0.4341770000000  0.4707150000000 1.0
C      1  0.6257250000000  0.2866540000000  0.5980640000000 1.0
C      1  0.2523700000000  0.4977860000000  0.5980550000000 1.0
C      1  0.6218920000000  0.7155570000000  0.5980690000000 1.0
C      1  0.5926080000000  0.5060810000000  0.2796880000000 1.0
C      1  0.4589700000000  0.4167680000000  0.2796820000000 1.0
C      1  0.4484420000000  0.5771580000000  0.2796840000000 1.0
C      1  0.5725850000000  0.5842120000000  0.4784800000000 1.0
C      1  0.5366370000000  0.3950360000000  0.4784760000000 1.0
C      1  0.3907820000000  0.5207520000000  0.4784740000000 1.0
C      1  0.5343450000000  0.2741320000000  0.5670010000000 1.0
C      1  0.2872170000000  0.5831860000000  0.5669970000000 1.0
C      1  0.6784310000000  0.6426800000000  0.5670110000000 1.0
C      1  0.5516910000000  0.4223980000000  0.2693480000000 1.0
C      1  0.4069580000000  0.4940460000000  0.2693440000000 1.0
C      1  0.5413730000000  0.5835640000000  0.2693490000000 1.0
C      1  0.5538550000000  0.5191120000000  0.7114800000000 1.0
C      1  0.4896160000000  0.4437970000000  0.7114770000000 1.0
C      1  0.4565100000000  0.5370860000000  0.7114770000000 1.0
C      1  0.4206380000000  0.3604300000000  0.3482240000000 1.0
C      1  0.4188160000000  0.6385210000000  0.3482280000000 1.0
C      1  0.6605610000000  0.5010530000000  0.3482340000000 1.0
C      1  0.5355620000000  0.7204240000000  0.5510100000000 1.0
C      1  0.6731080000000  0.3589870000000  0.5510100000000 1.0
C      1  0.2913230000000  0.4205870000000  0.5509990000000 1.0
END
