TITL C-2158988-7926-393 -0.00264281693251764 3375 -410.351698637339 0 0 60 (S4) n - 1
REM
REM in /scratch/bkarasulu/868
REM
REM
REM
REM
REM
REM ./C.cell (a2850807a9bf4ad07a5b6933b78d9264)
REM AIRSS Version 0.9.1 bugfix July 2018 build 013d7b7c2542+ Fri, 06 Jul 2018 19:26:36 +0100
REM compiler GCC version 9.2.1 20190827 (Red Hat 9.2.1-1)
REM options -cpp -mtune=generic -march=x86-64 -g -O0 -fpre-include=/usr/include/finclude/math-vector-fortran.h
REM seed -1601806966 1940624305 352148159 -410854094 -910899902 1811243694 1584914899 667797484 450198227 369464153 806529666 -542040346 253929496 -756762520 1309291131 1147644848 -1668071524 1773655659 -1679091450 -1489211019 -98187836 1005899552 -410492604 -1349902223 -1988620018 893921098 889818326 -1846345344 -1008691728 -599705124 1876216596 -1257919352 -426444887
REM
CELL 1.54180   15.00000   15.00000   15.00000   90.00000   90.00000   90.00000
LATT -1
SFAC C  
C      1  0.4537720000000  0.5076300000000  0.3696610000000 1.0
C      1  0.5462270000000  0.5076050000000  0.6303430000000 1.0
C      1  0.4459520000000  0.4903710000000  0.6276840000000 1.0
C      1  0.5540470000000  0.4903950000000  0.3723170000000 1.0
C      1  0.3723170000000  0.5155730000000  0.4459540000000 1.0
C      1  0.6276830000000  0.5155610000000  0.5540500000000 1.0
C      1  0.6303400000000  0.4983360000000  0.4537730000000 1.0
C      1  0.3696590000000  0.4983290000000  0.5462280000000 1.0
C      1  0.3752880000000  0.2645130000000  0.5734430000000 1.0
C      1  0.6247130000000  0.2645250000000  0.4265140000000 1.0
C      1  0.4285310000000  0.7662300000000  0.4637920000000 1.0
C      1  0.5714710000000  0.7662230000000  0.5362510000000 1.0
C      1  0.5362290000000  0.2397310000000  0.4285070000000 1.0
C      1  0.4637710000000  0.2397170000000  0.5714460000000 1.0
C      1  0.4265360000000  0.7414440000000  0.3753060000000 1.0
C      1  0.5734640000000  0.7414190000000  0.6247320000000 1.0
C      1  0.4447450000000  0.5964540000000  0.3254120000000 1.0
C      1  0.5552550000000  0.5964220000000  0.6746060000000 1.0
C      1  0.4361720000000  0.3950600000000  0.6611240000000 1.0
C      1  0.5638270000000  0.3950910000000  0.3388590000000 1.0
C      1  0.3388680000000  0.6108810000000  0.4361830000000 1.0
C      1  0.6611330000000  0.6108680000000  0.5638380000000 1.0
C      1  0.6745960000000  0.4095170000000  0.4447370000000 1.0
C      1  0.3254030000000  0.4095080000000  0.5552470000000 1.0
C      1  0.3407770000000  0.4266330000000  0.4043310000000 1.0
C      1  0.6592220000000  0.4266130000000  0.5956560000000 1.0
C      1  0.3457240000000  0.5882060000000  0.5870040000000 1.0
C      1  0.6542750000000  0.5882210000000  0.4130130000000 1.0
C      1  0.4130040000000  0.4177510000000  0.3457170000000 1.0
C      1  0.5869950000000  0.4177220000000  0.6542690000000 1.0
C      1  0.5956620000000  0.5793420000000  0.3407860000000 1.0
C      1  0.4043370000000  0.5793120000000  0.6592300000000 1.0
C      1  0.4783310000000  0.3510040000000  0.3301130000000 1.0
C      1  0.5216680000000  0.3509710000000  0.6698610000000 1.0
C      1  0.4708940000000  0.6396340000000  0.6881220000000 1.0
C      1  0.5291060000000  0.6396690000000  0.3119000000000 1.0
C      1  0.3118890000000  0.3663020000000  0.4708830000000 1.0
C      1  0.6881120000000  0.3662950000000  0.5290940000000 1.0
C      1  0.6698740000000  0.6549640000000  0.4783460000000 1.0
C      1  0.3301270000000  0.6549610000000  0.5216820000000 1.0
C      1  0.5355290000000  0.2635720000000  0.6297080000000 1.0
C      1  0.4644720000000  0.2635970000000  0.3702490000000 1.0
C      1  0.5222200000000  0.7309570000000  0.3395750000000 1.0
C      1  0.4777800000000  0.7309250000000  0.6604580000000 1.0
C      1  0.6604430000000  0.2750050000000  0.5221990000000 1.0
C      1  0.3395590000000  0.2750120000000  0.4777600000000 1.0
C      1  0.3702700000000  0.7423630000000  0.5355470000000 1.0
C      1  0.6297300000000  0.7423680000000  0.4644920000000 1.0
C      1  0.4058430000000  0.7643500000000  0.6185000000000 1.0
C      1  0.5941580000000  0.7643710000000  0.3815420000000 1.0
C      1  0.3815210000000  0.2415990000000  0.4058190000000 1.0
C      1  0.6184800000000  0.2415800000000  0.5941340000000 1.0
C      1  0.3636780000000  0.3481910000000  0.6174010000000 1.0
C      1  0.3825860000000  0.6577620000000  0.3636920000000 1.0
C      1  0.6174140000000  0.6577360000000  0.6363350000000 1.0
C      1  0.6363210000000  0.3482120000000  0.3825720000000 1.0
C      1  0.5000030000000  0.7039030000000  0.5000130000000 1.0
C      1  0.5000020000000  0.3020480000000  0.4999830000000 1.0
C      1  0.4999990000000  0.6157720000000  0.5000160000000 1.0
C      1  0.4999970000000  0.3901780000000  0.4999910000000 1.0
END
