TITL C-2158988-7926-845 -0.00531013243120854 3375 -387.64737687762 0 0 60 (C12) n - 1
REM
REM in /scratch/bkarasulu/868
REM
REM
REM
REM
REM
REM ./C.cell (a2850807a9bf4ad07a5b6933b78d9264)
REM AIRSS Version 0.9.1 bugfix July 2018 build 013d7b7c2542+ Fri, 06 Jul 2018 19:26:36 +0100
REM compiler GCC version 9.2.1 20190827 (Red Hat 9.2.1-1)
REM options -cpp -mtune=generic -march=x86-64 -g -O0 -fpre-include=/usr/include/finclude/math-vector-fortran.h
REM seed 109941531 -967123617 -666277308 748474518 1914065817 605138101 51057553 1084204928 -1148576035 1220782037 492482385 -525356667 -1613827119 631148652 320049614 -1936678818 121275126 -905074777 495945389 -38211993 -752774709 -1081494997 -1049848843 1169530658 1738243209 -1361795733 -1965741528 2078594745 747637297 -549666416 -881803069 -894190581 46662230
REM
CELL 1.54180   15.00000   15.00000   15.00000   90.00000   90.00000   90.00000
LATT -1
SFAC C  
C      1  0.3632470000000  0.5792600000000  0.3781870000000 1.0
C      1  0.4424700000000  0.5792520000000  0.3261000000000 1.0
C      1  0.5371220000000  0.5792500000000  0.3206220000000 1.0
C      1  0.6218130000000  0.5792600000000  0.3632470000000 1.0
C      1  0.6739000000000  0.5792520000000  0.4424700000000 1.0
C      1  0.6793780000000  0.5792500000000  0.5371220000000 1.0
C      1  0.6367530000000  0.5792600000000  0.6218130000000 1.0
C      1  0.5575300000000  0.5792520000000  0.6739000000000 1.0
C      1  0.4628780000000  0.5792500000000  0.6793780000000 1.0
C      1  0.3781870000000  0.5792600000000  0.6367530000000 1.0
C      1  0.3261000000000  0.5792520000000  0.5575300000000 1.0
C      1  0.3206220000000  0.5792500000000  0.4628780000000 1.0
C      1  0.1860710000000  0.4297540000000  0.4350320000000 1.0
C      1  0.2606370000000  0.4298190000000  0.2867890000000 1.0
C      1  0.3993080000000  0.4297660000000  0.1956500000000 1.0
C      1  0.5649680000000  0.4297540000000  0.1860710000000 1.0
C      1  0.7132110000000  0.4298190000000  0.2606370000000 1.0
C      1  0.8043500000000  0.4297660000000  0.3993080000000 1.0
C      1  0.8139290000000  0.4297540000000  0.5649680000000 1.0
C      1  0.7393630000000  0.4298190000000  0.7132110000000 1.0
C      1  0.6006920000000  0.4297660000000  0.8043500000000 1.0
C      1  0.4350320000000  0.4297540000000  0.8139290000000 1.0
C      1  0.2867890000000  0.4298190000000  0.7393630000000 1.0
C      1  0.1956500000000  0.4297660000000  0.6006920000000 1.0
C      1  0.2679580000000  0.4162090000000  0.6524600000000 1.0
C      1  0.2228010000000  0.4161700000000  0.5160160000000 1.0
C      1  0.2519390000000  0.4162020000000  0.3752810000000 1.0
C      1  0.3475400000000  0.4162090000000  0.2679580000000 1.0
C      1  0.4839840000000  0.4161700000000  0.2228010000000 1.0
C      1  0.6247190000000  0.4162020000000  0.2519390000000 1.0
C      1  0.7320420000000  0.4162090000000  0.3475400000000 1.0
C      1  0.7771990000000  0.4161700000000  0.4839840000000 1.0
C      1  0.7480610000000  0.4162020000000  0.6247190000000 1.0
C      1  0.6524600000000  0.4162090000000  0.7320420000000 1.0
C      1  0.5160170000000  0.4161700000000  0.7771990000000 1.0
C      1  0.3752810000000  0.4162020000000  0.7480610000000 1.0
C      1  0.6166070000000  0.6843740000000  0.3690910000000 1.0
C      1  0.6664660000000  0.6843840000000  0.4449270000000 1.0
C      1  0.6717100000000  0.6843850000000  0.5355360000000 1.0
C      1  0.6309090000000  0.6843740000000  0.6166070000000 1.0
C      1  0.5550730000000  0.6843840000000  0.6664660000000 1.0
C      1  0.4644640000000  0.6843850000000  0.6717100000000 1.0
C      1  0.3833930000000  0.6843740000000  0.6309090000000 1.0
C      1  0.3335340000000  0.6843840000000  0.5550730000000 1.0
C      1  0.3282900000000  0.6843850000000  0.4644640000000 1.0
C      1  0.3690910000000  0.6843740000000  0.3833930000000 1.0
C      1  0.4449270000000  0.6843840000000  0.3335340000000 1.0
C      1  0.5355360000000  0.6843850000000  0.3282900000000 1.0
C      1  0.5103750000000  0.3903810000000  0.6795510000000 1.0
C      1  0.4192110000000  0.3903960000000  0.6606810000000 1.0
C      1  0.3496950000000  0.3903990000000  0.5987590000000 1.0
C      1  0.3204490000000  0.3903810000000  0.5103750000000 1.0
C      1  0.3393190000000  0.3903960000000  0.4192110000000 1.0
C      1  0.4012410000000  0.3903990000000  0.3496950000000 1.0
C      1  0.4896250000000  0.3903810000000  0.3204490000000 1.0
C      1  0.5807890000000  0.3903960000000  0.3393190000000 1.0
C      1  0.6503050000000  0.3903990000000  0.4012410000000 1.0
C      1  0.6795510000000  0.3903810000000  0.4896250000000 1.0
C      1  0.6606810000000  0.3903960000000  0.5807890000000 1.0
C      1  0.5987590000000  0.3903990000000  0.6503050000000 1.0
END
