TITL C-2158984-8299-639 -0.00187274431567644 3375 -417.926853529285 0 0 60 (C1) n - 1
REM
REM in /scratch/bkarasulu/869
REM
REM
REM
REM
REM
REM ./C.cell (a2850807a9bf4ad07a5b6933b78d9264)
REM AIRSS Version 0.9.1 bugfix July 2018 build 013d7b7c2542+ Fri, 06 Jul 2018 19:26:36 +0100
REM compiler GCC version 9.2.1 20190827 (Red Hat 9.2.1-1)
REM options -cpp -mtune=generic -march=x86-64 -g -O0 -fpre-include=/usr/include/finclude/math-vector-fortran.h
REM seed 384989867 953829905 -1518704370 -327337909 -1364539175 1565709938 955831921 -1537154387 639295224 -507390307 838325151 -1306049463 802347767 -688193419 638502234 -1140566179 1475401694 -1563996624 1993283240 1093659421 1658978784 -1242256708 620519203 1646271963 1369472781 -1088223157 1675137978 -265540922 -627602368 -960071741 -2081378006 1728062616 641402511
REM
CELL 1.54180   15.00000   15.00000   15.00000   90.00000   90.00000   90.00000
LATT -1
SFAC C  
C      1  0.4939740000000  0.4527200000000  0.7164280000000 1.0
C      1  0.6672580000000  0.5996730000000  0.5069580000000 1.0
C      1  0.3596640000000  0.3369020000000  0.4706980000000 1.0
C      1  0.3054460000000  0.5453180000000  0.3727120000000 1.0
C      1  0.6603620000000  0.3948650000000  0.3394710000000 1.0
C      1  0.7046100000000  0.5493610000000  0.4332680000000 1.0
C      1  0.2973050000000  0.4999750000000  0.6074100000000 1.0
C      1  0.3637640000000  0.3179480000000  0.5594240000000 1.0
C      1  0.7291420000000  0.4745960000000  0.5658510000000 1.0
C      1  0.3567410000000  0.6904880000000  0.3230640000000 1.0
C      1  0.3218200000000  0.5712610000000  0.4699750000000 1.0
C      1  0.4251560000000  0.5630580000000  0.4551180000000 1.0
C      1  0.4288020000000  0.6950770000000  0.3786410000000 1.0
C      1  0.4102290000000  0.4983110000000  0.7129510000000 1.0
C      1  0.5703170000000  0.3547530000000  0.3259580000000 1.0
C      1  0.6180770000000  0.5678390000000  0.6620390000000 1.0
C      1  0.6302940000000  0.4767300000000  0.3009880000000 1.0
C      1  0.5769660000000  0.6280360000000  0.4812610000000 1.0
C      1  0.6840560000000  0.3207330000000  0.5585720000000 1.0
C      1  0.4790810000000  0.3648580000000  0.6773920000000 1.0
C      1  0.5928730000000  0.2877950000000  0.5667620000000 1.0
C      1  0.3903130000000  0.3598270000000  0.6356770000000 1.0
C      1  0.7095180000000  0.3903370000000  0.4184800000000 1.0
C      1  0.6844780000000  0.5572210000000  0.5903510000000 1.0
C      1  0.6280820000000  0.4029570000000  0.6694830000000 1.0
C      1  0.4301670000000  0.5568150000000  0.2920730000000 1.0
C      1  0.5499460000000  0.4736660000000  0.4279640000000 1.0
C      1  0.4745900000000  0.6038290000000  0.3638530000000 1.0
C      1  0.3929880000000  0.5908340000000  0.6926160000000 1.0
C      1  0.3422280000000  0.5974220000000  0.3043310000000 1.0
C      1  0.2873090000000  0.4890130000000  0.5147010000000 1.0
C      1  0.3227650000000  0.5915660000000  0.6250590000000 1.0
C      1  0.5407190000000  0.4371190000000  0.2826620000000 1.0
C      1  0.4531590000000  0.4648140000000  0.2859060000000 1.0
C      1  0.4256800000000  0.3358030000000  0.3956920000000 1.0
C      1  0.4635650000000  0.6525130000000  0.6861210000000 1.0
C      1  0.5001910000000  0.4849950000000  0.5477590000000 1.0
C      1  0.5384760000000  0.7160170000000  0.5023480000000 1.0
C      1  0.5631460000000  0.5808800000000  0.3959880000000 1.0
C      1  0.3491750000000  0.4433450000000  0.6634970000000 1.0
C      1  0.6467340000000  0.5520360000000  0.3558260000000 1.0
C      1  0.5823080000000  0.2857230000000  0.4667370000000 1.0
C      1  0.3196850000000  0.4512500000000  0.3727740000000 1.0
C      1  0.4494390000000  0.7266850000000  0.4668470000000 1.0
C      1  0.3917780000000  0.7114240000000  0.5436840000000 1.0
C      1  0.5609230000000  0.6441890000000  0.6622120000000 1.0
C      1  0.3026900000000  0.4147370000000  0.4573630000000 1.0
C      1  0.7374950000000  0.4689850000000  0.4679670000000 1.0
C      1  0.4563600000000  0.4718320000000  0.4613180000000 1.0
C      1  0.5628890000000  0.3331830000000  0.6461530000000 1.0
C      1  0.4480220000000  0.7189380000000  0.6198230000000 1.0
C      1  0.5208100000000  0.3107870000000  0.3953830000000 1.0
C      1  0.3941080000000  0.4050130000000  0.3337810000000 1.0
C      1  0.7031820000000  0.3961020000000  0.6110230000000 1.0
C      1  0.5848550000000  0.4524520000000  0.5141690000000 1.0
C      1  0.4850260000000  0.5810030000000  0.5366520000000 1.0
C      1  0.6767670000000  0.3175240000000  0.4658680000000 1.0
C      1  0.3262350000000  0.6403690000000  0.5440990000000 1.0
C      1  0.5412870000000  0.7163140000000  0.5980660000000 1.0
C      1  0.5869700000000  0.4821770000000  0.7007520000000 1.0
END
