TITL C-2159255-4746-1044 -0.00221135607653839 3375 -426.273358078872 0 0 60 (C1) n - 1
REM
REM in /scratch/bkarasulu/871
REM
REM
REM
REM
REM
REM ./C.cell (a2850807a9bf4ad07a5b6933b78d9264)
REM AIRSS Version 0.9.1 bugfix July 2018 build 013d7b7c2542+ Fri, 06 Jul 2018 19:26:36 +0100
REM compiler GCC version 9.2.1 20190827 (Red Hat 9.2.1-1)
REM options -cpp -mtune=generic -march=x86-64 -g -O0 -fpre-include=/usr/include/finclude/math-vector-fortran.h
REM seed -134455444 -89617678 595148692 -390407770 572602369 -1494593943 1657787126 177061053 1032759486 -1037268819 368815726 -632018700 -1954655355 348894652 1528555594 -1628005765 351393044 -543923007 -1241824087 830373640 1682766080 -1430913378 1637114474 -1315019115 -1285321521 584587023 1901837598 1725525892 -1615337674 1119376698 1737021251 144538976 1032438617
REM
CELL 1.54180   15.00000   15.00000   15.00000   90.00000   90.00000   90.00000
LATT -1
SFAC C  
C      1  0.5095840000000  0.3109310000000  0.6470450000000 1.0
C      1  0.3506110000000  0.3698490000000  0.6351100000000 1.0
C      1  0.2940650000000  0.5306220000000  0.6298620000000 1.0
C      1  0.3824840000000  0.6754870000000  0.6300670000000 1.0
C      1  0.5554340000000  0.6928770000000  0.6316060000000 1.0
C      1  0.6733460000000  0.5724920000000  0.6418590000000 1.0
C      1  0.6526580000000  0.4024040000000  0.6571780000000 1.0
C      1  0.5838400000000  0.5021940000000  0.4407600000000 1.0
C      1  0.6679720000000  0.4781150000000  0.5052780000000 1.0
C      1  0.6549400000000  0.3976870000000  0.5651210000000 1.0
C      1  0.6020610000000  0.3340370000000  0.5147170000000 1.0
C      1  0.4481230000000  0.4554160000000  0.3367110000000 1.0
C      1  0.4142500000000  0.4926200000000  0.4263500000000 1.0
C      1  0.4775470000000  0.6086230000000  0.3010180000000 1.0
C      1  0.4040210000000  0.6397620000000  0.3534480000000 1.0
C      1  0.5418050000000  0.6559000000000  0.3556830000000 1.0
C      1  0.6567710000000  0.5555980000000  0.3226900000000 1.0
C      1  0.6279090000000  0.4233840000000  0.2888170000000 1.0
C      1  0.4868610000000  0.3696700000000  0.3517310000000 1.0
C      1  0.3333940000000  0.3462660000000  0.3760780000000 1.0
C      1  0.2836350000000  0.5096070000000  0.3583190000000 1.0
C      1  0.3905170000000  0.5715240000000  0.7469610000000 1.0
C      1  0.4717030000000  0.6241130000000  0.7473130000000 1.0
C      1  0.5619720000000  0.5925250000000  0.7524050000000 1.0
C      1  0.5914440000000  0.5013720000000  0.7586080000000 1.0
C      1  0.5396230000000  0.4185100000000  0.7611450000000 1.0
C      1  0.4447880000000  0.4064360000000  0.7552760000000 1.0
C      1  0.3786050000000  0.4755400000000  0.7489240000000 1.0
C      1  0.5785940000000  0.3561420000000  0.6985860000000 1.0
C      1  0.4264480000000  0.3394260000000  0.6866870000000 1.0
C      1  0.3183890000000  0.4506760000000  0.6766640000000 1.0
C      1  0.3346810000000  0.6057670000000  0.6758730000000 1.0
C      1  0.4675350000000  0.6885730000000  0.6750140000000 1.0
C      1  0.6138440000000  0.6366280000000  0.6824560000000 1.0
C      1  0.6623880000000  0.4910380000000  0.6937290000000 1.0
C      1  0.2873650000000  0.4239250000000  0.3958760000000 1.0
C      1  0.3492260000000  0.5754340000000  0.3996280000000 1.0
C      1  0.4673040000000  0.6923810000000  0.4045130000000 1.0
C      1  0.6115960000000  0.6036050000000  0.4004940000000 1.0
C      1  0.7044310000000  0.4705490000000  0.3306760000000 1.0
C      1  0.5817340000000  0.3612580000000  0.3465160000000 1.0
C      1  0.4216660000000  0.3271870000000  0.4065800000000 1.0
C      1  0.3591620000000  0.3669070000000  0.5412190000000 1.0
C      1  0.3003050000000  0.5296780000000  0.5364670000000 1.0
C      1  0.3833800000000  0.6753460000000  0.5352860000000 1.0
C      1  0.5612190000000  0.6926420000000  0.5360000000000 1.0
C      1  0.6781570000000  0.5697100000000  0.5463670000000 1.0
C      1  0.7092530000000  0.4167030000000  0.4352690000000 1.0
C      1  0.5164510000000  0.3031240000000  0.5505530000000 1.0
C      1  0.3280460000000  0.6086980000000  0.4916760000000 1.0
C      1  0.4701760000000  0.7011270000000  0.4951760000000 1.0
C      1  0.6313090000000  0.6371390000000  0.4935400000000 1.0
C      1  0.7749170000000  0.4330330000000  0.3719520000000 1.0
C      1  0.6327690000000  0.3509340000000  0.4267640000000 1.0
C      1  0.4316260000000  0.3162450000000  0.5019900000000 1.0
C      1  0.3348220000000  0.4482290000000  0.4866350000000 1.0
C      1  0.4927820000000  0.5036120000000  0.5639700000000 1.0
C      1  0.4966970000000  0.5034240000000  0.4785910000000 1.0
C      1  0.4949640000000  0.5190550000000  0.2862320000000 1.0
C      1  0.5854300000000  0.5065070000000  0.2708240000000 1.0
END
