TITL C-2159255-4746-924 -0.00194860080427618 3375 -379.718819244365 0 0 60 (Ih) n - 1
REM
REM in /scratch/bkarasulu/871
REM
REM
REM
REM
REM
REM ./C.cell (a2850807a9bf4ad07a5b6933b78d9264)
REM AIRSS Version 0.9.1 bugfix July 2018 build 013d7b7c2542+ Fri, 06 Jul 2018 19:26:36 +0100
REM compiler GCC version 9.2.1 20190827 (Red Hat 9.2.1-1)
REM options -cpp -mtune=generic -march=x86-64 -g -O0 -fpre-include=/usr/include/finclude/math-vector-fortran.h
REM seed -949426400 1751704685 -494912580 752310969 -668464920 2080493468 1702632898 -667127702 -167378890 -1699553368 575807556 -2037485 -715609566 559017443 1264661251 787693171 47549467 1654989823 -756296165 706308125 1130394612 -1768921270 137463592 1013148314 -1392238598 394899630 -1779705919 348528507 1670847820 1910696629 1167684259 -539814646 470631433
REM
CELL 1.54180   15.00000   15.00000   15.00000   90.00000   90.00000   90.00000
LATT -1
SFAC C  
C      1  0.4506630000000  0.2901390000000  0.4501280000000 1.0
C      1  0.4501280000000  0.4506630000000  0.2901390000000 1.0
C      1  0.2901390000000  0.4501280000000  0.4506630000000 1.0
C      1  0.5493370000000  0.2901390000000  0.5498720000000 1.0
C      1  0.4506630000000  0.7098610000000  0.5498720000000 1.0
C      1  0.5493370000000  0.7098610000000  0.4501280000000 1.0
C      1  0.5498720000000  0.4506630000000  0.7098610000000 1.0
C      1  0.4501280000000  0.5493370000000  0.7098610000000 1.0
C      1  0.5498720000000  0.5493370000000  0.2901390000000 1.0
C      1  0.7098610000000  0.4501280000000  0.5493370000000 1.0
C      1  0.2901390000000  0.5498720000000  0.5493370000000 1.0
C      1  0.7098610000000  0.5498720000000  0.4506630000000 1.0
C      1  0.4506630000000  0.7098610000000  0.4501280000000 1.0
C      1  0.4501280000000  0.5493370000000  0.2901390000000 1.0
C      1  0.2901390000000  0.5498720000000  0.4506630000000 1.0
C      1  0.5493370000000  0.7098610000000  0.5498720000000 1.0
C      1  0.4506630000000  0.2901390000000  0.5498720000000 1.0
C      1  0.5493370000000  0.2901390000000  0.4501280000000 1.0
C      1  0.5498720000000  0.5493370000000  0.7098610000000 1.0
C      1  0.4501280000000  0.4506630000000  0.7098610000000 1.0
C      1  0.5498720000000  0.4506630000000  0.2901390000000 1.0
C      1  0.7098610000000  0.5498720000000  0.5493370000000 1.0
C      1  0.2901390000000  0.4501280000000  0.5493370000000 1.0
C      1  0.7098610000000  0.4501280000000  0.4506630000000 1.0
C      1  0.6297000000000  0.5798280000000  0.3394770000000 1.0
C      1  0.3394770000000  0.6297000000000  0.5798280000000 1.0
C      1  0.5798280000000  0.3394770000000  0.6297000000000 1.0
C      1  0.3703000000000  0.5798280000000  0.6605230000000 1.0
C      1  0.6297000000000  0.4201720000000  0.6605230000000 1.0
C      1  0.3703000000000  0.4201720000000  0.3394770000000 1.0
C      1  0.6605230000000  0.6297000000000  0.4201720000000 1.0
C      1  0.3394770000000  0.3703000000000  0.4201720000000 1.0
C      1  0.6605230000000  0.3703000000000  0.5798280000000 1.0
C      1  0.4201720000000  0.3394770000000  0.3703000000000 1.0
C      1  0.5798280000000  0.6605230000000  0.3703000000000 1.0
C      1  0.4201720000000  0.6605230000000  0.6297000000000 1.0
C      1  0.6297000000000  0.4201720000000  0.3394770000000 1.0
C      1  0.3394770000000  0.3703000000000  0.5798280000000 1.0
C      1  0.5798280000000  0.6605230000000  0.6297000000000 1.0
C      1  0.3703000000000  0.4201720000000  0.6605230000000 1.0
C      1  0.6297000000000  0.5798280000000  0.6605230000000 1.0
C      1  0.3703000000000  0.5798280000000  0.3394770000000 1.0
C      1  0.6605230000000  0.3703000000000  0.4201720000000 1.0
C      1  0.3394770000000  0.6297000000000  0.4201720000000 1.0
C      1  0.6605230000000  0.6297000000000  0.5798280000000 1.0
C      1  0.4201720000000  0.6605230000000  0.3703000000000 1.0
C      1  0.5798280000000  0.3394770000000  0.3703000000000 1.0
C      1  0.4201720000000  0.3394770000000  0.6297000000000 1.0
C      1  0.3699680000000  0.6790370000000  0.5000000000000 1.0
C      1  0.6300320000000  0.3209630000000  0.5000000000000 1.0
C      1  0.5000000000000  0.6300320000000  0.6790370000000 1.0
C      1  0.6790370000000  0.5000000000000  0.6300320000000 1.0
C      1  0.6300320000000  0.6790370000000  0.5000000000000 1.0
C      1  0.5000000000000  0.6300320000000  0.3209630000000 1.0
C      1  0.5000000000000  0.3699680000000  0.3209630000000 1.0
C      1  0.5000000000000  0.3699680000000  0.6790370000000 1.0
C      1  0.3209630000000  0.5000000000000  0.3699680000000 1.0
C      1  0.6790370000000  0.5000000000000  0.3699680000000 1.0
C      1  0.3209630000000  0.5000000000000  0.6300320000000 1.0
C      1  0.3699680000000  0.3209630000000  0.5000000000000 1.0
END
