TITL C-2158984-8299-708 -0.00281589985648212 3375 -430.700963857182 0 0 60 (C1) n - 1
REM
REM in /scratch/bkarasulu/869
REM
REM
REM
REM
REM
REM ./C.cell (a2850807a9bf4ad07a5b6933b78d9264)
REM AIRSS Version 0.9.1 bugfix July 2018 build 013d7b7c2542+ Fri, 06 Jul 2018 19:26:36 +0100
REM compiler GCC version 9.2.1 20190827 (Red Hat 9.2.1-1)
REM options -cpp -mtune=generic -march=x86-64 -g -O0 -fpre-include=/usr/include/finclude/math-vector-fortran.h
REM seed -526032974 913756777 826080593 1994146354 -431246272 1423003424 -10598550 -438100706 -279632451 780681085 -1659516051 223988657 954035369 -670494726 1765318921 1908568586 -1955903106 2103057212 -936473254 53651185 1691871273 1970843888 -1202865766 -1719520775 1796122054 -1238104048 869680859 1577023178 -802408199 -256064067 1579632862 1592625021 -2091794774
REM
CELL 1.54180   15.00000   15.00000   15.00000   90.00000   90.00000   90.00000
LATT -1
SFAC C  
C      1  0.3481960000000  0.6833200000000  0.5833140000000 1.0
C      1  0.4261410000000  0.6914560000000  0.6432020000000 1.0
C      1  0.5167370000000  0.7000470000000  0.6502990000000 1.0
C      1  0.6074470000000  0.7036740000000  0.6117880000000 1.0
C      1  0.6651830000000  0.6744480000000  0.5405850000000 1.0
C      1  0.6668080000000  0.6763140000000  0.4454150000000 1.0
C      1  0.6127280000000  0.7105150000000  0.3733390000000 1.0
C      1  0.5205350000000  0.7110890000000  0.3403270000000 1.0
C      1  0.4315350000000  0.7110230000000  0.3528500000000 1.0
C      1  0.3529650000000  0.7125170000000  0.4095280000000 1.0
C      1  0.3190790000000  0.6843050000000  0.4946290000000 1.0
C      1  0.3912950000000  0.4599070000000  0.7068740000000 1.0
C      1  0.5747210000000  0.4714880000000  0.6961160000000 1.0
C      1  0.6616230000000  0.4915800000000  0.6670040000000 1.0
C      1  0.6913850000000  0.4518710000000  0.5856790000000 1.0
C      1  0.6872030000000  0.4537810000000  0.3988780000000 1.0
C      1  0.6532770000000  0.4942800000000  0.3203260000000 1.0
C      1  0.5635580000000  0.4790190000000  0.2939820000000 1.0
C      1  0.3752460000000  0.4788890000000  0.3254640000000 1.0
C      1  0.2991490000000  0.4949680000000  0.3793110000000 1.0
C      1  0.2907140000000  0.4568380000000  0.4658860000000 1.0
C      1  0.3188030000000  0.4534900000000  0.6455310000000 1.0
C      1  0.4273010000000  0.4055090000000  0.3510470000000 1.0
C      1  0.4111900000000  0.3570530000000  0.4323670000000 1.0
C      1  0.3479530000000  0.3863520000000  0.4971270000000 1.0
C      1  0.3661520000000  0.3886960000000  0.5904190000000 1.0
C      1  0.4390980000000  0.3927190000000  0.6577710000000 1.0
C      1  0.5327600000000  0.3947120000000  0.6576150000000 1.0
C      1  0.5727670000000  0.3454930000000  0.5878140000000 1.0
C      1  0.6448030000000  0.3833660000000  0.5416520000000 1.0
C      1  0.6423670000000  0.3856520000000  0.4449570000000 1.0
C      1  0.5619520000000  0.3578830000000  0.4052250000000 1.0
C      1  0.5209280000000  0.4062190000000  0.3345370000000 1.0
C      1  0.2605200000000  0.5276980000000  0.5226120000000 1.0
C      1  0.2759640000000  0.5301650000000  0.6143240000000 1.0
C      1  0.4300570000000  0.5417920000000  0.7294940000000 1.0
C      1  0.5230620000000  0.5463680000000  0.7269640000000 1.0
C      1  0.6930160000000  0.5824550000000  0.6675820000000 1.0
C      1  0.7353630000000  0.5203150000000  0.5371710000000 1.0
C      1  0.7338900000000  0.5210850000000  0.4463270000000 1.0
C      1  0.6877280000000  0.5835760000000  0.3181490000000 1.0
C      1  0.5104930000000  0.5553630000000  0.2707680000000 1.0
C      1  0.4191960000000  0.5546170000000  0.2855220000000 1.0
C      1  0.2663130000000  0.5837770000000  0.3844980000000 1.0
C      1  0.3833150000000  0.6415500000000  0.2943780000000 1.0
C      1  0.3049040000000  0.6545960000000  0.3422110000000 1.0
C      1  0.2602340000000  0.6076620000000  0.4751330000000 1.0
C      1  0.3107800000000  0.6138450000000  0.6419570000000 1.0
C      1  0.3855040000000  0.6196670000000  0.7002620000000 1.0
C      1  0.5543940000000  0.6345630000000  0.7194120000000 1.0
C      1  0.6415250000000  0.6528920000000  0.6932530000000 1.0
C      1  0.7197290000000  0.6029320000000  0.5791580000000 1.0
C      1  0.7190410000000  0.6042400000000  0.4052180000000 1.0
C      1  0.6384610000000  0.6553790000000  0.2922520000000 1.0
C      1  0.5489010000000  0.6423790000000  0.2702390000000 1.0
C      1  0.5001650000000  0.5530210000000  0.4903270000000 1.0
C      1  0.4945220000000  0.3195970000000  0.4572410000000 1.0
C      1  0.4792210000000  0.5009040000000  0.5487180000000 1.0
C      1  0.5006400000000  0.1899880000000  0.5635720000000 1.0
C      1  0.5189810000000  0.2735090000000  0.5412330000000 1.0
END
