TITL C-2158988-7926-664 -0.0041718666710639 3375 -382.206722543657 0 0 60 (Td) n - 1
REM
REM in /scratch/bkarasulu/868
REM
REM
REM
REM
REM
REM ./C.cell (a2850807a9bf4ad07a5b6933b78d9264)
REM AIRSS Version 0.9.1 bugfix July 2018 build 013d7b7c2542+ Fri, 06 Jul 2018 19:26:36 +0100
REM compiler GCC version 9.2.1 20190827 (Red Hat 9.2.1-1)
REM options -cpp -mtune=generic -march=x86-64 -g -O0 -fpre-include=/usr/include/finclude/math-vector-fortran.h
REM seed -1286317692 -439205198 1458951559 -1812803385 515952242 10495995 -190974331 55570291 -1859566462 -1396642615 -1680268885 1115043553 -666082199 -2067689798 -154403060 -1697049391 988503506 -1575603052 1847310998 -643335656 431615358 -1421770751 -1546378555 -411202533 -1596844739 936118353 117854399 2135040661 -1289230085 -730074730 973548152 451883687 1544901824
REM
CELL 1.54180   15.00000   15.00000   15.00000   90.00000   90.00000   90.00000
LATT -1
SFAC C  
C      1  0.6748330000000  0.5309130000000  0.3964600000000 1.0
C      1  0.3964600000000  0.6748330000000  0.5309130000000 1.0
C      1  0.5309130000000  0.3964600000000  0.6748330000000 1.0
C      1  0.3251670000000  0.4690870000000  0.3964600000000 1.0
C      1  0.3251670000000  0.5309130000000  0.6035400000000 1.0
C      1  0.6748330000000  0.4690870000000  0.6035400000000 1.0
C      1  0.6035400000000  0.3251670000000  0.5309130000000 1.0
C      1  0.6035400000000  0.6748330000000  0.4690870000000 1.0
C      1  0.3964600000000  0.3251670000000  0.4690870000000 1.0
C      1  0.4690870000000  0.6035400000000  0.6748330000000 1.0
C      1  0.4690870000000  0.3964600000000  0.3251670000000 1.0
C      1  0.5309130000000  0.6035400000000  0.3251670000000 1.0
C      1  0.5309130000000  0.6748330000000  0.3964600000000 1.0
C      1  0.6748330000000  0.3964600000000  0.5309130000000 1.0
C      1  0.3964600000000  0.5309130000000  0.6748330000000 1.0
C      1  0.4690870000000  0.3251670000000  0.3964600000000 1.0
C      1  0.5309130000000  0.3251670000000  0.6035400000000 1.0
C      1  0.4690870000000  0.6748330000000  0.6035400000000 1.0
C      1  0.3251670000000  0.6035400000000  0.5309130000000 1.0
C      1  0.6748330000000  0.6035400000000  0.4690870000000 1.0
C      1  0.3251670000000  0.3964600000000  0.4690870000000 1.0
C      1  0.6035400000000  0.4690870000000  0.6748330000000 1.0
C      1  0.3964600000000  0.4690870000000  0.3251670000000 1.0
C      1  0.6035400000000  0.5309130000000  0.3251670000000 1.0
C      1  0.5000710000000  0.5693240000000  0.7637640000000 1.0
C      1  0.7637640000000  0.5000710000000  0.5693240000000 1.0
C      1  0.5693240000000  0.7637640000000  0.5000710000000 1.0
C      1  0.4999290000000  0.4306760000000  0.7637640000000 1.0
C      1  0.4999290000000  0.5693240000000  0.2362360000000 1.0
C      1  0.5000710000000  0.4306760000000  0.2362360000000 1.0
C      1  0.2362360000000  0.4999290000000  0.5693240000000 1.0
C      1  0.2362360000000  0.5000710000000  0.4306760000000 1.0
C      1  0.7637640000000  0.4999290000000  0.4306760000000 1.0
C      1  0.4306760000000  0.2362360000000  0.5000710000000 1.0
C      1  0.4306760000000  0.7637640000000  0.4999290000000 1.0
C      1  0.5693240000000  0.2362360000000  0.4999290000000 1.0
C      1  0.5693240000000  0.5000710000000  0.7637640000000 1.0
C      1  0.5000710000000  0.7637640000000  0.5693240000000 1.0
C      1  0.7637640000000  0.5693240000000  0.5000710000000 1.0
C      1  0.4306760000000  0.4999290000000  0.7637640000000 1.0
C      1  0.5693240000000  0.4999290000000  0.2362360000000 1.0
C      1  0.4306760000000  0.5000710000000  0.2362360000000 1.0
C      1  0.4999290000000  0.2362360000000  0.5693240000000 1.0
C      1  0.5000710000000  0.2362360000000  0.4306760000000 1.0
C      1  0.4999290000000  0.7637640000000  0.4306760000000 1.0
C      1  0.2362360000000  0.4306760000000  0.5000710000000 1.0
C      1  0.7637640000000  0.4306760000000  0.4999290000000 1.0
C      1  0.2362360000000  0.5693240000000  0.4999290000000 1.0
C      1  0.6170550000000  0.4521970000000  0.3829450000000 1.0
C      1  0.3829450000000  0.6170550000000  0.4521970000000 1.0
C      1  0.4521970000000  0.3829450000000  0.6170550000000 1.0
C      1  0.3829450000000  0.4521970000000  0.6170550000000 1.0
C      1  0.6170550000000  0.3829450000000  0.4521970000000 1.0
C      1  0.6170550000000  0.6170550000000  0.5478030000000 1.0
C      1  0.3829450000000  0.3829450000000  0.5478030000000 1.0
C      1  0.5478030000000  0.6170550000000  0.6170550000000 1.0
C      1  0.5478030000000  0.3829450000000  0.3829450000000 1.0
C      1  0.4521970000000  0.6170550000000  0.3829450000000 1.0
C      1  0.6170550000000  0.5478030000000  0.6170550000000 1.0
C      1  0.3829450000000  0.5478030000000  0.3829450000000 1.0
END
