TITL C-2159255-4746-369 -0.00285344171195014 3375 -396.33722633136 0 0 60 (C3i) n - 1
REM
REM in /scratch/bkarasulu/871
REM
REM
REM
REM
REM
REM ./C.cell (a2850807a9bf4ad07a5b6933b78d9264)
REM AIRSS Version 0.9.1 bugfix July 2018 build 013d7b7c2542+ Fri, 06 Jul 2018 19:26:36 +0100
REM compiler GCC version 9.2.1 20190827 (Red Hat 9.2.1-1)
REM options -cpp -mtune=generic -march=x86-64 -g -O0 -fpre-include=/usr/include/finclude/math-vector-fortran.h
REM seed -181573488 -806927445 -40839403 1856095774 -852687035 -1611285596 969750289 -1687069829 -1757110849 -791068067 1441634281 1618666666 -1431755027 -93453336 744804990 -1736144738 -2010836648 -219903121 -1489428910 1777534972 -1522890377 1461089372 -2115637690 -1138468524 -1099058006 579036054 1419149237 1263936052 1040536980 -2048332834 948545429 -1288521901 -1683496239
REM
CELL 1.54180   15.00000   15.00000   15.00000   90.00000   90.00000   90.00000
LATT -1
SFAC C  
C      1  0.5699560000000  0.3628550000000  0.4024500000000 1.0
C      1  0.6194820000000  0.6371190000000  0.5118300000000 1.0
C      1  0.5494680000000  0.3628530000000  0.6093640000000 1.0
C      1  0.4300440000000  0.6371450000000  0.5975500000000 1.0
C      1  0.3805180000000  0.3628810000000  0.4881700000000 1.0
C      1  0.4505320000000  0.6371470000000  0.3906360000000 1.0
C      1  0.4661390000000  0.4852740000000  0.6763360000000 1.0
C      1  0.3303580000000  0.5147490000000  0.5588480000000 1.0
C      1  0.3642160000000  0.4852970000000  0.3825100000000 1.0
C      1  0.5338610000000  0.5147260000000  0.3236640000000 1.0
C      1  0.6696420000000  0.4852510000000  0.4411520000000 1.0
C      1  0.6357840000000  0.5147030000000  0.6174900000000 1.0
C      1  0.4600270000000  0.3828890000000  0.2863940000000 1.0
C      1  0.6650260000000  0.6171020000000  0.3586010000000 1.0
C      1  0.7049460000000  0.3828460000000  0.5721950000000 1.0
C      1  0.5399730000000  0.6171110000000  0.7136060000000 1.0
C      1  0.3349740000000  0.3828980000000  0.6413990000000 1.0
C      1  0.2950540000000  0.6171540000000  0.4278050000000 1.0
C      1  0.6007280000000  0.4530960000000  0.3757080000000 1.0
C      1  0.6580100000000  0.5468680000000  0.5250940000000 1.0
C      1  0.5572610000000  0.4530960000000  0.6493770000000 1.0
C      1  0.3992720000000  0.5469040000000  0.6242920000000 1.0
C      1  0.3419900000000  0.4531320000000  0.4749060000000 1.0
C      1  0.4427390000000  0.5469040000000  0.3506230000000 1.0
C      1  0.2076830000000  0.4218860000000  0.5491840000000 1.0
C      1  0.3112700000000  0.5781920000000  0.2714580000000 1.0
C      1  0.6035340000000  0.4218380000000  0.2222590000000 1.0
C      1  0.7923170000000  0.5781140000000  0.4508160000000 1.0
C      1  0.6887300000000  0.4218080000000  0.7285420000000 1.0
C      1  0.3964660000000  0.5781620000000  0.7777410000000 1.0
C      1  0.5946000000000  0.6665020000000  0.5957170000000 1.0
C      1  0.4643740000000  0.3334810000000  0.6297580000000 1.0
C      1  0.3698440000000  0.6665380000000  0.5340560000000 1.0
C      1  0.4054000000000  0.3334980000000  0.4042830000000 1.0
C      1  0.5356260000000  0.6665190000000  0.3702420000000 1.0
C      1  0.6301560000000  0.3334620000000  0.4659440000000 1.0
C      1  0.2981580000000  0.6008180000000  0.5214390000000 1.0
C      1  0.3804940000000  0.3992330000000  0.3359050000000 1.0
C      1  0.5823790000000  0.6007820000000  0.3144740000000 1.0
C      1  0.7018420000000  0.3991820000000  0.4785610000000 1.0
C      1  0.6195060000000  0.6007670000000  0.6640950000000 1.0
C      1  0.4176210000000  0.3992180000000  0.6855260000000 1.0
C      1  0.5181710000000  0.4453720000000  0.2505590000000 1.0
C      1  0.7251210000000  0.5546050000000  0.3910330000000 1.0
C      1  0.7069180000000  0.4453310000000  0.6404640000000 1.0
C      1  0.4818290000000  0.5546280000000  0.7494410000000 1.0
C      1  0.2748790000000  0.4453950000000  0.6089670000000 1.0
C      1  0.2930820000000  0.5546690000000  0.3595360000000 1.0
C      1  0.6638600000000  0.4274320000000  0.2829330000000 1.0
C      1  0.7699290000000  0.5725090000000  0.5333940000000 1.0
C      1  0.6060240000000  0.4274250000000  0.7504500000000 1.0
C      1  0.3361400000000  0.5725680000000  0.7170670000000 1.0
C      1  0.2300710000000  0.4274910000000  0.4666060000000 1.0
C      1  0.3939760000000  0.5725750000000  0.2495500000000 1.0
C      1  0.6234590000000  0.3265920000000  0.5623800000000 1.0
C      1  0.5077380000000  0.6733840000000  0.6381400000000 1.0
C      1  0.3842030000000  0.3266250000000  0.5757430000000 1.0
C      1  0.3765410000000  0.6734080000000  0.4376200000000 1.0
C      1  0.4922620000000  0.3266160000000  0.3618600000000 1.0
C      1  0.6157970000000  0.6733750000000  0.4242570000000 1.0
END
