TITL C-2158984-8299-1194 -0.00406527508821644 3375 -434.300410433077 0 0 60 (D10) n - 1
REM
REM in /scratch/bkarasulu/869
REM
REM
REM
REM
REM
REM ./C.cell (a2850807a9bf4ad07a5b6933b78d9264)
REM AIRSS Version 0.9.1 bugfix July 2018 build 013d7b7c2542+ Fri, 06 Jul 2018 19:26:36 +0100
REM compiler GCC version 9.2.1 20190827 (Red Hat 9.2.1-1)
REM options -cpp -mtune=generic -march=x86-64 -g -O0 -fpre-include=/usr/include/finclude/math-vector-fortran.h
REM seed 123581682 -1137319951 -1822704872 -1417995031 -1621187284 1273347534 770010119 -2138575663 -1741367114 1315417544 352117065 1187185554 -1142269246 1605062321 -5576398 -1579970948 -2025818442 -1632503838 143860512 -836930682 1458073338 -1900587572 660157735 -317300187 1676092427 1856601646 -1569982761 1320528963 -1185355600 -494943895 831330819 211532636 1105092229
REM
CELL 1.54180   15.00000   15.00000   15.00000   90.00000   90.00000   90.00000
LATT -1
SFAC C  
C      1  0.6500000000000  0.4557380000000  0.3570540000000 1.0
C      1  0.5953360000000  0.3760230000000  0.3570550000000 1.0
C      1  0.5042570000000  0.3436630000000  0.3570540000000 1.0
C      1  0.4115520000000  0.3710180000000  0.3570550000000 1.0
C      1  0.3526310000000  0.4476410000000  0.3570540000000 1.0
C      1  0.3500000000000  0.5442620000000  0.3570540000000 1.0
C      1  0.4046640000000  0.6239770000000  0.3570550000000 1.0
C      1  0.4957430000000  0.6563370000000  0.3570540000000 1.0
C      1  0.5884480000000  0.6289820000000  0.3570550000000 1.0
C      1  0.6473690000000  0.5523590000000  0.3570540000000 1.0
C      1  0.4046640000000  0.6239760000000  0.6429450000000 1.0
C      1  0.4957430000000  0.6563370000000  0.6429460000000 1.0
C      1  0.5884470000000  0.6289810000000  0.6429450000000 1.0
C      1  0.6473690000000  0.5523590000000  0.6429450000000 1.0
C      1  0.6500000000000  0.4557390000000  0.6429460000000 1.0
C      1  0.5953360000000  0.3760240000000  0.6429450000000 1.0
C      1  0.5042570000000  0.3436630000000  0.6429460000000 1.0
C      1  0.4115530000000  0.3710190000000  0.6429450000000 1.0
C      1  0.3526310000000  0.4476410000000  0.6429450000000 1.0
C      1  0.3500000000000  0.5442610000000  0.6429460000000 1.0
C      1  0.2685350000000  0.5682990000000  0.5916790000000 1.0
C      1  0.3528880000000  0.6913060000000  0.5916770000000 1.0
C      1  0.4934310000000  0.7412450000000  0.5916790000000 1.0
C      1  0.6364830000000  0.6990300000000  0.5916770000000 1.0
C      1  0.7274050000000  0.5807950000000  0.5916780000000 1.0
C      1  0.7314650000000  0.4317010000000  0.5916790000000 1.0
C      1  0.6471120000000  0.3086940000000  0.5916770000000 1.0
C      1  0.5065690000000  0.2587550000000  0.5916790000000 1.0
C      1  0.3635170000000  0.3009700000000  0.5916770000000 1.0
C      1  0.2725950000000  0.4192050000000  0.5916780000000 1.0
C      1  0.7114130000000  0.6625740000000  0.5480250000000 1.0
C      1  0.7665990000000  0.5072600000000  0.5480260000000 1.0
C      1  0.7199470000000  0.3491730000000  0.5480250000000 1.0
C      1  0.5892870000000  0.2486940000000  0.5480250000000 1.0
C      1  0.4245220000000  0.2442060000000  0.5480250000000 1.0
C      1  0.2885870000000  0.3374260000000  0.5480250000000 1.0
C      1  0.2334010000000  0.4927400000000  0.5480260000000 1.0
C      1  0.2800530000000  0.6508270000000  0.5480250000000 1.0
C      1  0.4107130000000  0.7513060000000  0.5480250000000 1.0
C      1  0.5754780000000  0.7557940000000  0.5480250000000 1.0
C      1  0.2725960000000  0.4192050000000  0.4083220000000 1.0
C      1  0.2685360000000  0.5682990000000  0.4083220000000 1.0
C      1  0.3528890000000  0.6913060000000  0.4083230000000 1.0
C      1  0.4934310000000  0.7412440000000  0.4083210000000 1.0
C      1  0.6364820000000  0.6990290000000  0.4083230000000 1.0
C      1  0.7274040000000  0.5807950000000  0.4083220000000 1.0
C      1  0.7314640000000  0.4317010000000  0.4083220000000 1.0
C      1  0.6471110000000  0.3086940000000  0.4083230000000 1.0
C      1  0.5065690000000  0.2587560000000  0.4083210000000 1.0
C      1  0.3635180000000  0.3009710000000  0.4083230000000 1.0
C      1  0.2800530000000  0.6508270000000  0.4519750000000 1.0
C      1  0.4107140000000  0.7513060000000  0.4519750000000 1.0
C      1  0.5754780000000  0.7557940000000  0.4519750000000 1.0
C      1  0.7114130000000  0.6625730000000  0.4519750000000 1.0
C      1  0.7665990000000  0.5072600000000  0.4519750000000 1.0
C      1  0.7199470000000  0.3491730000000  0.4519750000000 1.0
C      1  0.5892860000000  0.2486940000000  0.4519750000000 1.0
C      1  0.4245220000000  0.2442060000000  0.4519750000000 1.0
C      1  0.2885870000000  0.3374270000000  0.4519750000000 1.0
C      1  0.2334010000000  0.4927400000000  0.4519750000000 1.0
END
