TITL C-2158984-8299-337 -0.00184128932279708 3375 -402.748986169576 0 0 60 (C3) n - 1
REM
REM in /scratch/bkarasulu/869
REM
REM
REM
REM
REM
REM ./C.cell (a2850807a9bf4ad07a5b6933b78d9264)
REM AIRSS Version 0.9.1 bugfix July 2018 build 013d7b7c2542+ Fri, 06 Jul 2018 19:26:36 +0100
REM compiler GCC version 9.2.1 20190827 (Red Hat 9.2.1-1)
REM options -cpp -mtune=generic -march=x86-64 -g -O0 -fpre-include=/usr/include/finclude/math-vector-fortran.h
REM seed -108833 -615969604 -2096753309 -1593079669 828391788 -1099481055 483068705 1189342693 759277137 -1966618468 806778310 372555683 -291312546 -818472893 -694275182 -462503581 -2076028436 487182544 945862363 446672293 1728200214 284898906 -1554028949 -923991490 1431272930 -1692023806 1744248030 260243717 1801601740 519603668 -893169277 1643337887 287368907
REM
CELL 1.54180   15.00000   15.00000   15.00000   90.00000   90.00000   90.00000
LATT -1
SFAC C  
C      1  0.6427310000000  0.3881300000000  0.3692390000000 1.0
C      1  0.6427250000000  0.4426940000000  0.6622680000000 1.0
C      1  0.6427260000000  0.6691830000000  0.4684990000000 1.0
C      1  0.5580120000000  0.7019570000000  0.6118700000000 1.0
C      1  0.5580190000000  0.4959040000000  0.2691650000000 1.0
C      1  0.5580150000000  0.3021400000000  0.6189660000000 1.0
C      1  0.3271490000000  0.3565370000000  0.5397840000000 1.0
C      1  0.3271460000000  0.6061860000000  0.6043450000000 1.0
C      1  0.3271500000000  0.5372720000000  0.3558620000000 1.0
C      1  0.5255890000000  0.5424170000000  0.4205520000000 1.0
C      1  0.5255880000000  0.4099880000000  0.5029900000000 1.0
C      1  0.5255860000000  0.5475960000000  0.5764560000000 1.0
C      1  0.4386360000000  0.6341410000000  0.3145690000000 1.0
C      1  0.4386360000000  0.2723390000000  0.4765450000000 1.0
C      1  0.4386310000000  0.5935150000000  0.7088840000000 1.0
C      1  0.3173740000000  0.4543980000000  0.3991370000000 1.0
C      1  0.3173710000000  0.4354520000000  0.5899170000000 1.0
C      1  0.3173710000000  0.6101450000000  0.5109370000000 1.0
C      1  0.4700310000000  0.4663140000000  0.2856340000000 1.0
C      1  0.4700260000000  0.3311980000000  0.6363540000000 1.0
C      1  0.4700240000000  0.7024880000000  0.5780080000000 1.0
C      1  0.5277770000000  0.2401480000000  0.4660750000000 1.0
C      1  0.5277710000000  0.6005390000000  0.7420000000000 1.0
C      1  0.5277770000000  0.6593070000000  0.2919300000000 1.0
C      1  0.6878710000000  0.3581920000000  0.4465880000000 1.0
C      1  0.6878680000000  0.5246470000000  0.6495200000000 1.0
C      1  0.6878690000000  0.6171670000000  0.4038990000000 1.0
C      1  0.6360620000000  0.6689130000000  0.5608160000000 1.0
C      1  0.6360690000000  0.4682140000000  0.3233130000000 1.0
C      1  0.6360630000000  0.3628800000000  0.6158760000000 1.0
C      1  0.4074160000000  0.6504730000000  0.6372150000000 1.0
C      1  0.4074220000000  0.5435960000000  0.3010750000000 1.0
C      1  0.4074200000000  0.3059290000000  0.5617040000000 1.0
C      1  0.3981450000000  0.4735540000000  0.4499860000000 1.0
C      1  0.3981430000000  0.4699100000000  0.5479060000000 1.0
C      1  0.3981430000000  0.5565330000000  0.5021020000000 1.0
C      1  0.5604910000000  0.3327860000000  0.3493660000000 1.0
C      1  0.5604830000000  0.4531530000000  0.7201330000000 1.0
C      1  0.5604850000000  0.7140660000000  0.4305080000000 1.0
C      1  0.6609290000000  0.5657900000000  0.3357850000000 1.0
C      1  0.6609270000000  0.3248910000000  0.5251370000000 1.0
C      1  0.6609240000000  0.6093230000000  0.6390840000000 1.0
C      1  0.4899870000000  0.5882230000000  0.4954500000000 1.0
C      1  0.4899890000000  0.4519490000000  0.4258700000000 1.0
C      1  0.4899870000000  0.4598280000000  0.5786770000000 1.0
C      1  0.4046770000000  0.5041130000000  0.6999030000000 1.0
C      1  0.4046800000000  0.6710650000000  0.3964830000000 1.0
C      1  0.4046840000000  0.3248180000000  0.4036100000000 1.0
C      1  0.5594520000000  0.2478460000000  0.3789340000000 1.0
C      1  0.5594420000000  0.5212260000000  0.7789160000000 1.0
C      1  0.5594470000000  0.7309310000000  0.3421630000000 1.0
C      1  0.3272090000000  0.5107640000000  0.6452870000000 1.0
C      1  0.3272120000000  0.6204400000000  0.4180290000000 1.0
C      1  0.3272140000000  0.3687910000000  0.4366760000000 1.0
C      1  0.5840080000000  0.6498800000000  0.6873410000000 1.0
C      1  0.5840150000000  0.5873020000000  0.2765300000000 1.0
C      1  0.5840140000000  0.2628170000000  0.5361340000000 1.0
C      1  0.4764680000000  0.3847470000000  0.3474740000000 1.0
C      1  0.4764620000000  0.4255360000000  0.6760740000000 1.0
C      1  0.4764620000000  0.6897180000000  0.4764500000000 1.0
END
