TITL C-2158984-8299-1201 -0.00165700949060956 3375 -408.122442498009 0 0 60 (C1) n - 1
REM
REM in /scratch/bkarasulu/869
REM
REM
REM
REM
REM
REM ./C.cell (a2850807a9bf4ad07a5b6933b78d9264)
REM AIRSS Version 0.9.1 bugfix July 2018 build 013d7b7c2542+ Fri, 06 Jul 2018 19:26:36 +0100
REM compiler GCC version 9.2.1 20190827 (Red Hat 9.2.1-1)
REM options -cpp -mtune=generic -march=x86-64 -g -O0 -fpre-include=/usr/include/finclude/math-vector-fortran.h
REM seed 651809158 1546340313 770676261 349756711 1355788171 -884608078 -1831938047 976998070 -596383008 739854902 29346043 -1907624681 707553084 -803141933 -551847450 -51034288 -1296726044 -136028845 -74811470 459529154 -1539772578 -650701377 1549204390 -937006790 -197912609 820038167 719010692 -770165437 2073842150 1808590493 -1084283502 152019086 -1814524182
REM
CELL 1.54180   15.00000   15.00000   15.00000   90.00000   90.00000   90.00000
LATT -1
SFAC C  
C      1  0.5827080000000  0.4032780000000  0.6280520000000 1.0
C      1  0.3206010000000  0.4593860000000  0.6398500000000 1.0
C      1  0.5416900000000  0.6102790000000  0.6563770000000 1.0
C      1  0.2942090000000  0.4234900000000  0.3904310000000 1.0
C      1  0.5366280000000  0.7193220000000  0.3784730000000 1.0
C      1  0.6635920000000  0.3560200000000  0.3787380000000 1.0
C      1  0.6409780000000  0.5054040000000  0.3579560000000 1.0
C      1  0.4200560000000  0.3351570000000  0.3522790000000 1.0
C      1  0.4252590000000  0.6166510000000  0.3474000000000 1.0
C      1  0.6497050000000  0.4446590000000  0.6851770000000 1.0
C      1  0.3448540000000  0.3834900000000  0.6860970000000 1.0
C      1  0.4617830000000  0.6224980000000  0.7043710000000 1.0
C      1  0.4131410000000  0.3051420000000  0.5664180000000 1.0
C      1  0.3692440000000  0.6809070000000  0.5655080000000 1.0
C      1  0.7234470000000  0.5267880000000  0.5565170000000 1.0
C      1  0.3248450000000  0.4378470000000  0.5405310000000 1.0
C      1  0.5259220000000  0.6954480000000  0.5252600000000 1.0
C      1  0.6535860000000  0.3844240000000  0.5202010000000 1.0
C      1  0.3444960000000  0.3436950000000  0.5121150000000 1.0
C      1  0.4364090000000  0.7138690000000  0.4995540000000 1.0
C      1  0.7215610000000  0.4466990000000  0.4965030000000 1.0
C      1  0.5858000000000  0.3562540000000  0.3208720000000 1.0
C      1  0.3407300000000  0.4759510000000  0.3264150000000 1.0
C      1  0.5712150000000  0.6562870000000  0.3122790000000 1.0
C      1  0.3014850000000  0.5716240000000  0.4377640000000 1.0
C      1  0.6646940000000  0.6549000000000  0.4426460000000 1.0
C      1  0.5428100000000  0.2796700000000  0.4463560000000 1.0
C      1  0.5005730000000  0.3902320000000  0.6796050000000 1.0
C      1  0.3575870000000  0.5406850000000  0.6776900000000 1.0
C      1  0.6196440000000  0.5726260000000  0.6967440000000 1.0
C      1  0.4788220000000  0.5525250000000  0.4127260000000 1.0
C      1  0.5731760000000  0.5571120000000  0.4244510000000 1.0
C      1  0.4917850000000  0.4602990000000  0.3869410000000 1.0
C      1  0.5922320000000  0.4959940000000  0.7446500000000 1.0
C      1  0.5015040000000  0.4650930000000  0.7407770000000 1.0
C      1  0.4355450000000  0.5339500000000  0.7344040000000 1.0
C      1  0.5687170000000  0.4475960000000  0.3276370000000 1.0
C      1  0.4210930000000  0.4269440000000  0.3251680000000 1.0
C      1  0.4981010000000  0.6122020000000  0.2847040000000 1.0
C      1  0.2800230000000  0.4805170000000  0.4639530000000 1.0
C      1  0.5897390000000  0.7150720000000  0.4568710000000 1.0
C      1  0.6336740000000  0.3164580000000  0.4573600000000 1.0
C      1  0.3398510000000  0.5688050000000  0.3503550000000 1.0
C      1  0.6390820000000  0.6051750000000  0.3601390000000 1.0
C      1  0.5118860000000  0.3031450000000  0.3591640000000 1.0
C      1  0.6920860000000  0.5206800000000  0.6458570000000 1.0
C      1  0.4215700000000  0.3441260000000  0.6528540000000 1.0
C      1  0.3829410000000  0.6333310000000  0.6476440000000 1.0
C      1  0.4267310000000  0.4677930000000  0.5291400000000 1.0
C      1  0.5250530000000  0.6016030000000  0.5612310000000 1.0
C      1  0.5759900000000  0.4437430000000  0.5372610000000 1.0
C      1  0.4949510000000  0.4160720000000  0.4865910000000 1.0
C      1  0.4415630000000  0.5579850000000  0.5069470000000 1.0
C      1  0.5930410000000  0.5449730000000  0.5181450000000 1.0
C      1  0.3524380000000  0.6109620000000  0.5078570000000 1.0
C      1  0.6810440000000  0.5971630000000  0.5161710000000 1.0
C      1  0.4850890000000  0.3149160000000  0.5104330000000 1.0
C      1  0.7004910000000  0.4461420000000  0.4026210000000 1.0
C      1  0.3475770000000  0.3455770000000  0.4166740000000 1.0
C      1  0.4449560000000  0.7013660000000  0.4030960000000 1.0
END
