TITL C-2159255-4746-1076 -0.00951028021810369 3375 -397.770374058383 0 0 60 (C3) n - 1
REM
REM in /scratch/bkarasulu/871
REM
REM
REM
REM
REM
REM ./C.cell (a2850807a9bf4ad07a5b6933b78d9264)
REM AIRSS Version 0.9.1 bugfix July 2018 build 013d7b7c2542+ Fri, 06 Jul 2018 19:26:36 +0100
REM compiler GCC version 9.2.1 20190827 (Red Hat 9.2.1-1)
REM options -cpp -mtune=generic -march=x86-64 -g -O0 -fpre-include=/usr/include/finclude/math-vector-fortran.h
REM seed -1785704782 -1433350356 -738382374 2011023721 -1868178691 -1111654861 -787607916 1934615912 -1249804961 1630245495 -1646351914 1905784609 789105141 -93462548 2027398119 -144342374 1845834080 570476681 -1765983301 2051925721 1201919422 -1144995473 -1728676565 -1751770182 -882407313 1432754405 -862920355 -1897912842 830395988 -785746213 -1860024259 -2017320275 -949785286
REM
CELL 1.54180   15.00000   15.00000   15.00000   90.00000   90.00000   90.00000
LATT -1
SFAC C  
C      1  0.6544930000000  0.4000970000000  0.4302160000000 1.0
C      1  0.5092740000000  0.6837460000000  0.4302140000000 1.0
C      1  0.3362350000000  0.4161580000000  0.4302120000000 1.0
C      1  0.6544930000000  0.5999030000000  0.4302160000000 1.0
C      1  0.5092740000000  0.3162540000000  0.4302140000000 1.0
C      1  0.3362350000000  0.5838420000000  0.4302120000000 1.0
C      1  0.4682660000000  0.6544620000000  0.6455500000000 1.0
C      1  0.3820960000000  0.3952890000000  0.6455490000000 1.0
C      1  0.6496320000000  0.4502500000000  0.6455530000000 1.0
C      1  0.4682660000000  0.3455380000000  0.6455500000000 1.0
C      1  0.3820960000000  0.6047110000000  0.6455490000000 1.0
C      1  0.6496320000000  0.5497500000000  0.6455530000000 1.0
C      1  0.2892980000000  0.5501810000000  0.5073850000000 1.0
C      1  0.5618920000000  0.2924380000000  0.5073890000000 1.0
C      1  0.6488070000000  0.6573810000000  0.5073910000000 1.0
C      1  0.2892980000000  0.4498190000000  0.5073850000000 1.0
C      1  0.5618920000000  0.7075620000000  0.5073890000000 1.0
C      1  0.6488070000000  0.3426190000000  0.5073910000000 1.0
C      1  0.5830850000000  0.4519790000000  0.1869880000000 1.0
C      1  0.5000510000000  0.5959610000000  0.1869870000000 1.0
C      1  0.4168770000000  0.4520600000000  0.1869860000000 1.0
C      1  0.5830850000000  0.5480210000000  0.1869880000000 1.0
C      1  0.5000510000000  0.4040390000000  0.1869870000000 1.0
C      1  0.4168770000000  0.5479400000000  0.1869860000000 1.0
C      1  0.5160650000000  0.6967600000000  0.5855630000000 1.0
C      1  0.3215670000000  0.4155350000000  0.5855600000000 1.0
C      1  0.6623650000000  0.3877070000000  0.5855650000000 1.0
C      1  0.5160650000000  0.3032400000000  0.5855630000000 1.0
C      1  0.3215670000000  0.5844650000000  0.5855600000000 1.0
C      1  0.6623650000000  0.6122930000000  0.5855650000000 1.0
C      1  0.4091030000000  0.4476710000000  0.2878680000000 1.0
C      1  0.5907710000000  0.4474420000000  0.2878710000000 1.0
C      1  0.5001350000000  0.6048870000000  0.2878700000000 1.0
C      1  0.4091030000000  0.5523290000000  0.2878680000000 1.0
C      1  0.5907710000000  0.5525580000000  0.2878710000000 1.0
C      1  0.5001350000000  0.3951130000000  0.2878700000000 1.0
C      1  0.5014130000000  0.3134130000000  0.3433320000000 1.0
C      1  0.6608850000000  0.5945150000000  0.3433340000000 1.0
C      1  0.3377080000000  0.5920710000000  0.3433300000000 1.0
C      1  0.5014130000000  0.6865870000000  0.3433320000000 1.0
C      1  0.6608850000000  0.4054850000000  0.3433340000000 1.0
C      1  0.3377080000000  0.4079290000000  0.3433300000000 1.0
C      1  0.5017770000000  0.3991710000000  0.7262740000000 1.0
C      1  0.5864280000000  0.5519550000000  0.7262750000000 1.0
C      1  0.4117880000000  0.5488730000000  0.7262730000000 1.0
C      1  0.5017770000000  0.6008290000000  0.7262740000000 1.0
C      1  0.5864280000000  0.4480450000000  0.7262750000000 1.0
C      1  0.4117880000000  0.4511270000000  0.7262730000000 1.0
C      1  0.4223490000000  0.5451690000000  0.4611900000000 1.0
C      1  0.4997080000000  0.4101680000000  0.4611910000000 1.0
C      1  0.5779430000000  0.5446630000000  0.4611920000000 1.0
C      1  0.4223490000000  0.4548310000000  0.4611900000000 1.0
C      1  0.4997080000000  0.5898320000000  0.4611910000000 1.0
C      1  0.5779430000000  0.4553370000000  0.4611920000000 1.0
C      1  0.5848170000000  0.4510860000000  0.8256320000000 1.0
C      1  0.4999460000000  0.5979140000000  0.8256310000000 1.0
C      1  0.4152250000000  0.4510000000000  0.8256290000000 1.0
C      1  0.5848170000000  0.5489140000000  0.8256320000000 1.0
C      1  0.4999460000000  0.4020860000000  0.8256310000000 1.0
C      1  0.4152250000000  0.5490000000000  0.8256290000000 1.0
END
