TITL C-2158984-8299-150 -0.00175569088988993 3375 -392.542105874346 0 0 60 (C5) n - 1
REM
REM in /scratch/bkarasulu/869
REM
REM
REM
REM
REM
REM ./C.cell (a2850807a9bf4ad07a5b6933b78d9264)
REM AIRSS Version 0.9.1 bugfix July 2018 build 013d7b7c2542+ Fri, 06 Jul 2018 19:26:36 +0100
REM compiler GCC version 9.2.1 20190827 (Red Hat 9.2.1-1)
REM options -cpp -mtune=generic -march=x86-64 -g -O0 -fpre-include=/usr/include/finclude/math-vector-fortran.h
REM seed 686802864 874355364 -554994598 -1843719934 1959659162 183044194 -114048063 2127144612 -1483850502 532958611 1059920497 1335847134 -1699601331 -2079641559 804088201 -495554340 8048931 1903151417 -424935491 635198306 -1190577219 1381198912 -782638040 1628367092 -354548047 1562674651 -787483017 1048481862 687286347 -1864555099 -550229898 17340182 -48488557
REM
CELL 1.54180   15.00000   15.00000   15.00000   90.00000   90.00000   90.00000
LATT -1
SFAC C  
C      1  0.5011970000000  0.6778960000000  0.6472380000000 1.0
C      1  0.3603380000000  0.6778960000000  0.5466380000000 1.0
C      1  0.4124870000000  0.6778960000000  0.3815860000000 1.0
C      1  0.5855750000000  0.6778960000000  0.3801790000000 1.0
C      1  0.6404020000000  0.6778970000000  0.5443600000000 1.0
C      1  0.5011970000000  0.3221040000000  0.6472380000000 1.0
C      1  0.3603380000000  0.3221040000000  0.5466380000000 1.0
C      1  0.4124870000000  0.3221040000000  0.3815860000000 1.0
C      1  0.5855750000000  0.3221040000000  0.3801790000000 1.0
C      1  0.6404020000000  0.3221030000000  0.5443600000000 1.0
C      1  0.5516820000000  0.5493410000000  0.6695350000000 1.0
C      1  0.3547340000000  0.5493410000000  0.6015410000000 1.0
C      1  0.3585390000000  0.5493410000000  0.3932210000000 1.0
C      1  0.5578390000000  0.5493410000000  0.3324650000000 1.0
C      1  0.6772080000000  0.5493410000000  0.5032370000000 1.0
C      1  0.5516820000000  0.4506590000000  0.6695350000000 1.0
C      1  0.3547340000000  0.4506590000000  0.6015410000000 1.0
C      1  0.3585390000000  0.4506590000000  0.3932210000000 1.0
C      1  0.5578390000000  0.4506590000000  0.3324650000000 1.0
C      1  0.6772080000000  0.4506590000000  0.5032370000000 1.0
C      1  0.6422270000000  0.6082880000000  0.3435080000000 1.0
C      1  0.6927840000000  0.6082880000000  0.5869070000000 1.0
C      1  0.4769200000000  0.6082880000000  0.7102050000000 1.0
C      1  0.2929510000000  0.6082870000000  0.5430050000000 1.0
C      1  0.3951180000000  0.6082880000000  0.3163750000000 1.0
C      1  0.6422270000000  0.3917120000000  0.3435080000000 1.0
C      1  0.6927840000000  0.3917120000000  0.5869070000000 1.0
C      1  0.4769200000000  0.3917120000000  0.7102050000000 1.0
C      1  0.2929510000000  0.3917130000000  0.5430050000000 1.0
C      1  0.3951180000000  0.3917120000000  0.3163750000000 1.0
C      1  0.4981670000000  0.7491380000000  0.5837150000000 1.0
C      1  0.4198160000000  0.7491380000000  0.5241260000000 1.0
C      1  0.4522760000000  0.7491380000000  0.4311960000000 1.0
C      1  0.5506890000000  0.7491390000000  0.4333510000000 1.0
C      1  0.5790510000000  0.7491380000000  0.5276130000000 1.0
C      1  0.4981670000000  0.2508620000000  0.5837150000000 1.0
C      1  0.4198160000000  0.2508620000000  0.5241260000000 1.0
C      1  0.4522760000000  0.2508620000000  0.4311960000000 1.0
C      1  0.5506890000000  0.2508610000000  0.4333510000000 1.0
C      1  0.5790510000000  0.2508620000000  0.5276130000000 1.0
C      1  0.2865210000000  0.4513690000000  0.4637800000000 1.0
C      1  0.4684780000000  0.4513680000000  0.2857760000000 1.0
C      1  0.6939970000000  0.4513680000000  0.4038220000000 1.0
C      1  0.6514190000000  0.4513680000000  0.6547820000000 1.0
C      1  0.3995850000000  0.4513690000000  0.6918390000000 1.0
C      1  0.2865210000000  0.5486310000000  0.4637800000000 1.0
C      1  0.4684780000000  0.5486320000000  0.2857760000000 1.0
C      1  0.6939970000000  0.5486320000000  0.4038220000000 1.0
C      1  0.6514190000000  0.5486320000000  0.6547820000000 1.0
C      1  0.3995850000000  0.5486310000000  0.6918390000000 1.0
C      1  0.4289780000000  0.4046210000000  0.5415140000000 1.0
C      1  0.4385710000000  0.4046210000000  0.4452820000000 1.0
C      1  0.5330570000000  0.4046210000000  0.4246690000000 1.0
C      1  0.5818600000000  0.4046210000000  0.5081600000000 1.0
C      1  0.5175350000000  0.4046210000000  0.5803750000000 1.0
C      1  0.4289780000000  0.5953790000000  0.5415140000000 1.0
C      1  0.4385710000000  0.5953790000000  0.4452820000000 1.0
C      1  0.5330570000000  0.5953790000000  0.4246690000000 1.0
C      1  0.5818600000000  0.5953790000000  0.5081600000000 1.0
C      1  0.5175350000000  0.5953790000000  0.5803750000000 1.0
END
