TITL C-2159255-4746-1238 -0.00196177825954012 3375 -397.616840789098 0 0 60 (C1) n - 1
REM
REM in /scratch/bkarasulu/871
REM
REM
REM
REM
REM
REM ./C.cell (a2850807a9bf4ad07a5b6933b78d9264)
REM AIRSS Version 0.9.1 bugfix July 2018 build 013d7b7c2542+ Fri, 06 Jul 2018 19:26:36 +0100
REM compiler GCC version 9.2.1 20190827 (Red Hat 9.2.1-1)
REM options -cpp -mtune=generic -march=x86-64 -g -O0 -fpre-include=/usr/include/finclude/math-vector-fortran.h
REM seed -1906832313 773463908 -1053697455 294097905 1063847838 213675123 -1346531198 141166876 469159473 -421929026 -1946003552 -47513602 -1352541683 -1323898000 -254328492 122577826 766680801 -2123286235 1284798969 -535540831 416455055 -1027782964 -587906605 1280914733 631358726 -1104882424 -192042765 -1191987881 -1195334251 1252432461 54115769 -122479320 -927376742
REM
CELL 1.54180   15.00000   15.00000   15.00000   90.00000   90.00000   90.00000
LATT -1
SFAC C  
C      1  0.2647490000000  0.3597350000000  0.5217760000000 1.0
C      1  0.3794570000000  0.3928640000000  0.3057370000000 1.0
C      1  0.5623920000000  0.3668270000000  0.3073360000000 1.0
C      1  0.7171160000000  0.3872350000000  0.3983090000000 1.0
C      1  0.6632220000000  0.3599720000000  0.5532130000000 1.0
C      1  0.5031830000000  0.3781230000000  0.6740670000000 1.0
C      1  0.3426300000000  0.3637740000000  0.6801350000000 1.0
C      1  0.6338230000000  0.4252590000000  0.6100860000000 1.0
C      1  0.4942370000000  0.3592300000000  0.5802180000000 1.0
C      1  0.4157900000000  0.4018350000000  0.5430880000000 1.0
C      1  0.4167900000000  0.3617430000000  0.4509790000000 1.0
C      1  0.4810930000000  0.4227550000000  0.4059940000000 1.0
C      1  0.5713120000000  0.4209820000000  0.4448570000000 1.0
C      1  0.5720080000000  0.3613910000000  0.5235450000000 1.0
C      1  0.6822360000000  0.5377820000000  0.4208220000000 1.0
C      1  0.6413180000000  0.5612170000000  0.6656360000000 1.0
C      1  0.5009800000000  0.5447360000000  0.7026610000000 1.0
C      1  0.3628230000000  0.5422790000000  0.6314860000000 1.0
C      1  0.2936660000000  0.4953100000000  0.4928290000000 1.0
C      1  0.4192440000000  0.5478440000000  0.3162640000000 1.0
C      1  0.5646250000000  0.5515260000000  0.3235150000000 1.0
C      1  0.3663710000000  0.6366430000000  0.4652350000000 1.0
C      1  0.4267150000000  0.6430630000000  0.3139990000000 1.0
C      1  0.5772090000000  0.6475470000000  0.3030250000000 1.0
C      1  0.6788830000000  0.6381840000000  0.4250590000000 1.0
C      1  0.6469760000000  0.6876030000000  0.5899920000000 1.0
C      1  0.5151870000000  0.6402360000000  0.6973040000000 1.0
C      1  0.3804600000000  0.6399440000000  0.6271710000000 1.0
C      1  0.5291940000000  0.5624450000000  0.4178930000000 1.0
C      1  0.5984880000000  0.5168640000000  0.4738420000000 1.0
C      1  0.6022380000000  0.5159080000000  0.5742450000000 1.0
C      1  0.5112540000000  0.5408420000000  0.5923600000000 1.0
C      1  0.4287990000000  0.5080350000000  0.5568370000000 1.0
C      1  0.3785690000000  0.5407110000000  0.4759600000000 1.0
C      1  0.4421910000000  0.5167470000000  0.4072370000000 1.0
C      1  0.4983130000000  0.6869770000000  0.2757580000000 1.0
C      1  0.6528630000000  0.6795970000000  0.3472860000000 1.0
C      1  0.6721800000000  0.6703350000000  0.5117230000000 1.0
C      1  0.6086360000000  0.6493900000000  0.6649210000000 1.0
C      1  0.4345810000000  0.6779100000000  0.6922840000000 1.0
C      1  0.3860040000000  0.6858570000000  0.5427520000000 1.0
C      1  0.3671840000000  0.6591520000000  0.3777500000000 1.0
C      1  0.2909920000000  0.4892570000000  0.5884880000000 1.0
C      1  0.2713630000000  0.4139540000000  0.4462420000000 1.0
C      1  0.4922240000000  0.5050880000000  0.2739840000000 1.0
C      1  0.6449880000000  0.5039790000000  0.3361030000000 1.0
C      1  0.7462340000000  0.4687270000000  0.4454880000000 1.0
C      1  0.5870860000000  0.5067610000000  0.7230770000000 1.0
C      1  0.4139530000000  0.5040310000000  0.7097120000000 1.0
C      1  0.5865320000000  0.4172900000000  0.6920740000000 1.0
C      1  0.4176970000000  0.4090410000000  0.7073920000000 1.0
C      1  0.3208690000000  0.3914300000000  0.5935780000000 1.0
C      1  0.3382180000000  0.3841780000000  0.3833120000000 1.0
C      1  0.4801530000000  0.4114050000000  0.3011200000000 1.0
C      1  0.6310250000000  0.4074920000000  0.3589980000000 1.0
C      1  0.7211130000000  0.3920340000000  0.4886360000000 1.0
C      1  0.4941110000000  0.8116240000000  0.4964220000000 1.0
C      1  0.4325400000000  0.2661270000000  0.4592520000000 1.0
C      1  0.4651210000000  0.1966130000000  0.4902010000000 1.0
C      1  0.4332320000000  0.7649330000000  0.5291290000000 1.0
END
