TITL C-2158988-7926-802 -0.00121253996598084 3375 -385.325801250002 0 0 60 (C4) n - 1
REM
REM in /scratch/bkarasulu/868
REM
REM
REM
REM
REM
REM ./C.cell (a2850807a9bf4ad07a5b6933b78d9264)
REM AIRSS Version 0.9.1 bugfix July 2018 build 013d7b7c2542+ Fri, 06 Jul 2018 19:26:36 +0100
REM compiler GCC version 9.2.1 20190827 (Red Hat 9.2.1-1)
REM options -cpp -mtune=generic -march=x86-64 -g -O0 -fpre-include=/usr/include/finclude/math-vector-fortran.h
REM seed 1022185638 132773753 -151164583 -1859344411 1426913629 1377594686 -576365118 -1970470314 2050296378 1080501617 522251824 -230272931 729250307 -1286697426 -2025155464 -1589507462 -146845924 1281418880 -1129021481 -1162405336 -74647187 1964402731 399782490 147297979 -494311647 -1895659429 -1818298524 -173452673 -527155739 295431035 1035800177 -1422241328 1808437193
REM
CELL 1.54180   15.00000   15.00000   15.00000   90.00000   90.00000   90.00000
LATT -1
SFAC C  
C      1  0.5225880000000  0.2830100000000  0.4131500000000 1.0
C      1  0.7169900000000  0.5225880000000  0.4131500000000 1.0
C      1  0.4774120000000  0.7169900000000  0.4131500000000 1.0
C      1  0.2830100000000  0.4774120000000  0.4131500000000 1.0
C      1  0.4539330000000  0.6309340000000  0.2988390000000 1.0
C      1  0.3690660000000  0.4539330000000  0.2988390000000 1.0
C      1  0.5460670000000  0.3690660000000  0.2988390000000 1.0
C      1  0.6309340000000  0.5460670000000  0.2988390000000 1.0
C      1  0.3930500000000  0.5452840000000  0.5126940000000 1.0
C      1  0.4547160000000  0.3930500000000  0.5126940000000 1.0
C      1  0.6069500000000  0.4547160000000  0.5126940000000 1.0
C      1  0.5452840000000  0.6069500000000  0.5126940000000 1.0
C      1  0.6491960000000  0.4268450000000  0.6634340000000 1.0
C      1  0.5731550000000  0.6491960000000  0.6634340000000 1.0
C      1  0.3508040000000  0.5731550000000  0.6634340000000 1.0
C      1  0.4268450000000  0.3508040000000  0.6634340000000 1.0
C      1  0.4233100000000  0.7212660000000  0.4846310000000 1.0
C      1  0.2787340000000  0.4233100000000  0.4846310000000 1.0
C      1  0.5766900000000  0.2787340000000  0.4846310000000 1.0
C      1  0.7212660000000  0.5766900000000  0.4846310000000 1.0
C      1  0.5844380000000  0.6903660000000  0.5597400000000 1.0
C      1  0.3096340000000  0.5844380000000  0.5597400000000 1.0
C      1  0.4155620000000  0.3096340000000  0.5597400000000 1.0
C      1  0.6903660000000  0.4155620000000  0.5597400000000 1.0
C      1  0.4016890000000  0.4592630000000  0.5611140000000 1.0
C      1  0.5407370000000  0.4016890000000  0.5611140000000 1.0
C      1  0.5983110000000  0.5407370000000  0.5611140000000 1.0
C      1  0.4592630000000  0.5983110000000  0.5611140000000 1.0
C      1  0.6176950000000  0.6252710000000  0.3438730000000 1.0
C      1  0.3747290000000  0.6176950000000  0.3438730000000 1.0
C      1  0.3823050000000  0.3747290000000  0.3438730000000 1.0
C      1  0.6252710000000  0.3823050000000  0.3438730000000 1.0
C      1  0.4426370000000  0.5403900000000  0.6514210000000 1.0
C      1  0.4596100000000  0.4426370000000  0.6514210000000 1.0
C      1  0.5573630000000  0.4596100000000  0.6514210000000 1.0
C      1  0.5403900000000  0.5573630000000  0.6514210000000 1.0
C      1  0.2878750000000  0.5144980000000  0.6211130000000 1.0
C      1  0.4855020000000  0.2878750000000  0.6211130000000 1.0
C      1  0.7121250000000  0.4855020000000  0.6211130000000 1.0
C      1  0.5144980000000  0.7121250000000  0.6211130000000 1.0
C      1  0.6900130000000  0.5718460000000  0.5808010000000 1.0
C      1  0.4281540000000  0.6900130000000  0.5808010000000 1.0
C      1  0.3099870000000  0.4281540000000  0.5808010000000 1.0
C      1  0.5718460000000  0.3099870000000  0.5808010000000 1.0
C      1  0.3450820000000  0.3437870000000  0.6159470000000 1.0
C      1  0.6562130000000  0.3450820000000  0.6159470000000 1.0
C      1  0.6549180000000  0.6562130000000  0.6159470000000 1.0
C      1  0.3437870000000  0.6549180000000  0.6159470000000 1.0
C      1  0.3183020000000  0.3839060000000  0.4138820000000 1.0
C      1  0.6160940000000  0.3183020000000  0.4138820000000 1.0
C      1  0.6816980000000  0.6160940000000  0.4138820000000 1.0
C      1  0.3839060000000  0.6816980000000  0.4138820000000 1.0
C      1  0.3471820000000  0.5261040000000  0.3552360000000 1.0
C      1  0.4738960000000  0.3471820000000  0.3552360000000 1.0
C      1  0.6528180000000  0.4738960000000  0.3552360000000 1.0
C      1  0.5261040000000  0.6528180000000  0.3552360000000 1.0
C      1  0.5694470000000  0.4757840000000  0.4241230000000 1.0
C      1  0.5242160000000  0.5694470000000  0.4241230000000 1.0
C      1  0.4305530000000  0.5242160000000  0.4241230000000 1.0
C      1  0.4757840000000  0.4305530000000  0.4241230000000 1.0
END
