TITL C-2158988-7926-260 -0.00134843854333273 3375 -406.509843886959 0 0 60 (C5) n - 1
REM
REM in /scratch/bkarasulu/868
REM
REM
REM
REM
REM
REM ./C.cell (a2850807a9bf4ad07a5b6933b78d9264)
REM AIRSS Version 0.9.1 bugfix July 2018 build 013d7b7c2542+ Fri, 06 Jul 2018 19:26:36 +0100
REM compiler GCC version 9.2.1 20190827 (Red Hat 9.2.1-1)
REM options -cpp -mtune=generic -march=x86-64 -g -O0 -fpre-include=/usr/include/finclude/math-vector-fortran.h
REM seed -219852398 1955537620 231327366 -1532253536 2043785910 -412098027 1956446999 427415255 -1245479718 136194568 -786692880 -449055312 673288120 1364660604 948310367 -199767493 -615359965 1790746425 1508208232 -809556506 -1635235068 571792635 -556077086 -1231085616 -591619447 -827107716 789110190 1877205937 1753525477 1751882924 667405893 -325325933 -1032692924
REM
CELL 1.54180   15.00000   15.00000   15.00000   90.00000   90.00000   90.00000
LATT -1
SFAC C  
C      1  0.5563800000000  0.3372070000000  0.3430270000000 1.0
C      1  0.6667120000000  0.3372000000000  0.5051120000000 1.0
C      1  0.5466570000000  0.3372030000000  0.6601320000000 1.0
C      1  0.3621210000000  0.3372070000000  0.5938560000000 1.0
C      1  0.3681310000000  0.3372030000000  0.3978720000000 1.0
C      1  0.5563800000000  0.6627930000000  0.3430270000000 1.0
C      1  0.6667120000000  0.6628000000000  0.5051120000000 1.0
C      1  0.5466570000000  0.6627970000000  0.6601320000000 1.0
C      1  0.3621210000000  0.6627930000000  0.5938560000000 1.0
C      1  0.3681310000000  0.6627970000000  0.3978720000000 1.0
C      1  0.4293920000000  0.4532630000000  0.7283030000000 1.0
C      1  0.2610500000000  0.4532620000000  0.5033800000000 1.0
C      1  0.4229370000000  0.4532630000000  0.2737940000000 1.0
C      1  0.6913290000000  0.4532620000000  0.3568230000000 1.0
C      1  0.6953050000000  0.4532640000000  0.6376990000000 1.0
C      1  0.4293920000000  0.5467370000000  0.7283030000000 1.0
C      1  0.2610500000000  0.5467380000000  0.5033800000000 1.0
C      1  0.4229370000000  0.5467370000000  0.2737940000000 1.0
C      1  0.6913290000000  0.5467380000000  0.3568230000000 1.0
C      1  0.6953050000000  0.5467360000000  0.6376990000000 1.0
C      1  0.6902350000000  0.6231290000000  0.5873230000000 1.0
C      1  0.4757370000000  0.6231280000000  0.7079100000000 1.0
C      1  0.2947650000000  0.6231240000000  0.5411700000000 1.0
C      1  0.3974250000000  0.6231260000000  0.3175340000000 1.0
C      1  0.6418390000000  0.6231230000000  0.3460610000000 1.0
C      1  0.6902350000000  0.3768710000000  0.5873230000000 1.0
C      1  0.4757370000000  0.3768720000000  0.7079100000000 1.0
C      1  0.2947650000000  0.3768760000000  0.5411700000000 1.0
C      1  0.3974250000000  0.3768740000000  0.3175340000000 1.0
C      1  0.6418390000000  0.3768770000000  0.3460610000000 1.0
C      1  0.5804200000000  0.2919010000000  0.5034450000000 1.0
C      1  0.5215730000000  0.2919020000000  0.5775490000000 1.0
C      1  0.4329110000000  0.2919040000000  0.5444820000000 1.0
C      1  0.4369630000000  0.2919030000000  0.4499410000000 1.0
C      1  0.5281280000000  0.2919030000000  0.4245790000000 1.0
C      1  0.5804200000000  0.7080990000000  0.5034450000000 1.0
C      1  0.5215730000000  0.7080980000000  0.5775490000000 1.0
C      1  0.4329110000000  0.7080960000000  0.5444820000000 1.0
C      1  0.4369630000000  0.7080970000000  0.4499410000000 1.0
C      1  0.5281280000000  0.7080970000000  0.4245790000000 1.0
C      1  0.6085950000000  0.5957070000000  0.6326870000000 1.0
C      1  0.4073630000000  0.5957060000000  0.6442860000000 1.0
C      1  0.3341510000000  0.5957060000000  0.4564810000000 1.0
C      1  0.4901380000000  0.5957050000000  0.3288210000000 1.0
C      1  0.6597520000000  0.5957060000000  0.4377270000000 1.0
C      1  0.6085950000000  0.4042930000000  0.6326870000000 1.0
C      1  0.4073630000000  0.4042940000000  0.6442860000000 1.0
C      1  0.3341510000000  0.4042940000000  0.4564810000000 1.0
C      1  0.4901380000000  0.4042950000000  0.3288210000000 1.0
C      1  0.6597520000000  0.4042940000000  0.4377270000000 1.0
C      1  0.4954740000000  0.5506590000000  0.4173480000000 1.0
C      1  0.5772080000000  0.5506590000000  0.4701570000000 1.0
C      1  0.5522410000000  0.5506600000000  0.5642100000000 1.0
C      1  0.4550770000000  0.5506590000000  0.5695290000000 1.0
C      1  0.4199920000000  0.5506590000000  0.4787630000000 1.0
C      1  0.4954740000000  0.4493410000000  0.4173480000000 1.0
C      1  0.5772080000000  0.4493410000000  0.4701570000000 1.0
C      1  0.5522410000000  0.4493400000000  0.5642100000000 1.0
C      1  0.4550770000000  0.4493410000000  0.5695290000000 1.0
C      1  0.4199920000000  0.4493410000000  0.4787630000000 1.0
END
