TITL C-2158984-8299-1200 -0.00359321322570981 3375 -399.048009520782 0 0 60 (T23) n - 1
REM
REM in /scratch/bkarasulu/869
REM
REM
REM
REM
REM
REM ./C.cell (a2850807a9bf4ad07a5b6933b78d9264)
REM AIRSS Version 0.9.1 bugfix July 2018 build 013d7b7c2542+ Fri, 06 Jul 2018 19:26:36 +0100
REM compiler GCC version 9.2.1 20190827 (Red Hat 9.2.1-1)
REM options -cpp -mtune=generic -march=x86-64 -g -O0 -fpre-include=/usr/include/finclude/math-vector-fortran.h
REM seed 706442404 892693183 -1975195712 1421150177 -1773243896 -1535090007 -581729744 -183896383 1023459619 -174834150 -41545117 -423233972 -1282146463 -1391013299 -238877734 -888810238 1341520501 1953382184 -206285725 -751536152 -1457814837 949564300 402037917 -140112034 -288304228 243347014 454057338 863653163 875876221 -1078866178 165779432 -1941586740 368196966
REM
CELL 1.54180   15.00000   15.00000   15.00000   90.00000   90.00000   90.00000
LATT -1
SFAC C  
C      1  0.4720610000000  0.3932670000000  0.5397790000000 1.0
C      1  0.3932670000000  0.5397790000000  0.4720610000000 1.0
C      1  0.5397790000000  0.4720610000000  0.3932670000000 1.0
C      1  0.5279390000000  0.3932670000000  0.4602210000000 1.0
C      1  0.5279390000000  0.6067330000000  0.5397790000000 1.0
C      1  0.4720610000000  0.6067330000000  0.4602210000000 1.0
C      1  0.6067330000000  0.5397790000000  0.5279390000000 1.0
C      1  0.6067330000000  0.4602210000000  0.4720610000000 1.0
C      1  0.3932670000000  0.4602210000000  0.5279390000000 1.0
C      1  0.4602210000000  0.4720610000000  0.6067330000000 1.0
C      1  0.4602210000000  0.5279390000000  0.3932670000000 1.0
C      1  0.5397790000000  0.5279390000000  0.6067330000000 1.0
C      1  0.4670670000000  0.4651380000000  0.7550530000000 1.0
C      1  0.4651380000000  0.7550530000000  0.4670670000000 1.0
C      1  0.7550530000000  0.4670670000000  0.4651380000000 1.0
C      1  0.5329330000000  0.4651380000000  0.2449470000000 1.0
C      1  0.5329330000000  0.5348620000000  0.7550530000000 1.0
C      1  0.4670670000000  0.5348620000000  0.2449470000000 1.0
C      1  0.5348620000000  0.7550530000000  0.5329330000000 1.0
C      1  0.5348620000000  0.2449470000000  0.4670670000000 1.0
C      1  0.4651380000000  0.2449470000000  0.5329330000000 1.0
C      1  0.2449470000000  0.4670670000000  0.5348620000000 1.0
C      1  0.2449470000000  0.5329330000000  0.4651380000000 1.0
C      1  0.7550530000000  0.5329330000000  0.5348620000000 1.0
C      1  0.3739720000000  0.2432290000000  0.5072870000000 1.0
C      1  0.2432290000000  0.5072870000000  0.3739720000000 1.0
C      1  0.5072870000000  0.3739720000000  0.2432290000000 1.0
C      1  0.6260280000000  0.2432290000000  0.4927130000000 1.0
C      1  0.6260280000000  0.7567710000000  0.5072870000000 1.0
C      1  0.3739720000000  0.7567710000000  0.4927130000000 1.0
C      1  0.7567710000000  0.5072870000000  0.6260280000000 1.0
C      1  0.7567710000000  0.4927130000000  0.3739720000000 1.0
C      1  0.2432290000000  0.4927130000000  0.6260280000000 1.0
C      1  0.4927130000000  0.3739720000000  0.7567710000000 1.0
C      1  0.4927130000000  0.6260280000000  0.2432290000000 1.0
C      1  0.5072870000000  0.6260280000000  0.7567710000000 1.0
C      1  0.5047040000000  0.3220100000000  0.3115880000000 1.0
C      1  0.3220100000000  0.3115880000000  0.5047040000000 1.0
C      1  0.3115880000000  0.5047040000000  0.3220100000000 1.0
C      1  0.4952960000000  0.3220100000000  0.6884120000000 1.0
C      1  0.4952960000000  0.6779900000000  0.3115880000000 1.0
C      1  0.5047040000000  0.6779900000000  0.6884120000000 1.0
C      1  0.6779900000000  0.3115880000000  0.4952960000000 1.0
C      1  0.6779900000000  0.6884120000000  0.5047040000000 1.0
C      1  0.3220100000000  0.6884120000000  0.4952960000000 1.0
C      1  0.6884120000000  0.5047040000000  0.6779900000000 1.0
C      1  0.6884120000000  0.4952960000000  0.3220100000000 1.0
C      1  0.3115880000000  0.4952960000000  0.6779900000000 1.0
C      1  0.5188590000000  0.6860410000000  0.5974100000000 1.0
C      1  0.6860410000000  0.5974100000000  0.5188590000000 1.0
C      1  0.5974100000000  0.5188590000000  0.6860410000000 1.0
C      1  0.4811410000000  0.6860410000000  0.4025900000000 1.0
C      1  0.4811410000000  0.3139590000000  0.5974100000000 1.0
C      1  0.5188590000000  0.3139590000000  0.4025900000000 1.0
C      1  0.3139590000000  0.5974100000000  0.4811410000000 1.0
C      1  0.3139590000000  0.4025900000000  0.5188590000000 1.0
C      1  0.6860410000000  0.4025900000000  0.4811410000000 1.0
C      1  0.4025900000000  0.5188590000000  0.3139590000000 1.0
C      1  0.4025900000000  0.4811410000000  0.6860410000000 1.0
C      1  0.5974100000000  0.4811410000000  0.3139590000000 1.0
END
