TITL C-2158984-8299-862 -0.00195769527986123 3375 -397.582425389081 0 0 60 (C3) n - 1
REM
REM in /scratch/bkarasulu/869
REM
REM
REM
REM
REM
REM ./C.cell (a2850807a9bf4ad07a5b6933b78d9264)
REM AIRSS Version 0.9.1 bugfix July 2018 build 013d7b7c2542+ Fri, 06 Jul 2018 19:26:36 +0100
REM compiler GCC version 9.2.1 20190827 (Red Hat 9.2.1-1)
REM options -cpp -mtune=generic -march=x86-64 -g -O0 -fpre-include=/usr/include/finclude/math-vector-fortran.h
REM seed -1677804881 32922045 1884145852 -1884071731 -437708737 1899690206 2052839084 -1704545448 306306952 -1651248359 -904133191 -750050872 1320766474 -1402627923 -1514631113 352772815 870823401 -1871113293 -1526652719 64566606 824967594 -2076228292 -405548285 268412191 -1136785678 337003626 282387627 -829266356 1441955519 1417925297 -950391141 1333491514 -18527811
REM
CELL 1.54180   15.00000   15.00000   15.00000   90.00000   90.00000   90.00000
LATT -1
SFAC C  
C      1  0.3930810000000  0.4758510000000  0.2396270000000 1.0
C      1  0.5743570000000  0.4194800000000  0.2396200000000 1.0
C      1  0.5325330000000  0.6046550000000  0.2396180000000 1.0
C      1  0.3845480000000  0.6443800000000  0.6695110000000 1.0
C      1  0.4327030000000  0.3278230000000  0.6695150000000 1.0
C      1  0.6827730000000  0.5278040000000  0.6694980000000 1.0
C      1  0.5277650000000  0.6895780000000  0.6604350000000 1.0
C      1  0.3219500000000  0.4292540000000  0.6604480000000 1.0
C      1  0.6503050000000  0.3811760000000  0.6604350000000 1.0
C      1  0.3258300000000  0.5599260000000  0.4502360000000 1.0
C      1  0.5351830000000  0.3192020000000  0.4502330000000 1.0
C      1  0.6389780000000  0.6208680000000  0.4502210000000 1.0
C      1  0.6843980000000  0.3888740000000  0.4139260000000 1.0
C      1  0.5040330000000  0.7152570000000  0.4139280000000 1.0
C      1  0.3115590000000  0.3958680000000  0.4139420000000 1.0
C      1  0.5004950000000  0.6895810000000  0.5044090000000 1.0
C      1  0.3355690000000  0.4056390000000  0.5044210000000 1.0
C      1  0.6639340000000  0.4047810000000  0.5044070000000 1.0
C      1  0.2912540000000  0.4587710000000  0.5729090000000 1.0
C      1  0.6400830000000  0.3398360000000  0.5728960000000 1.0
C      1  0.5686710000000  0.7013970000000  0.5728920000000 1.0
C      1  0.6423570000000  0.6399110000000  0.3531950000000 1.0
C      1  0.3076420000000  0.5533330000000  0.3532100000000 1.0
C      1  0.5499820000000  0.3067490000000  0.3532060000000 1.0
C      1  0.3066670000000  0.5521200000000  0.5486260000000 1.0
C      1  0.5515320000000  0.3065080000000  0.5486200000000 1.0
C      1  0.6418050000000  0.6413720000000  0.5486090000000 1.0
C      1  0.6874790000000  0.5889530000000  0.6038440000000 1.0
C      1  0.3292320000000  0.6178830000000  0.6038610000000 1.0
C      1  0.4833030000000  0.2931670000000  0.6038610000000 1.0
C      1  0.5244360000000  0.5903170000000  0.6921930000000 1.0
C      1  0.4095810000000  0.4760020000000  0.6922010000000 1.0
C      1  0.5660080000000  0.4336920000000  0.6921940000000 1.0
C      1  0.3659410000000  0.3657650000000  0.3496320000000 1.0
C      1  0.6832740000000  0.4510210000000  0.3496160000000 1.0
C      1  0.4507690000000  0.6832100000000  0.3496220000000 1.0
C      1  0.3758660000000  0.5540850000000  0.2831530000000 1.0
C      1  0.5152130000000  0.3654570000000  0.2831520000000 1.0
C      1  0.6088950000000  0.5804460000000  0.2831430000000 1.0
C      1  0.4429520000000  0.7180730000000  0.6712150000000 1.0
C      1  0.3396810000000  0.3415570000000  0.6712260000000 1.0
C      1  0.7173910000000  0.4403780000000  0.6712080000000 1.0
C      1  0.6240070000000  0.3181620000000  0.4019330000000 1.0
C      1  0.5954650000000  0.6983130000000  0.4019250000000 1.0
C      1  0.2805130000000  0.4835220000000  0.4019420000000 1.0
C      1  0.4505900000000  0.6187600000000  0.2851710000000 1.0
C      1  0.4218410000000  0.3978340000000  0.2851770000000 1.0
C      1  0.6275440000000  0.4833970000000  0.2851660000000 1.0
C      1  0.4257410000000  0.4471630000000  0.5103060000000 1.0
C      1  0.5828860000000  0.4621090000000  0.5102990000000 1.0
C      1  0.4913710000000  0.5907270000000  0.5103000000000 1.0
C      1  0.5081580000000  0.4093530000000  0.4753270000000 1.0
C      1  0.5744190000000  0.5523890000000  0.4753200000000 1.0
C      1  0.4174160000000  0.5382550000000  0.4753270000000 1.0
C      1  0.5033210000000  0.5563060000000  0.6005070000000 1.0
C      1  0.4495840000000  0.4747220000000  0.6005110000000 1.0
C      1  0.5471060000000  0.4689760000000  0.6005070000000 1.0
C      1  0.4324950000000  0.5691870000000  0.7138570000000 1.0
C      1  0.4738520000000  0.4069430000000  0.7138590000000 1.0
C      1  0.5936820000000  0.5238810000000  0.7138500000000 1.0
END
