TITL C-2159255-4746-1304 -0.00199784190174061 3375 -421.855704264139 0 0 60 (C2) n - 1
REM
REM in /scratch/bkarasulu/871
REM
REM
REM
REM
REM
REM ./C.cell (a2850807a9bf4ad07a5b6933b78d9264)
REM AIRSS Version 0.9.1 bugfix July 2018 build 013d7b7c2542+ Fri, 06 Jul 2018 19:26:36 +0100
REM compiler GCC version 9.2.1 20190827 (Red Hat 9.2.1-1)
REM options -cpp -mtune=generic -march=x86-64 -g -O0 -fpre-include=/usr/include/finclude/math-vector-fortran.h
REM seed -222693282 -1533372240 1535636375 1744889565 1272845738 -2136226192 727762453 -1003647884 1986948015 -499606071 -807363783 -369357662 442832652 -1342199709 236243271 -1444672637 498145955 1122092710 249319143 509549111 -57794621 -1343076540 60076960 -1649134783 1139406010 1523125140 1340047995 -1887540653 -1544145294 -1089850231 -1891023471 600658276 -2045972224
REM
CELL 1.54180   15.00000   15.00000   15.00000   90.00000   90.00000   90.00000
LATT -1
SFAC C  
C      1  0.6829140000000  0.3798800000000  0.5036590000000 1.0
C      1  0.6816620000000  0.6219080000000  0.4951820000000 1.0
C      1  0.3170880000000  0.3798820000000  0.4963400000000 1.0
C      1  0.3183340000000  0.6219100000000  0.5048210000000 1.0
C      1  0.3670400000000  0.3931410000000  0.6592810000000 1.0
C      1  0.3622780000000  0.6021080000000  0.3294060000000 1.0
C      1  0.6329620000000  0.3931410000000  0.3407170000000 1.0
C      1  0.6377210000000  0.6021060000000  0.6705930000000 1.0
C      1  0.3488140000000  0.3045870000000  0.6305890000000 1.0
C      1  0.3602480000000  0.6847460000000  0.3700280000000 1.0
C      1  0.6511860000000  0.3045890000000  0.3694090000000 1.0
C      1  0.6397550000000  0.6847470000000  0.6299750000000 1.0
C      1  0.3435750000000  0.5593560000000  0.6576190000000 1.0
C      1  0.3415240000000  0.4395700000000  0.3426820000000 1.0
C      1  0.6564250000000  0.5593570000000  0.3423810000000 1.0
C      1  0.6584760000000  0.4395670000000  0.6573180000000 1.0
C      1  0.3783740000000  0.3214550000000  0.5465930000000 1.0
C      1  0.3788730000000  0.6816600000000  0.4574170000000 1.0
C      1  0.6216270000000  0.3214530000000  0.4534060000000 1.0
C      1  0.6211230000000  0.6816560000000  0.5425870000000 1.0
C      1  0.4468130000000  0.6104420000000  0.2861400000000 1.0
C      1  0.4499200000000  0.3894410000000  0.7088010000000 1.0
C      1  0.5531860000000  0.6104390000000  0.7138600000000 1.0
C      1  0.5500810000000  0.3894450000000  0.2911980000000 1.0
C      1  0.6551220000000  0.6292770000000  0.4063060000000 1.0
C      1  0.6570530000000  0.3710300000000  0.5915940000000 1.0
C      1  0.3448750000000  0.6292780000000  0.5936970000000 1.0
C      1  0.3429490000000  0.3710330000000  0.4084060000000 1.0
C      1  0.5043010000000  0.5448420000000  0.2449090000000 1.0
C      1  0.5088520000000  0.4541220000000  0.7535870000000 1.0
C      1  0.4956990000000  0.5448370000000  0.7550880000000 1.0
C      1  0.4911500000000  0.4541270000000  0.2464140000000 1.0
C      1  0.4145580000000  0.5840040000000  0.7176520000000 1.0
C      1  0.4117500000000  0.4158460000000  0.2837110000000 1.0
C      1  0.5854420000000  0.5840060000000  0.2823480000000 1.0
C      1  0.5882520000000  0.4158410000000  0.7162910000000 1.0
C      1  0.4585720000000  0.4975920000000  0.5211630000000 1.0
C      1  0.4662330000000  0.5070560000000  0.4297560000000 1.0
C      1  0.5414300000000  0.4975700000000  0.4788310000000 1.0
C      1  0.5337720000000  0.5070600000000  0.5702370000000 1.0
C      1  0.6787140000000  0.4729700000000  0.3770330000000 1.0
C      1  0.6800390000000  0.5261950000000  0.6248800000000 1.0
C      1  0.3212860000000  0.4729690000000  0.6229670000000 1.0
C      1  0.3199590000000  0.5261970000000  0.3751210000000 1.0
C      1  0.5294950000000  0.6562490000000  0.3197220000000 1.0
C      1  0.5318000000000  0.3450240000000  0.6760880000000 1.0
C      1  0.4705040000000  0.6562480000000  0.6802800000000 1.0
C      1  0.4682010000000  0.3450280000000  0.3239100000000 1.0
C      1  0.2924410000000  0.4647450000000  0.5318740000000 1.0
C      1  0.2929340000000  0.5376860000000  0.4671620000000 1.0
C      1  0.7075590000000  0.4647450000000  0.4681260000000 1.0
C      1  0.7070640000000  0.5376840000000  0.5328390000000 1.0
C      1  0.4248210000000  0.6825970000000  0.6018950000000 1.0
C      1  0.4232750000000  0.3195040000000  0.4025760000000 1.0
C      1  0.5751760000000  0.6825940000000  0.3981090000000 1.0
C      1  0.5767270000000  0.3195000000000  0.5974240000000 1.0
C      1  0.4535070000000  0.2930370000000  0.4881900000000 1.0
C      1  0.4539880000000  0.7099440000000  0.5147270000000 1.0
C      1  0.5464940000000  0.2930350000000  0.5118090000000 1.0
C      1  0.5460090000000  0.7099420000000  0.4852770000000 1.0
END
