TITL C-2158988-7926-329 -0.00441839638655073 3375 -407.912381271958 0 0 60 (C2) n - 1
REM
REM in /scratch/bkarasulu/868
REM
REM
REM
REM
REM
REM ./C.cell (a2850807a9bf4ad07a5b6933b78d9264)
REM AIRSS Version 0.9.1 bugfix July 2018 build 013d7b7c2542+ Fri, 06 Jul 2018 19:26:36 +0100
REM compiler GCC version 9.2.1 20190827 (Red Hat 9.2.1-1)
REM options -cpp -mtune=generic -march=x86-64 -g -O0 -fpre-include=/usr/include/finclude/math-vector-fortran.h
REM seed 2072487128 1397933733 1789502999 -943385641 -1741431268 -2134740678 886021091 1351350804 1292710135 -1286878589 1029678873 -1899763428 -1769038106 -600245508 -2100999486 1023869871 -178583681 -1631856786 -63342465 1110526027 -199142713 -2557844 -45342165 -1015464398 530939157 -1948599582 -1769739979 -708104668 1734612688 -781615623 1571065893 1798268065 1036797593
REM
CELL 1.54180   15.00000   15.00000   15.00000   90.00000   90.00000   90.00000
LATT -1
SFAC C  
C      1  0.7444350000000  0.5256370000000  0.7269320000000 1.0
C      1  0.7430280000000  0.6888680000000  0.3621520000000 1.0
C      1  0.7526330000000  0.2616710000000  0.4301770000000 1.0
C      1  0.2481830000000  0.5597240000000  0.7386330000000 1.0
C      1  0.2542200000000  0.6854870000000  0.3620780000000 1.0
C      1  0.2507330000000  0.2586630000000  0.4306110000000 1.0
C      1  0.7518150000000  0.4402750000000  0.7386350000000 1.0
C      1  0.7457810000000  0.3145140000000  0.3620790000000 1.0
C      1  0.7492680000000  0.7413380000000  0.4306140000000 1.0
C      1  0.2555630000000  0.4743630000000  0.7269300000000 1.0
C      1  0.2569730000000  0.3111330000000  0.3621490000000 1.0
C      1  0.2473680000000  0.7383290000000  0.4301770000000 1.0
C      1  0.2432720000000  0.4519160000000  0.4150590000000 1.0
C      1  0.2449140000000  0.4504930000000  0.5783970000000 1.0
C      1  0.2444070000000  0.5931070000000  0.4993850000000 1.0
C      1  0.7570850000000  0.4551970000000  0.4154180000000 1.0
C      1  0.7550830000000  0.4528420000000  0.5783710000000 1.0
C      1  0.7556190000000  0.5963720000000  0.4990440000000 1.0
C      1  0.2429160000000  0.5448030000000  0.4154170000000 1.0
C      1  0.2449170000000  0.5471570000000  0.5783700000000 1.0
C      1  0.2443810000000  0.4036280000000  0.4990420000000 1.0
C      1  0.7567290000000  0.5480840000000  0.4150610000000 1.0
C      1  0.7550850000000  0.5495070000000  0.5783990000000 1.0
C      1  0.7555930000000  0.4068930000000  0.4993860000000 1.0
C      1  0.2933100000000  0.3202440000000  0.4868400000000 1.0
C      1  0.2917180000000  0.5784130000000  0.6576410000000 1.0
C      1  0.2892370000000  0.6004260000000  0.3490760000000 1.0
C      1  0.7088640000000  0.3224270000000  0.4866840000000 1.0
C      1  0.7091790000000  0.5793510000000  0.6596450000000 1.0
C      1  0.7094370000000  0.6032950000000  0.3488460000000 1.0
C      1  0.2911360000000  0.6775730000000  0.4866840000000 1.0
C      1  0.2908200000000  0.4206490000000  0.6596440000000 1.0
C      1  0.2905640000000  0.3967050000000  0.3488440000000 1.0
C      1  0.7066900000000  0.6797560000000  0.4868430000000 1.0
C      1  0.7082810000000  0.4215860000000  0.6576420000000 1.0
C      1  0.7107650000000  0.3995750000000  0.3490770000000 1.0
C      1  0.4519380000000  0.4510190000000  0.3582610000000 1.0
C      1  0.4524920000000  0.4028340000000  0.6096250000000 1.0
C      1  0.4503170000000  0.6457110000000  0.5255690000000 1.0
C      1  0.5486040000000  0.4515400000000  0.3583270000000 1.0
C      1  0.5495660000000  0.4027820000000  0.6099140000000 1.0
C      1  0.5475360000000  0.6457690000000  0.5254470000000 1.0
C      1  0.4513970000000  0.5484600000000  0.3583270000000 1.0
C      1  0.4504330000000  0.5972180000000  0.6099140000000 1.0
C      1  0.4524640000000  0.3542300000000  0.5254460000000 1.0
C      1  0.5480630000000  0.5489820000000  0.3582610000000 1.0
C      1  0.5475070000000  0.5971650000000  0.6096260000000 1.0
C      1  0.5496830000000  0.3542890000000  0.5255690000000 1.0
C      1  0.6152060000000  0.5494660000000  0.6521380000000 1.0
C      1  0.6152960000000  0.6101970000000  0.3784440000000 1.0
C      1  0.6165880000000  0.3410950000000  0.4629260000000 1.0
C      1  0.3840560000000  0.5490310000000  0.6528860000000 1.0
C      1  0.3833540000000  0.6088290000000  0.3783570000000 1.0
C      1  0.3853810000000  0.3402120000000  0.4631120000000 1.0
C      1  0.6159420000000  0.4509690000000  0.6528870000000 1.0
C      1  0.6166470000000  0.3911720000000  0.3783580000000 1.0
C      1  0.6146190000000  0.6597880000000  0.4631140000000 1.0
C      1  0.3847930000000  0.4505340000000  0.6521370000000 1.0
C      1  0.3847050000000  0.3898040000000  0.3784430000000 1.0
C      1  0.3834120000000  0.6589050000000  0.4629260000000 1.0
END
