TITL C-2159255-4746-713 -0.00183444952423074 3375 -404.887108246606 0 0 60 (C1) n - 1
REM
REM in /scratch/bkarasulu/871
REM
REM
REM
REM
REM
REM ./C.cell (a2850807a9bf4ad07a5b6933b78d9264)
REM AIRSS Version 0.9.1 bugfix July 2018 build 013d7b7c2542+ Fri, 06 Jul 2018 19:26:36 +0100
REM compiler GCC version 9.2.1 20190827 (Red Hat 9.2.1-1)
REM options -cpp -mtune=generic -march=x86-64 -g -O0 -fpre-include=/usr/include/finclude/math-vector-fortran.h
REM seed -675191908 1142335819 -1220930333 -542123166 -1308400747 674723336 -383103211 -1194038635 2081027814 511392355 -1526774566 43872600 -866605301 513751479 6577620 -1174946016 -1342833606 312338257 -176927292 -570358323 -2041907687 572901751 -1770148579 -1762273624 -324965337 1670678025 602658829 -1084023096 -786819505 377342029 -766682389 856750500 291942982
REM
CELL 1.54180   15.00000   15.00000   15.00000   90.00000   90.00000   90.00000
LATT -1
SFAC C  
C      1  0.7280200000000  0.5854850000000  0.4707220000000 1.0
C      1  0.5358100000000  0.3343670000000  0.3619030000000 1.0
C      1  0.6574190000000  0.5642460000000  0.6877290000000 1.0
C      1  0.6055740000000  0.7126030000000  0.5323790000000 1.0
C      1  0.6555740000000  0.4094560000000  0.6622300000000 1.0
C      1  0.3746960000000  0.4969370000000  0.6361690000000 1.0
C      1  0.4373620000000  0.6338840000000  0.3287410000000 1.0
C      1  0.2464140000000  0.5939790000000  0.5834990000000 1.0
C      1  0.4020950000000  0.2841910000000  0.4670320000000 1.0
C      1  0.4321550000000  0.3509450000000  0.6129420000000 1.0
C      1  0.4520110000000  0.7225020000000  0.5042670000000 1.0
C      1  0.5998750000000  0.3093100000000  0.5403060000000 1.0
C      1  0.6995390000000  0.4539140000000  0.5924520000000 1.0
C      1  0.5275980000000  0.2574830000000  0.5102550000000 1.0
C      1  0.6163100000000  0.4789580000000  0.7132190000000 1.0
C      1  0.5584900000000  0.6982690000000  0.6144050000000 1.0
C      1  0.6249340000000  0.3605780000000  0.3979010000000 1.0
C      1  0.3267920000000  0.3702000000000  0.3706210000000 1.0
C      1  0.5508220000000  0.5028880000000  0.3096770000000 1.0
C      1  0.3569030000000  0.5812850000000  0.3480950000000 1.0
C      1  0.6671200000000  0.3135490000000  0.4692640000000 1.0
C      1  0.5225290000000  0.5915420000000  0.3622120000000 1.0
C      1  0.4169770000000  0.5526760000000  0.4879180000000 1.0
C      1  0.6965770000000  0.4963280000000  0.4357520000000 1.0
C      1  0.3723840000000  0.4197960000000  0.5808050000000 1.0
C      1  0.3854290000000  0.6996880000000  0.4418140000000 1.0
C      1  0.3376590000000  0.4958240000000  0.3227890000000 1.0
C      1  0.4445570000000  0.2792950000000  0.5538140000000 1.0
C      1  0.5400720000000  0.7283950000000  0.4628970000000 1.0
C      1  0.5486050000000  0.5675280000000  0.6162470000000 1.0
C      1  0.7650710000000  0.5854720000000  0.5539180000000 1.0
C      1  0.2749790000000  0.4519150000000  0.3803710000000 1.0
C      1  0.2635480000000  0.4734940000000  0.4708580000000 1.0
C      1  0.4879660000000  0.2797640000000  0.4225740000000 1.0
C      1  0.3450980000000  0.6068890000000  0.4450730000000 1.0
C      1  0.5969120000000  0.6333060000000  0.6712090000000 1.0
C      1  0.5215590000000  0.4658070000000  0.7004530000000 1.0
C      1  0.4122630000000  0.6267350000000  0.6428290000000 1.0
C      1  0.6433340000000  0.4721330000000  0.5139730000000 1.0
C      1  0.2672820000000  0.5653840000000  0.4985060000000 1.0
C      1  0.4985720000000  0.4440490000000  0.4474790000000 1.0
C      1  0.4149830000000  0.7185450000000  0.3553670000000 1.0
C      1  0.5091240000000  0.3776170000000  0.6611680000000 1.0
C      1  0.5942840000000  0.3436340000000  0.6341560000000 1.0
C      1  0.4902210000000  0.4215810000000  0.3457080000000 1.0
C      1  0.6404210000000  0.6348870000000  0.4820190000000 1.0
C      1  0.5833740000000  0.5554520000000  0.5232030000000 1.0
C      1  0.6619250000000  0.4475180000000  0.3612950000000 1.0
C      1  0.4091010000000  0.4577900000000  0.4860100000000 1.0
C      1  0.5086420000000  0.5459500000000  0.4567200000000 1.0
C      1  0.4623300000000  0.6952390000000  0.5958330000000 1.0
C      1  0.3953870000000  0.4157180000000  0.3203430000000 1.0
C      1  0.4632430000000  0.5376210000000  0.6616030000000 1.0
C      1  0.7251270000000  0.5417690000000  0.6216570000000 1.0
C      1  0.6344840000000  0.4824940000000  0.2782220000000 1.0
C      1  0.3241920000000  0.3301770000000  0.4550040000000 1.0
C      1  0.5786300000000  0.6620970000000  0.4059950000000 1.0
C      1  0.5812210000000  0.4034780000000  0.4878400000000 1.0
C      1  0.3299330000000  0.5794320000000  0.6212620000000 1.0
C      1  0.2964920000000  0.3979550000000  0.5212950000000 1.0
END
