TITL C-2158984-8299-293 -0.00553704743093834 3375 -417.733872083831 0 0 60 (C1) n - 1
REM
REM in /scratch/bkarasulu/869
REM
REM
REM
REM
REM
REM ./C.cell (a2850807a9bf4ad07a5b6933b78d9264)
REM AIRSS Version 0.9.1 bugfix July 2018 build 013d7b7c2542+ Fri, 06 Jul 2018 19:26:36 +0100
REM compiler GCC version 9.2.1 20190827 (Red Hat 9.2.1-1)
REM options -cpp -mtune=generic -march=x86-64 -g -O0 -fpre-include=/usr/include/finclude/math-vector-fortran.h
REM seed -333865434 -2005146450 1106117722 1455856183 1289934302 2014122195 -1268337069 1598680945 -671406067 -1283047860 1792983989 443184362 -1335631452 1405173411 433052147 -1791941002 -2019874605 219084374 -1331674767 -882182479 276619582 -1224529683 1148998302 175418171 739134504 209880743 -980197859 -647057472 -368885954 -2051019943 1691513237 -425300736 1739320292
REM
CELL 1.54180   15.00000   15.00000   15.00000   90.00000   90.00000   90.00000
LATT -1
SFAC C  
C      1  0.4792270000000  0.2267890000000  0.4502220000000 1.0
C      1  0.6325240000000  0.2733400000000  0.4716700000000 1.0
C      1  0.7416970000000  0.3924690000000  0.4669760000000 1.0
C      1  0.7677480000000  0.5490270000000  0.4427610000000 1.0
C      1  0.7262990000000  0.6954380000000  0.3991020000000 1.0
C      1  0.5861530000000  0.7661210000000  0.4217820000000 1.0
C      1  0.4256310000000  0.7662580000000  0.4321300000000 1.0
C      1  0.2904060000000  0.6789780000000  0.4351820000000 1.0
C      1  0.2276550000000  0.5317620000000  0.4333250000000 1.0
C      1  0.2432690000000  0.3727950000000  0.4203640000000 1.0
C      1  0.3294410000000  0.2408350000000  0.4004640000000 1.0
C      1  0.7377090000000  0.6578500000000  0.5599250000000 1.0
C      1  0.6755220000000  0.7310410000000  0.5527050000000 1.0
C      1  0.5148160000000  0.7794820000000  0.5647590000000 1.0
C      1  0.3538150000000  0.7348800000000  0.5727890000000 1.0
C      1  0.2469640000000  0.6070040000000  0.5734720000000 1.0
C      1  0.2142340000000  0.4414200000000  0.5627580000000 1.0
C      1  0.2794890000000  0.2867550000000  0.5518530000000 1.0
C      1  0.3659300000000  0.2461830000000  0.5608630000000 1.0
C      1  0.5240960000000  0.3030950000000  0.5879960000000 1.0
C      1  0.6719210000000  0.3544270000000  0.6099210000000 1.0
C      1  0.7549650000000  0.4932640000000  0.5897630000000 1.0
C      1  0.6810650000000  0.3368550000000  0.4242610000000 1.0
C      1  0.7418840000000  0.4662680000000  0.4118770000000 1.0
C      1  0.7325590000000  0.6059140000000  0.3791300000000 1.0
C      1  0.6419930000000  0.7145400000000  0.3685130000000 1.0
C      1  0.5033300000000  0.7484210000000  0.3859150000000 1.0
C      1  0.3656230000000  0.7088240000000  0.3911140000000 1.0
C      1  0.2727900000000  0.5997930000000  0.3907970000000 1.0
C      1  0.2539290000000  0.4573520000000  0.3864250000000 1.0
C      1  0.2997190000000  0.3216170000000  0.3667670000000 1.0
C      1  0.4192160000000  0.2459600000000  0.3813790000000 1.0
C      1  0.5587910000000  0.2599670000000  0.4166140000000 1.0
C      1  0.4581390000000  0.2532700000000  0.5425900000000 1.0
C      1  0.6168860000000  0.2914560000000  0.5645090000000 1.0
C      1  0.7364590000000  0.4067310000000  0.5640970000000 1.0
C      1  0.7617220000000  0.5682750000000  0.5388050000000 1.0
C      1  0.7433120000000  0.7191210000000  0.4907060000000 1.0
C      1  0.5935900000000  0.7667850000000  0.5203750000000 1.0
C      1  0.4288390000000  0.7691660000000  0.5307780000000 1.0
C      1  0.2904510000000  0.6790170000000  0.5342660000000 1.0
C      1  0.2225510000000  0.5284400000000  0.5304140000000 1.0
C      1  0.2369320000000  0.3649990000000  0.5176970000000 1.0
C      1  0.3074800000000  0.2215080000000  0.4921650000000 1.0
C      1  0.5010010000000  0.6653800000000  0.3312290000000 1.0
C      1  0.4091930000000  0.6391270000000  0.3331380000000 1.0
C      1  0.3471400000000  0.5657950000000  0.3327840000000 1.0
C      1  0.3337300000000  0.4698620000000  0.3299530000000 1.0
C      1  0.3703740000000  0.3806380000000  0.3225030000000 1.0
C      1  0.4500670000000  0.3283460000000  0.3313810000000 1.0
C      1  0.5448710000000  0.3305980000000  0.3498360000000 1.0
C      1  0.6249950000000  0.3836470000000  0.3554770000000 1.0
C      1  0.6653020000000  0.4703630000000  0.3474120000000 1.0
C      1  0.6541820000000  0.5643280000000  0.3314300000000 1.0
C      1  0.5923490000000  0.6376340000000  0.3253560000000 1.0
C      1  0.5238050000000  0.3976710000000  0.6180570000000 1.0
C      1  0.4992550000000  0.5250170000000  0.4975440000000 1.0
C      1  0.6163030000000  0.4060310000000  0.7587550000000 1.0
C      1  0.5116030000000  0.4672430000000  0.5588720000000 1.0
C      1  0.6114700000000  0.3994330000000  0.6722800000000 1.0
END
