TITL C-2158984-8299-740 -0.0021545304505395 3375 -396.54698608854 0 0 60 (C2h) n - 1
REM
REM in /scratch/bkarasulu/869
REM
REM
REM
REM
REM
REM ./C.cell (a2850807a9bf4ad07a5b6933b78d9264)
REM AIRSS Version 0.9.1 bugfix July 2018 build 013d7b7c2542+ Fri, 06 Jul 2018 19:26:36 +0100
REM compiler GCC version 9.2.1 20190827 (Red Hat 9.2.1-1)
REM options -cpp -mtune=generic -march=x86-64 -g -O0 -fpre-include=/usr/include/finclude/math-vector-fortran.h
REM seed -756997205 -296933860 -1498564555 -1976533247 -420093904 -2123232132 192651724 -883620793 198741590 -461456392 -920171 -230162268 1846467696 -1609589081 660293632 -1304559348 -2076296952 -784418671 539390424 1927798350 -843148928 852357874 -664776900 -338832672 -507211752 51486265 -1493909311 921900186 461720088 2137726061 131434375 -359638107 -2001230801
REM
CELL 1.54180   15.00000   15.00000   15.00000   90.00000   90.00000   90.00000
LATT -1
SFAC C  
C      1  0.4525080000000  0.4430440000000  0.4074830000000 1.0
C      1  0.4525080000000  0.5569560000000  0.5925170000000 1.0
C      1  0.5474920000000  0.4430440000000  0.4074830000000 1.0
C      1  0.5474920000000  0.5569560000000  0.5925170000000 1.0
C      1  0.4036760000000  0.3498810000000  0.6924990000000 1.0
C      1  0.4036760000000  0.6501190000000  0.3075010000000 1.0
C      1  0.5963240000000  0.3498810000000  0.6924990000000 1.0
C      1  0.5963240000000  0.6501190000000  0.3075010000000 1.0
C      1  0.4525220000000  0.6713190000000  0.6834700000000 1.0
C      1  0.4525220000000  0.3286810000000  0.3165300000000 1.0
C      1  0.5474780000000  0.6713190000000  0.6834700000000 1.0
C      1  0.5474780000000  0.3286810000000  0.3165300000000 1.0
C      1  0.6956330000000  0.4593220000000  0.5282720000000 1.0
C      1  0.6956330000000  0.5406780000000  0.4717280000000 1.0
C      1  0.3043670000000  0.4593220000000  0.5282720000000 1.0
C      1  0.3043670000000  0.5406780000000  0.4717280000000 1.0
C      1  0.4528530000000  0.4614060000000  0.6046900000000 1.0
C      1  0.4528530000000  0.5385940000000  0.3953100000000 1.0
C      1  0.5471470000000  0.4614060000000  0.6046900000000 1.0
C      1  0.5471470000000  0.5385940000000  0.3953100000000 1.0
C      1  0.4513590000000  0.6952920000000  0.3741330000000 1.0
C      1  0.4513590000000  0.3047080000000  0.6258670000000 1.0
C      1  0.5486410000000  0.6952920000000  0.3741330000000 1.0
C      1  0.5486410000000  0.3047080000000  0.6258670000000 1.0
C      1  0.7097040000000  0.5180580000000  0.3849600000000 1.0
C      1  0.7097040000000  0.4819420000000  0.6150400000000 1.0
C      1  0.2902960000000  0.5180580000000  0.3849600000000 1.0
C      1  0.2902960000000  0.4819420000000  0.6150400000000 1.0
C      1  0.4091250000000  0.7206210000000  0.6131660000000 1.0
C      1  0.4091250000000  0.2793790000000  0.3868340000000 1.0
C      1  0.5908750000000  0.7206210000000  0.6131660000000 1.0
C      1  0.5908750000000  0.2793790000000  0.3868340000000 1.0
C      1  0.5984060000000  0.4380800000000  0.6841120000000 1.0
C      1  0.5984060000000  0.5619200000000  0.3158880000000 1.0
C      1  0.4015940000000  0.4380800000000  0.6841120000000 1.0
C      1  0.4015940000000  0.5619200000000  0.3158880000000 1.0
C      1  0.6567090000000  0.3466270000000  0.4061150000000 1.0
C      1  0.6567090000000  0.6533730000000  0.5938850000000 1.0
C      1  0.3432910000000  0.3466270000000  0.4061150000000 1.0
C      1  0.3432910000000  0.6533730000000  0.5938850000000 1.0
C      1  0.5919460000000  0.3104770000000  0.5382050000000 1.0
C      1  0.5919460000000  0.6895230000000  0.4617950000000 1.0
C      1  0.4080540000000  0.3104770000000  0.5382050000000 1.0
C      1  0.4080540000000  0.6895230000000  0.4617950000000 1.0
C      1  0.5477130000000  0.7370180000000  0.5323230000000 1.0
C      1  0.5477130000000  0.2629820000000  0.4676770000000 1.0
C      1  0.4522870000000  0.7370180000000  0.5323230000000 1.0
C      1  0.4522870000000  0.2629820000000  0.4676770000000 1.0
C      1  0.3399310000000  0.5130450000000  0.6858540000000 1.0
C      1  0.3399310000000  0.4869550000000  0.3141460000000 1.0
C      1  0.6600690000000  0.5130450000000  0.6858540000000 1.0
C      1  0.6600690000000  0.4869550000000  0.3141460000000 1.0
C      1  0.6110770000000  0.5940680000000  0.6607490000000 1.0
C      1  0.6110770000000  0.4059320000000  0.3392510000000 1.0
C      1  0.3889230000000  0.5940680000000  0.6607490000000 1.0
C      1  0.3889230000000  0.4059320000000  0.3392510000000 1.0
C      1  0.6586410000000  0.6292550000000  0.5014140000000 1.0
C      1  0.6586410000000  0.3707450000000  0.4985860000000 1.0
C      1  0.3413590000000  0.6292550000000  0.5014140000000 1.0
C      1  0.3413590000000  0.3707450000000  0.4985860000000 1.0
END
