TITL C-2159255-4746-42 -0.00203148091511061 3375 -413.588372312111 0 0 60 (C1) n - 1
REM
REM in /scratch/bkarasulu/871
REM
REM
REM
REM
REM
REM ./C.cell (a2850807a9bf4ad07a5b6933b78d9264)
REM AIRSS Version 0.9.1 bugfix July 2018 build 013d7b7c2542+ Fri, 06 Jul 2018 19:26:36 +0100
REM compiler GCC version 9.2.1 20190827 (Red Hat 9.2.1-1)
REM options -cpp -mtune=generic -march=x86-64 -g -O0 -fpre-include=/usr/include/finclude/math-vector-fortran.h
REM seed -472729403 -341187567 1318751000 -564640271 23523471 -506412933 26025283 -630951112 -1028439264 -24700200 -1793972081 -2104408912 403371455 784509140 -1310446243 1519015025 829829944 -88675767 -1597632587 872683616 909643329 -2121015021 -1187835809 2080591642 -1897998902 177975486 211335457 -1394499208 -13257103 234540707 -20834088 1228922690 -1627908893
REM
CELL 1.54180   15.00000   15.00000   15.00000   90.00000   90.00000   90.00000
LATT -1
SFAC C  
C      1  0.3248790000000  0.3417440000000  0.4994200000000 1.0
C      1  0.4286840000000  0.5739960000000  0.3219560000000 1.0
C      1  0.3435040000000  0.4250570000000  0.6386010000000 1.0
C      1  0.3075460000000  0.5597080000000  0.5696440000000 1.0
C      1  0.2923540000000  0.4011360000000  0.5646140000000 1.0
C      1  0.7046390000000  0.4927190000000  0.5099530000000 1.0
C      1  0.6298810000000  0.4184460000000  0.6553440000000 1.0
C      1  0.6625790000000  0.6066570000000  0.6330620000000 1.0
C      1  0.6407470000000  0.6684830000000  0.5127970000000 1.0
C      1  0.4479480000000  0.6202320000000  0.7267480000000 1.0
C      1  0.6672070000000  0.5943370000000  0.3480400000000 1.0
C      1  0.4197590000000  0.5339140000000  0.7069880000000 1.0
C      1  0.3454130000000  0.5186870000000  0.6484730000000 1.0
C      1  0.6182720000000  0.3245900000000  0.6335200000000 1.0
C      1  0.2657640000000  0.4833450000000  0.5243600000000 1.0
C      1  0.5555470000000  0.2779860000000  0.5010580000000 1.0
C      1  0.6220590000000  0.6904100000000  0.6029130000000 1.0
C      1  0.3394310000000  0.5982490000000  0.3363970000000 1.0
C      1  0.5745070000000  0.6946150000000  0.4500730000000 1.0
C      1  0.6820060000000  0.3364260000000  0.5570550000000 1.0
C      1  0.7039690000000  0.4518110000000  0.4214050000000 1.0
C      1  0.4492980000000  0.3112500000000  0.6105550000000 1.0
C      1  0.5153290000000  0.5684360000000  0.5669170000000 1.0
C      1  0.4799400000000  0.4601450000000  0.7012150000000 1.0
C      1  0.4245700000000  0.4649140000000  0.4940350000000 1.0
C      1  0.6319150000000  0.4616600000000  0.2846720000000 1.0
C      1  0.5390850000000  0.6383150000000  0.7143170000000 1.0
C      1  0.2708730000000  0.4686650000000  0.4310830000000 1.0
C      1  0.4746620000000  0.5027630000000  0.2731210000000 1.0
C      1  0.6132360000000  0.3750140000000  0.3166990000000 1.0
C      1  0.5652770000000  0.5245260000000  0.2596940000000 1.0
C      1  0.6918560000000  0.4293440000000  0.5789340000000 1.0
C      1  0.4685080000000  0.3992360000000  0.4302740000000 1.0
C      1  0.4034710000000  0.2980270000000  0.5251060000000 1.0
C      1  0.4555000000000  0.4026150000000  0.2858870000000 1.0
C      1  0.5996440000000  0.6118830000000  0.2849560000000 1.0
C      1  0.3957940000000  0.6873610000000  0.6855970000000 1.0
C      1  0.2755570000000  0.5502280000000  0.3862820000000 1.0
C      1  0.4484830000000  0.7186700000000  0.6165270000000 1.0
C      1  0.6033190000000  0.5714320000000  0.7003920000000 1.0
C      1  0.3174880000000  0.3843730000000  0.4117650000000 1.0
C      1  0.5423270000000  0.4714540000000  0.4158370000000 1.0
C      1  0.5317260000000  0.3498990000000  0.2859710000000 1.0
C      1  0.6615640000000  0.3667090000000  0.4027390000000 1.0
C      1  0.3371060000000  0.6367000000000  0.5163570000000 1.0
C      1  0.5747910000000  0.4784850000000  0.7003420000000 1.0
C      1  0.5420730000000  0.7064030000000  0.6462460000000 1.0
C      1  0.6845510000000  0.5807460000000  0.5404480000000 1.0
C      1  0.3982280000000  0.3860520000000  0.3614960000000 1.0
C      1  0.6891990000000  0.5042250000000  0.3457840000000 1.0
C      1  0.5730340000000  0.6399480000000  0.3691360000000 1.0
C      1  0.4737950000000  0.3023800000000  0.4589030000000 1.0
C      1  0.6421500000000  0.3115250000000  0.4752840000000 1.0
C      1  0.4274350000000  0.3874980000000  0.6625730000000 1.0
C      1  0.4781630000000  0.6901790000000  0.4618310000000 1.0
C      1  0.3093670000000  0.6274980000000  0.4258910000000 1.0
C      1  0.4823740000000  0.6055980000000  0.4017830000000 1.0
C      1  0.4151290000000  0.6959720000000  0.5298130000000 1.0
C      1  0.4956090000000  0.5298480000000  0.4834250000000 1.0
C      1  0.5408760000000  0.2874780000000  0.5956930000000 1.0
END
