TITL C-2158988-7926-102 -0.0026339113582972 3375 -416.286211447834 0 0 60 (C5) n - 1
REM
REM in /scratch/bkarasulu/868
REM
REM
REM
REM
REM
REM ./C.cell (a2850807a9bf4ad07a5b6933b78d9264)
REM AIRSS Version 0.9.1 bugfix July 2018 build 013d7b7c2542+ Fri, 06 Jul 2018 19:26:36 +0100
REM compiler GCC version 9.2.1 20190827 (Red Hat 9.2.1-1)
REM options -cpp -mtune=generic -march=x86-64 -g -O0 -fpre-include=/usr/include/finclude/math-vector-fortran.h
REM seed 476115477 -1034007589 636514183 -115019842 1560845218 -748179966 -424645737 88343356 1329544048 1716596662 -1655585094 1993802666 -1558799498 1325240080 -349348117 -623529195 1626931470 -463310223 -2083462203 -783576061 -1218229672 -29398482 386306214 1418361430 686544250 67522367 -1003483630 707689929 1598680963 2009942919 1138371547 -1912137880 -853454428
REM
CELL 1.54180   15.00000   15.00000   15.00000   90.00000   90.00000   90.00000
LATT -1
SFAC C  
C      1  0.3340500000000  0.4228920000000  0.4713890000000 1.0
C      1  0.3340510000000  0.5033780000000  0.4178230000000 1.0
C      1  0.3340490000000  0.5791930000000  0.4778170000000 1.0
C      1  0.3340470000000  0.5455640000000  0.5684610000000 1.0
C      1  0.3340470000000  0.4489650000000  0.5644880000000 1.0
C      1  0.5175540000000  0.3187790000000  0.3518560000000 1.0
C      1  0.5175540000000  0.5848930000000  0.2818700000000 1.0
C      1  0.5175480000000  0.7336910000000  0.5133330000000 1.0
C      1  0.5175450000000  0.5595340000000  0.7263720000000 1.0
C      1  0.5175470000000  0.3031060000000  0.6265730000000 1.0
C      1  0.3772970000000  0.3442410000000  0.4401000000000 1.0
C      1  0.3772980000000  0.5088320000000  0.3333530000000 1.0
C      1  0.3772940000000  0.6612150000000  0.4569020000000 1.0
C      1  0.3772910000000  0.5908030000000  0.6400040000000 1.0
C      1  0.3772930000000  0.3949030000000  0.6296220000000 1.0
C      1  0.4491480000000  0.4174610000000  0.2155570000000 1.0
C      1  0.4491420000000  0.7450120000000  0.3336040000000 1.0
C      1  0.4491340000000  0.7339650000000  0.6815970000000 1.0
C      1  0.4491340000000  0.3995950000000  0.7786360000000 1.0
C      1  0.4491420000000  0.2039710000000  0.4906070000000 1.0
C      1  0.5728210000000  0.3574010000000  0.6764780000000 1.0
C      1  0.5728290000000  0.2880940000000  0.4189140000000 1.0
C      1  0.5728330000000  0.5116370000000  0.2734100000000 1.0
C      1  0.5728280000000  0.7190990000000  0.4410500000000 1.0
C      1  0.5728210000000  0.6237710000000  0.6901560000000 1.0
C      1  0.4095110000000  0.4239510000000  0.2982630000000 1.0
C      1  0.4095070000000  0.6683590000000  0.3653310000000 1.0
C      1  0.4095010000000  0.6801010000000  0.6185010000000 1.0
C      1  0.4095010000000  0.4429490000000  0.7079050000000 1.0
C      1  0.4095070000000  0.2846370000000  0.5099850000000 1.0
C      1  0.5337240000000  0.7036680000000  0.6638170000000 1.0
C      1  0.5337260000000  0.4071380000000  0.7443280000000 1.0
C      1  0.5337340000000  0.2389320000000  0.4871840000000 1.0
C      1  0.5337390000000  0.4315180000000  0.2477500000000 1.0
C      1  0.5337320000000  0.7187370000000  0.3569240000000 1.0
C      1  0.6462440000000  0.3538270000000  0.4443100000000 1.0
C      1  0.6462480000000  0.5077990000000  0.3437760000000 1.0
C      1  0.6462450000000  0.6509940000000  0.4591430000000 1.0
C      1  0.6462410000000  0.5855200000000  0.6309790000000 1.0
C      1  0.6462410000000  0.4018630000000  0.6218110000000 1.0
C      1  0.4269450000000  0.5872310000000  0.3148920000000 1.0
C      1  0.4269400000000  0.7030030000000  0.5257580000000 1.0
C      1  0.4269370000000  0.5382310000000  0.7010250000000 1.0
C      1  0.4269400000000  0.3206240000000  0.5984780000000 1.0
C      1  0.4269460000000  0.3509090000000  0.3598340000000 1.0
C      1  0.5066880000000  0.5655160000000  0.5472000000000 1.0
C      1  0.5066860000000  0.4753570000000  0.5768930000000 1.0
C      1  0.5066860000000  0.4192580000000  0.5003230000000 1.0
C      1  0.5066880000000  0.4747430000000  0.4233070000000 1.0
C      1  0.5066900000000  0.5651370000000  0.4522780000000 1.0
C      1  0.6476600000000  0.4915740000000  0.6571470000000 1.0
C      1  0.6476620000000  0.3479430000000  0.5405500000000 1.0
C      1  0.6476660000000  0.4144510000000  0.3679200000000 1.0
C      1  0.6476650000000  0.5991840000000  0.3778260000000 1.0
C      1  0.6476620000000  0.6468500000000  0.5565780000000 1.0
C      1  0.5783650000000  0.7147340000000  0.5820850000000 1.0
C      1  0.5783640000000  0.4882910000000  0.7295920000000 1.0
C      1  0.5783670000000  0.2780290000000  0.5598120000000 1.0
C      1  0.5783720000000  0.3745270000000  0.3073790000000 1.0
C      1  0.5783690000000  0.6444210000000  0.3211470000000 1.0
END
