TITL C-2158988-7926-438 -0.00283360307832758 3375 -416.342749685586 0 0 60 (D6d) n - 1
REM
REM in /scratch/bkarasulu/868
REM
REM
REM
REM
REM
REM ./C.cell (a2850807a9bf4ad07a5b6933b78d9264)
REM AIRSS Version 0.9.1 bugfix July 2018 build 013d7b7c2542+ Fri, 06 Jul 2018 19:26:36 +0100
REM compiler GCC version 9.2.1 20190827 (Red Hat 9.2.1-1)
REM options -cpp -mtune=generic -march=x86-64 -g -O0 -fpre-include=/usr/include/finclude/math-vector-fortran.h
REM seed -779707791 2109159197 -606785209 -1110657285 -1529701148 -1331982955 495737381 590320455 1311637695 -661392469 1342468817 -225194586 1981657863 1991959433 1710186695 2132700 -407676174 1068403118 -9011970 1635357081 -1777724584 371770803 -1137692136 -2051056185 581500835 1816200872 211345187 -1763612869 -539104675 -963408397 623111510 -978513242 779217902
REM
CELL 1.54180   15.00000   15.00000   15.00000   90.00000   90.00000   90.00000
LATT -1
SFAC C  
C      1  0.5439480000000  0.5836950000000  0.2382990000000 1.0
C      1  0.5799080000000  0.5505080000000  0.7617010000000 1.0
C      1  0.5944560000000  0.5037870000000  0.2382990000000 1.0
C      1  0.5836950000000  0.4560520000000  0.7617010000000 1.0
C      1  0.5505080000000  0.4200920000000  0.2382990000000 1.0
C      1  0.5037870000000  0.4055440000000  0.7617010000000 1.0
C      1  0.4560520000000  0.4163050000000  0.2382990000000 1.0
C      1  0.4200920000000  0.4494920000000  0.7617010000000 1.0
C      1  0.4055440000000  0.4962130000000  0.2382990000000 1.0
C      1  0.4163050000000  0.5439480000000  0.7617010000000 1.0
C      1  0.4494920000000  0.5799080000000  0.2382990000000 1.0
C      1  0.4962130000000  0.5944560000000  0.7617010000000 1.0
C      1  0.6774410000000  0.3554370000000  0.4527480000000 1.0
C      1  0.5813870000000  0.2860840000000  0.5472520000000 1.0
C      1  0.4635250000000  0.2740480000000  0.4527480000000 1.0
C      1  0.3554370000000  0.3225590000000  0.5472520000000 1.0
C      1  0.2860840000000  0.4186130000000  0.4527480000000 1.0
C      1  0.2740480000000  0.5364750000000  0.5472520000000 1.0
C      1  0.3225590000000  0.6445630000000  0.4527480000000 1.0
C      1  0.4186130000000  0.7139160000000  0.5472520000000 1.0
C      1  0.5364750000000  0.7259520000000  0.4527480000000 1.0
C      1  0.6445630000000  0.6774410000000  0.5472520000000 1.0
C      1  0.7139160000000  0.5813870000000  0.4527480000000 1.0
C      1  0.7259520000000  0.4635250000000  0.5472520000000 1.0
C      1  0.6922860000000  0.5077120000000  0.3955020000000 1.0
C      1  0.6703800000000  0.4105360000000  0.6044980000000 1.0
C      1  0.6028210000000  0.3373320000000  0.3955010000000 1.0
C      1  0.5077120000000  0.3077140000000  0.6044980000000 1.0
C      1  0.4105360000000  0.3296200000000  0.3955020000000 1.0
C      1  0.3373320000000  0.3971790000000  0.6044990000000 1.0
C      1  0.3077140000000  0.4922880000000  0.3955020000000 1.0
C      1  0.3296200000000  0.5894640000000  0.6044980000000 1.0
C      1  0.3971790000000  0.6626680000000  0.3955010000000 1.0
C      1  0.4922880000000  0.6922860000000  0.6044980000000 1.0
C      1  0.5894640000000  0.6703800000000  0.3955020000000 1.0
C      1  0.6626680000000  0.6028210000000  0.6044990000000 1.0
C      1  0.7197480000000  0.4360050000000  0.4527480000000 1.0
C      1  0.6583080000000  0.3347060000000  0.5472510000000 1.0
C      1  0.5544520000000  0.2776950000000  0.4527480000000 1.0
C      1  0.4360050000000  0.2802520000000  0.5472520000000 1.0
C      1  0.3347060000000  0.3416920000000  0.4527490000000 1.0
C      1  0.2776950000000  0.4455480000000  0.5472520000000 1.0
C      1  0.2802520000000  0.5639950000000  0.4527480000000 1.0
C      1  0.3416920000000  0.6652940000000  0.5472510000000 1.0
C      1  0.4455480000000  0.7223050000000  0.4527480000000 1.0
C      1  0.5639950000000  0.7197480000000  0.5472520000000 1.0
C      1  0.6652940000000  0.6583080000000  0.4527490000000 1.0
C      1  0.7223050000000  0.5544520000000  0.5472520000000 1.0
C      1  0.4061850000000  0.5492610000000  0.6589090000000 1.0
C      1  0.4433850000000  0.5895690000000  0.3410910000000 1.0
C      1  0.4957540000000  0.6058770000000  0.6589090000000 1.0
C      1  0.5492610000000  0.5938150000000  0.3410910000000 1.0
C      1  0.5895690000000  0.5566150000000  0.6589090000000 1.0
C      1  0.6058770000000  0.5042460000000  0.3410910000000 1.0
C      1  0.5938150000000  0.4507390000000  0.6589090000000 1.0
C      1  0.5566150000000  0.4104310000000  0.3410910000000 1.0
C      1  0.5042460000000  0.3941230000000  0.6589090000000 1.0
C      1  0.4507390000000  0.4061850000000  0.3410910000000 1.0
C      1  0.4104310000000  0.4433850000000  0.6589090000000 1.0
C      1  0.3941230000000  0.4957540000000  0.3410910000000 1.0
END
