TITL C-2159255-4746-595 -0.00733547527634311 3375 -414.738882915301 0 0 60 (Cs) n - 1
REM
REM in /scratch/bkarasulu/871
REM
REM
REM
REM
REM
REM ./C.cell (a2850807a9bf4ad07a5b6933b78d9264)
REM AIRSS Version 0.9.1 bugfix July 2018 build 013d7b7c2542+ Fri, 06 Jul 2018 19:26:36 +0100
REM compiler GCC version 9.2.1 20190827 (Red Hat 9.2.1-1)
REM options -cpp -mtune=generic -march=x86-64 -g -O0 -fpre-include=/usr/include/finclude/math-vector-fortran.h
REM seed 903658320 158474774 1384215921 -1331768862 274980740 -609385221 -1632324801 1744193887 1262158957 730769644 469464128 -592333772 -720376961 108016368 -1244425731 -1702123821 330111941 -2121863621 -59358371 -1034262117 -803081863 198379594 259848808 -489454179 1022198909 -1103313983 1765134111 1275853336 1905462382 81942672 -1077233171 967276482 1478759974
REM
CELL 1.54180   15.00000   15.00000   15.00000   90.00000   90.00000   90.00000
LATT -1
SFAC C  
C      1  0.5621120000000  0.4109420000000  0.7800040000000 1.0
C      1  0.5598280000000  0.5760320000000  0.7870330000000 1.0
C      1  0.5621360000000  0.7167820000000  0.7004480000000 1.0
C      1  0.5672620000000  0.7856590000000  0.5502030000000 1.0
C      1  0.5699960000000  0.7625280000000  0.3861020000000 1.0
C      1  0.5658360000000  0.6624200000000  0.2543200000000 1.0
C      1  0.5604460000000  0.5078080000000  0.1969690000000 1.0
C      1  0.5604630000000  0.3482870000000  0.2384630000000 1.0
C      1  0.5658580000000  0.2411730000000  0.3638510000000 1.0
C      1  0.5700090000000  0.2179150000000  0.5276990000000 1.0
C      1  0.5672650000000  0.2776440000000  0.6822870000000 1.0
C      1  0.5986180000000  0.4238540000000  0.2015740000000 1.0
C      1  0.6018640000000  0.2838430000000  0.2902130000000 1.0
C      1  0.6079440000000  0.2179120000000  0.4432090000000 1.0
C      1  0.6082080000000  0.2348390000000  0.6109940000000 1.0
C      1  0.6037490000000  0.3362440000000  0.7443360000000 1.0
C      1  0.5993130000000  0.4933080000000  0.8004360000000 1.0
C      1  0.5993340000000  0.6547820000000  0.7583980000000 1.0
C      1  0.6037620000000  0.7646710000000  0.6329210000000 1.0
C      1  0.6081960000000  0.7883330000000  0.4670880000000 1.0
C      1  0.6079280000000  0.7213720000000  0.3123110000000 1.0
C      1  0.6018400000000  0.5893000000000  0.2107670000000 1.0
C      1  0.4716370000000  0.7590240000000  0.3874470000000 1.0
C      1  0.4670570000000  0.6607080000000  0.2601680000000 1.0
C      1  0.4618830000000  0.5085960000000  0.2067510000000 1.0
C      1  0.4618980000000  0.3523490000000  0.2473850000000 1.0
C      1  0.4670780000000  0.2455070000000  0.3681190000000 1.0
C      1  0.4716490000000  0.2216230000000  0.5271630000000 1.0
C      1  0.4685760000000  0.2809510000000  0.6768290000000 1.0
C      1  0.4636870000000  0.4120010000000  0.7704320000000 1.0
C      1  0.4616660000000  0.5732430000000  0.7762750000000 1.0
C      1  0.4637080000000  0.7112150000000  0.6926220000000 1.0
C      1  0.4685740000000  0.7801080000000  0.5470560000000 1.0
C      1  0.3715540000000  0.5886310000000  0.6437120000000 1.0
C      1  0.3720460000000  0.6542780000000  0.5729440000000 1.0
C      1  0.3734050000000  0.6706510000000  0.4775030000000 1.0
C      1  0.3733280000000  0.6331090000000  0.3878550000000 1.0
C      1  0.3714900000000  0.5536580000000  0.3322720000000 1.0
C      1  0.3705530000000  0.4569360000000  0.3288790000000 1.0
C      1  0.3714990000000  0.3741120000000  0.3789510000000 1.0
C      1  0.3733350000000  0.3317910000000  0.4661920000000 1.0
C      1  0.3734110000000  0.3426660000000  0.5627710000000 1.0
C      1  0.3720450000000  0.4034480000000  0.6381560000000 1.0
C      1  0.3715490000000  0.4952470000000  0.6679920000000 1.0
C      1  0.4274900000000  0.6971140000000  0.3350740000000 1.0
C      1  0.4235300000000  0.5796070000000  0.2516340000000 1.0
C      1  0.4214490000000  0.4354810000000  0.2463440000000 1.0
C      1  0.4235480000000  0.3121820000000  0.3211670000000 1.0
C      1  0.4275040000000  0.2501850000000  0.4512680000000 1.0
C      1  0.4284260000000  0.2669410000000  0.5946860000000 1.0
C      1  0.4241580000000  0.3556380000000  0.7084640000000 1.0
C      1  0.4214360000000  0.4927650000000  0.7543750000000 1.0
C      1  0.4214470000000  0.6328650000000  0.7179420000000 1.0
C      1  0.4241660000000  0.7302750000000  0.6110610000000 1.0
C      1  0.4284180000000  0.7523350000000  0.4684940000000 1.0
C      1  0.6197560000000  0.4956020000000  0.4775530000000 1.0
C      1  0.4556770000000  0.5003020000000  0.4956840000000 1.0
C      1  0.5329370000000  0.4910090000000  0.4598930000000 1.0
C      1  0.3685830000000  0.5021380000000  0.5027600000000 1.0
C      1  0.6998860000000  0.5030620000000  0.5062790000000 1.0
END
