TITL C-2158984-8299-76 -0.00160717181000225 3375 -395.354561763136 0 0 60 (C2) n - 1
REM
REM in /scratch/bkarasulu/869
REM
REM
REM
REM
REM
REM ./C.cell (a2850807a9bf4ad07a5b6933b78d9264)
REM AIRSS Version 0.9.1 bugfix July 2018 build 013d7b7c2542+ Fri, 06 Jul 2018 19:26:36 +0100
REM compiler GCC version 9.2.1 20190827 (Red Hat 9.2.1-1)
REM options -cpp -mtune=generic -march=x86-64 -g -O0 -fpre-include=/usr/include/finclude/math-vector-fortran.h
REM seed 1489409788 88032921 1773414694 1707301115 600585893 1760838705 -1948247194 -16127668 2034162411 1761904275 142888729 449661397 -1048769972 -139914028 1641482374 469305041 892656911 -1921783051 -1958624376 -241621613 1721343877 1625646320 1947546676 -265236931 -1242489933 -1876300396 -135609664 -547914728 -1014941254 -2049680546 873893691 93690116 838328473
REM
CELL 1.54180   15.00000   15.00000   15.00000   90.00000   90.00000   90.00000
LATT -1
SFAC C  
C      1  0.7211990000000  0.4941590000000  0.5973380000000 1.0
C      1  0.7205100000000  0.5877910000000  0.4565120000000 1.0
C      1  0.7210230000000  0.4187090000000  0.4465640000000 1.0
C      1  0.2788010000000  0.4941590000000  0.4026620000000 1.0
C      1  0.2794900000000  0.5877910000000  0.5434880000000 1.0
C      1  0.2789770000000  0.4187090000000  0.5534360000000 1.0
C      1  0.5879750000000  0.4234620000000  0.5470700000000 1.0
C      1  0.5883790000000  0.5789750000000  0.5437630000000 1.0
C      1  0.5888690000000  0.4979680000000  0.4109170000000 1.0
C      1  0.4120250000000  0.4234620000000  0.4529300000000 1.0
C      1  0.4116210000000  0.5789750000000  0.4562370000000 1.0
C      1  0.4111310000000  0.4979680000000  0.5890830000000 1.0
C      1  0.6324910000000  0.6208480000000  0.3211030000000 1.0
C      1  0.6334590000000  0.2846560000000  0.4844100000000 1.0
C      1  0.6342940000000  0.5933610000000  0.6954160000000 1.0
C      1  0.3675090000000  0.6208480000000  0.6788970000000 1.0
C      1  0.3665410000000  0.2846560000000  0.5155900000000 1.0
C      1  0.3657060000000  0.5933610000000  0.3045840000000 1.0
C      1  0.7071340000000  0.5803350000000  0.5521810000000 1.0
C      1  0.7071230000000  0.5051130000000  0.4050240000000 1.0
C      1  0.7076500000000  0.4149570000000  0.5436920000000 1.0
C      1  0.2928660000000  0.5803350000000  0.4478190000000 1.0
C      1  0.2928770000000  0.5051130000000  0.5949760000000 1.0
C      1  0.2923500000000  0.4149570000000  0.4563080000000 1.0
C      1  0.4934230000000  0.6514040000000  0.5949660000000 1.0
C      1  0.4934260000000  0.5087920000000  0.3205240000000 1.0
C      1  0.4931750000000  0.3414270000000  0.5828790000000 1.0
C      1  0.5065770000000  0.6514040000000  0.4050340000000 1.0
C      1  0.5065740000000  0.5087920000000  0.6794760000000 1.0
C      1  0.5068250000000  0.3414270000000  0.4171210000000 1.0
C      1  0.3428930000000  0.5079940000000  0.3342610000000 1.0
C      1  0.3432000000000  0.3524730000000  0.5751770000000 1.0
C      1  0.3437990000000  0.6394920000000  0.5905510000000 1.0
C      1  0.6571070000000  0.5079940000000  0.6657390000000 1.0
C      1  0.6568000000000  0.3524730000000  0.4248230000000 1.0
C      1  0.6562010000000  0.6394920000000  0.4094490000000 1.0
C      1  0.3354030000000  0.3236550000000  0.4331500000000 1.0
C      1  0.3349630000000  0.5306700000000  0.6862960000000 1.0
C      1  0.3355290000000  0.6457650000000  0.3796610000000 1.0
C      1  0.6645970000000  0.3236550000000  0.5668500000000 1.0
C      1  0.6650370000000  0.5306700000000  0.3137040000000 1.0
C      1  0.6644710000000  0.6457650000000  0.6203390000000 1.0
C      1  0.4639980000000  0.2671180000000  0.5313160000000 1.0
C      1  0.4661370000000  0.6408540000000  0.6853810000000 1.0
C      1  0.4622320000000  0.5885770000000  0.2796160000000 1.0
C      1  0.5360020000000  0.2671180000000  0.4686840000000 1.0
C      1  0.5338630000000  0.6408540000000  0.3146190000000 1.0
C      1  0.5377680000000  0.5885770000000  0.7203840000000 1.0
C      1  0.4250220000000  0.5904730000000  0.5501750000000 1.0
C      1  0.4251450000000  0.4992290000000  0.3957830000000 1.0
C      1  0.4250130000000  0.4108940000000  0.5524710000000 1.0
C      1  0.5749780000000  0.5904730000000  0.4498250000000 1.0
C      1  0.5748550000000  0.4992290000000  0.6042170000000 1.0
C      1  0.5749870000000  0.4108940000000  0.4475290000000 1.0
C      1  0.4154050000000  0.4839550000000  0.6857300000000 1.0
C      1  0.4154270000000  0.6698890000000  0.4208700000000 1.0
C      1  0.4157580000000  0.3470040000000  0.3924970000000 1.0
C      1  0.5845950000000  0.4839550000000  0.3142700000000 1.0
C      1  0.5845730000000  0.6698890000000  0.5791300000000 1.0
C      1  0.5842420000000  0.3470040000000  0.6075030000000 1.0
END
