TITL C-2158984-8299-1133 -0.00523630202461798 3375 -403.657633772316 0 0 60 (C1) n - 1
REM
REM in /scratch/bkarasulu/869
REM
REM
REM
REM
REM
REM ./C.cell (a2850807a9bf4ad07a5b6933b78d9264)
REM AIRSS Version 0.9.1 bugfix July 2018 build 013d7b7c2542+ Fri, 06 Jul 2018 19:26:36 +0100
REM compiler GCC version 9.2.1 20190827 (Red Hat 9.2.1-1)
REM options -cpp -mtune=generic -march=x86-64 -g -O0 -fpre-include=/usr/include/finclude/math-vector-fortran.h
REM seed 1670632312 916561673 -757850042 -1406718893 360281869 963308473 778707256 234470485 634900574 1805175943 -329183056 1544068485 2046241535 1595451700 -430214400 682594233 987020014 -231143345 46048732 654217883 1288190874 6660643 537495675 -1656067507 1925859460 -284892397 1306290900 -991684915 413389803 79703301 896803036 -206863801 -576977232
REM
CELL 1.54180   15.00000   15.00000   15.00000   90.00000   90.00000   90.00000
LATT -1
SFAC C  
C      1  0.6346250000000  0.3116610000000  0.6905500000000 1.0
C      1  0.6008940000000  0.2502270000000  0.5606600000000 1.0
C      1  0.5465810000000  0.2910390000000  0.4263680000000 1.0
C      1  0.5971450000000  0.3476960000000  0.2962510000000 1.0
C      1  0.6280250000000  0.4793320000000  0.2364160000000 1.0
C      1  0.6026130000000  0.6202980000000  0.2744510000000 1.0
C      1  0.5543470000000  0.7034990000000  0.3892560000000 1.0
C      1  0.6026980000000  0.7567840000000  0.5208140000000 1.0
C      1  0.6044560000000  0.7063160000000  0.6560200000000 1.0
C      1  0.5595150000000  0.5798930000000  0.7227650000000 1.0
C      1  0.6099850000000  0.4425560000000  0.7541740000000 1.0
C      1  0.5778060000000  0.2513700000000  0.6505170000000 1.0
C      1  0.5174860000000  0.2523430000000  0.5091320000000 1.0
C      1  0.5149200000000  0.3151270000000  0.3391910000000 1.0
C      1  0.5717980000000  0.4066820000000  0.2292750000000 1.0
C      1  0.5752430000000  0.5522750000000  0.2176690000000 1.0
C      1  0.5224730000000  0.6664560000000  0.3065720000000 1.0
C      1  0.5266890000000  0.7595380000000  0.4617710000000 1.0
C      1  0.5781950000000  0.7794290000000  0.6066850000000 1.0
C      1  0.5301310000000  0.6691690000000  0.7046510000000 1.0
C      1  0.5296530000000  0.4975780000000  0.7621940000000 1.0
C      1  0.5835200000000  0.3538210000000  0.7542310000000 1.0
C      1  0.6559800000000  0.3289420000000  0.5368970000000 1.0
C      1  0.6348300000000  0.3413920000000  0.4436030000000 1.0
C      1  0.6533690000000  0.3929480000000  0.3642570000000 1.0
C      1  0.6701680000000  0.4863730000000  0.3276700000000 1.0
C      1  0.6547390000000  0.5850510000000  0.3494380000000 1.0
C      1  0.6329790000000  0.6479130000000  0.4199700000000 1.0
C      1  0.6505080000000  0.6717550000000  0.5115990000000 1.0
C      1  0.6514820000000  0.6363930000000  0.6062280000000 1.0
C      1  0.6359950000000  0.5584110000000  0.6604110000000 1.0
C      1  0.6589450000000  0.4651280000000  0.6724040000000 1.0
C      1  0.6745800000000  0.3762700000000  0.6248570000000 1.0
C      1  0.4431290000000  0.3664090000000  0.3002690000000 1.0
C      1  0.4771130000000  0.4337950000000  0.2435980000000 1.0
C      1  0.4796750000000  0.5331800000000  0.2345990000000 1.0
C      1  0.4484360000000  0.6126270000000  0.2755980000000 1.0
C      1  0.4505180000000  0.7814500000000  0.5155160000000 1.0
C      1  0.4760930000000  0.7756250000000  0.6069310000000 1.0
C      1  0.4529140000000  0.7204640000000  0.6809550000000 1.0
C      1  0.4558570000000  0.4356430000000  0.7538430000000 1.0
C      1  0.4870810000000  0.3494310000000  0.7318400000000 1.0
C      1  0.4830800000000  0.2803910000000  0.6599740000000 1.0
C      1  0.4474450000000  0.2656200000000  0.5741530000000 1.0
C      1  0.2253820000000  0.6373550000000  0.5662360000000 1.0
C      1  0.2248690000000  0.5767120000000  0.6288540000000 1.0
C      1  0.2216950000000  0.4915940000000  0.6477850000000 1.0
C      1  0.2160320000000  0.4097500000000  0.6180380000000 1.0
C      1  0.2050260000000  0.3557650000000  0.5500590000000 1.0
C      1  0.1939680000000  0.3495500000000  0.4633980000000 1.0
C      1  0.1950940000000  0.3905720000000  0.3861380000000 1.0
C      1  0.1970760000000  0.4657420000000  0.3414150000000 1.0
C      1  0.2047240000000  0.5528690000000  0.3478140000000 1.0
C      1  0.2141650000000  0.6223780000000  0.3996220000000 1.0
C      1  0.2206470000000  0.6536990000000  0.4808410000000 1.0
C      1  0.4011210000000  0.5174850000000  0.5140190000000 1.0
C      1  0.4866740000000  0.5253490000000  0.5182230000000 1.0
C      1  0.7397720000000  0.5002400000000  0.5004890000000 1.0
C      1  0.5655370000000  0.4949020000000  0.4997930000000 1.0
C      1  0.6554840000000  0.4991570000000  0.5011480000000 1.0
END
