TITL C-2158984-8299-995 -0.00182656299557899 3375 -394.65730599293 0 0 60 (C5) n - 1
REM
REM in /scratch/bkarasulu/869
REM
REM
REM
REM
REM
REM ./C.cell (a2850807a9bf4ad07a5b6933b78d9264)
REM AIRSS Version 0.9.1 bugfix July 2018 build 013d7b7c2542+ Fri, 06 Jul 2018 19:26:36 +0100
REM compiler GCC version 9.2.1 20190827 (Red Hat 9.2.1-1)
REM options -cpp -mtune=generic -march=x86-64 -g -O0 -fpre-include=/usr/include/finclude/math-vector-fortran.h
REM seed 1621538073 -76445644 1530092476 1362710584 59445352 -879221622 248716938 -603335368 645318119 1789564113 970547253 1617760998 -1617701803 -898862282 1614904251 -1542218555 1540528580 805706314 1672175084 1756424030 2119456029 -415188381 -1630766184 789573200 -1905714187 1572272157 1392607153 -296423843 -387890542 1239933722 1344933782 -1434341861 1141047015
REM
CELL 1.54180   15.00000   15.00000   15.00000   90.00000   90.00000   90.00000
LATT -1
SFAC C  
C      1  0.4026250000000  0.7399400000000  0.4667720000000 1.0
C      1  0.4026230000000  0.6057480000000  0.7179260000000 1.0
C      1  0.4026240000000  0.3254180000000  0.6679140000000 1.0
C      1  0.4026230000000  0.2863560000000  0.3858500000000 1.0
C      1  0.4026260000000  0.5425450000000  0.2615350000000 1.0
C      1  0.6798890000000  0.6350320000000  0.4508880000000 1.0
C      1  0.6798920000000  0.5884330000000  0.6132480000000 1.0
C      1  0.6798890000000  0.4196210000000  0.6191030000000 1.0
C      1  0.6798870000000  0.3618850000000  0.4603630000000 1.0
C      1  0.6798920000000  0.4950170000000  0.3564010000000 1.0
C      1  0.4605680000000  0.2764590000000  0.4555990000000 1.0
C      1  0.4605720000000  0.4731510000000  0.2736790000000 1.0
C      1  0.4605730000000  0.7069460000000  0.4045290000000 1.0
C      1  0.4605710000000  0.6547490000000  0.6673140000000 1.0
C      1  0.4605700000000  0.3886960000000  0.6988800000000 1.0
C      1  0.4669550000000  0.5944570000000  0.3025240000000 1.0
C      1  0.4669530000000  0.7170010000000  0.5288100000000 1.0
C      1  0.4669510000000  0.5396570000000  0.7152820000000 1.0
C      1  0.4669520000000  0.3075100000000  0.6042410000000 1.0
C      1  0.4669510000000  0.3413780000000  0.3491420000000 1.0
C      1  0.5442780000000  0.6942850000000  0.6537700000000 1.0
C      1  0.5442770000000  0.4137950000000  0.7322950000000 1.0
C      1  0.5442750000000  0.2524320000000  0.4897950000000 1.0
C      1  0.5442790000000  0.4332040000000  0.2613980000000 1.0
C      1  0.5442800000000  0.7062820000000  0.3627440000000 1.0
C      1  0.5887320000000  0.6339330000000  0.5894910000000 1.0
C      1  0.5887310000000  0.4562760000000  0.6550330000000 1.0
C      1  0.5887300000000  0.3390410000000  0.5063240000000 1.0
C      1  0.5887320000000  0.4442460000000  0.3488760000000 1.0
C      1  0.5887330000000  0.6264980000000  0.4002770000000 1.0
C      1  0.5488710000000  0.6373410000000  0.3035460000000 1.0
C      1  0.5488690000000  0.7292820000000  0.5699100000000 1.0
C      1  0.5488670000000  0.5043640000000  0.7396650000000 1.0
C      1  0.5488660000000  0.2734130000000  0.5782090000000 1.0
C      1  0.5488670000000  0.3556000000000  0.3086730000000 1.0
C      1  0.6806930000000  0.6368960000000  0.5408150000000 1.0
C      1  0.6806940000000  0.5034850000000  0.6428090000000 1.0
C      1  0.6806950000000  0.3652560000000  0.5474480000000 1.0
C      1  0.6806930000000  0.4132360000000  0.3865170000000 1.0
C      1  0.6806980000000  0.5811170000000  0.3824170000000 1.0
C      1  0.3422250000000  0.4761120000000  0.6342480000000 1.0
C      1  0.3422250000000  0.3649420000000  0.5187650000000 1.0
C      1  0.3422260000000  0.4404200000000  0.3773480000000 1.0
C      1  0.3422260000000  0.5982370000000  0.4054320000000 1.0
C      1  0.3422260000000  0.6202960000000  0.5642040000000 1.0
C      1  0.5189190000000  0.5733790000000  0.5463170000000 1.0
C      1  0.5189180000000  0.4786250000000  0.5841010000000 1.0
C      1  0.5189180000000  0.4134090000000  0.5056600000000 1.0
C      1  0.5189190000000  0.4678590000000  0.4193970000000 1.0
C      1  0.5189190000000  0.5667250000000  0.4445250000000 1.0
C      1  0.3256790000000  0.5276360000000  0.3456340000000 1.0
C      1  0.3256780000000  0.6553500000000  0.4785790000000 1.0
C      1  0.3256770000000  0.5683780000000  0.6411250000000 1.0
C      1  0.3256770000000  0.3869130000000  0.6086400000000 1.0
C      1  0.3256770000000  0.3617330000000  0.4260170000000 1.0
C      1  0.4405700000000  0.6349720000000  0.5736020000000 1.0
C      1  0.4405690000000  0.4717090000000  0.6511100000000 1.0
C      1  0.4405690000000  0.3475430000000  0.5197880000000 1.0
C      1  0.4405700000000  0.4340690000000  0.3611180000000 1.0
C      1  0.4405710000000  0.6117100000000  0.3943790000000 1.0
END
