TITL C-2159252-5904-442 -0.00118367443129252 3375 -384.337055983312 0 0 60 (C3i) n - 1
REM
REM in /scratch/bkarasulu/870
REM
REM
REM
REM
REM
REM ./C.cell (a2850807a9bf4ad07a5b6933b78d9264)
REM AIRSS Version 0.9.1 bugfix July 2018 build 013d7b7c2542+ Fri, 06 Jul 2018 19:26:36 +0100
REM compiler GCC version 9.2.1 20190827 (Red Hat 9.2.1-1)
REM options -cpp -mtune=generic -march=x86-64 -g -O0 -fpre-include=/usr/include/finclude/math-vector-fortran.h
REM seed -1888012415 1147330715 74407150 920409867 -1120027812 366329276 -1015516416 1494644617 1463924236 -1113760779 1997268999 596457897 -1394654543 -944628813 125882293 1895582778 726849136 1635799651 -1583481716 -1144033389 -973438011 303012427 -662278304 -1115311877 1813846096 600080269 -817513450 -304445581 -984016357 522581084 1357329428 -1300196555 -1180585840
REM
CELL 1.54180   15.00000   15.00000   15.00000   90.00000   90.00000   90.00000
LATT -1
SFAC C  
C      1  0.4597200000000  0.5824170000000  0.5219170000000 1.0
C      1  0.4084840000000  0.5063250000000  0.4780830000000 1.0
C      1  0.4487650000000  0.4239070000000  0.5219180000000 1.0
C      1  0.5402810000000  0.4175830000000  0.4780830000000 1.0
C      1  0.5915160000000  0.4936750000000  0.5219170000000 1.0
C      1  0.5512350000000  0.5760930000000  0.4780820000000 1.0
C      1  0.5340530000000  0.5512830000000  0.5752650000000 1.0
C      1  0.4726140000000  0.5551300000000  0.4247340000000 1.0
C      1  0.4385630000000  0.5038490000000  0.5752660000000 1.0
C      1  0.4659470000000  0.4487170000000  0.4247350000000 1.0
C      1  0.5273860000000  0.4448700000000  0.5752660000000 1.0
C      1  0.5614370000000  0.4961510000000  0.4247340000000 1.0
C      1  0.4248320000000  0.3880360000000  0.3618710000000 1.0
C      1  0.5593790000000  0.3789230000000  0.6381310000000 1.0
C      1  0.6345440000000  0.4908840000000  0.3618680000000 1.0
C      1  0.5751680000000  0.6119640000000  0.6381290000000 1.0
C      1  0.4406210000000  0.6210770000000  0.3618690000000 1.0
C      1  0.3654560000000  0.5091160000000  0.6381320000000 1.0
C      1  0.3125880000000  0.3632350000000  0.4988470000000 1.0
C      1  0.5247370000000  0.2693120000000  0.5011570000000 1.0
C      1  0.7121480000000  0.4060790000000  0.4988420000000 1.0
C      1  0.6874120000000  0.6367650000000  0.5011530000000 1.0
C      1  0.4752630000000  0.7306880000000  0.4988430000000 1.0
C      1  0.2878520000000  0.5939210000000  0.5011580000000 1.0
C      1  0.6572860000000  0.5876750000000  0.3323340000000 1.0
C      1  0.5027160000000  0.6800550000000  0.6676630000000 1.0
C      1  0.3454240000000  0.5923750000000  0.3323360000000 1.0
C      1  0.3427140000000  0.4123250000000  0.6676660000000 1.0
C      1  0.4972840000000  0.3199450000000  0.3323370000000 1.0
C      1  0.6545760000000  0.4076250000000  0.6676640000000 1.0
C      1  0.4150900000000  0.6686300000000  0.5362050000000 1.0
C      1  0.3115060000000  0.5107800000000  0.4637960000000 1.0
C      1  0.3964180000000  0.3421510000000  0.5362080000000 1.0
C      1  0.5849100000000  0.3313700000000  0.4637950000000 1.0
C      1  0.6884940000000  0.4892200000000  0.5362040000000 1.0
C      1  0.6035820000000  0.6578490000000  0.4637920000000 1.0
C      1  0.6656830000000  0.3339970000000  0.5195530000000 1.0
C      1  0.7266060000000  0.5604830000000  0.4804450000000 1.0
C      1  0.5609220000000  0.7264880000000  0.5195500000000 1.0
C      1  0.3343170000000  0.6660030000000  0.4804470000000 1.0
C      1  0.2733940000000  0.4395170000000  0.5195550000000 1.0
C      1  0.4390780000000  0.2735120000000  0.4804500000000 1.0
C      1  0.4023480000000  0.3467630000000  0.6374620000000 1.0
C      1  0.5838790000000  0.3388100000000  0.3625400000000 1.0
C      1  0.6815360000000  0.4920500000000  0.6374590000000 1.0
C      1  0.5976520000000  0.6532370000000  0.3625380000000 1.0
C      1  0.4161210000000  0.6611900000000  0.6374600000000 1.0
C      1  0.3184640000000  0.5079500000000  0.3625410000000 1.0
C      1  0.5645520000000  0.7065280000000  0.6088370000000 1.0
C      1  0.3534200000000  0.6591630000000  0.3911600000000 1.0
C      1  0.2888680000000  0.4526410000000  0.6088420000000 1.0
C      1  0.4354480000000  0.2934720000000  0.3911630000000 1.0
C      1  0.6465800000000  0.3408370000000  0.6088400000000 1.0
C      1  0.7111320000000  0.5473590000000  0.3911580000000 1.0
C      1  0.4850760000000  0.3330440000000  0.6681400000000 1.0
C      1  0.6371220000000  0.4035960000000  0.3318600000000 1.0
C      1  0.6520530000000  0.5705540000000  0.6681370000000 1.0
C      1  0.5149240000000  0.6669560000000  0.3318600000000 1.0
C      1  0.3628780000000  0.5964040000000  0.6681400000000 1.0
C      1  0.3479470000000  0.4294460000000  0.3318630000000 1.0
END
