TITL C-2158988-7926-205 -0.007285751348058 3375 -416.195238325994 0 0 60 (Cs) n - 1
REM
REM in /scratch/bkarasulu/868
REM
REM
REM
REM
REM
REM ./C.cell (a2850807a9bf4ad07a5b6933b78d9264)
REM AIRSS Version 0.9.1 bugfix July 2018 build 013d7b7c2542+ Fri, 06 Jul 2018 19:26:36 +0100
REM compiler GCC version 9.2.1 20190827 (Red Hat 9.2.1-1)
REM options -cpp -mtune=generic -march=x86-64 -g -O0 -fpre-include=/usr/include/finclude/math-vector-fortran.h
REM seed 2113335477 -1053431475 -902533264 1561945290 -1859482413 1436954818 -1954266741 1031647720 789268941 910587872 -553682342 -2073942895 -1117804454 -1930752351 1613250978 246375352 -881131541 497892726 355000793 1847450754 -1684351609 861053268 -106431526 269675835 2111518858 -180709025 2097181905 -1458513593 -709431330 1195133566 -224728003 189664420 -62764329
REM
CELL 1.54180   15.00000   15.00000   15.00000   90.00000   90.00000   90.00000
LATT -1
SFAC C  
C      1  0.7576780000000  0.6266730000000  0.5985100000000 1.0
C      1  0.6491280000000  0.7521410000000  0.5957570000000 1.0
C      1  0.4899790000000  0.7989280000000  0.5929530000000 1.0
C      1  0.3317580000000  0.7491150000000  0.5929810000000 1.0
C      1  0.2280520000000  0.6196380000000  0.5957930000000 1.0
C      1  0.2108270000000  0.4546310000000  0.5985060000000 1.0
C      1  0.2814900000000  0.3045060000000  0.5973930000000 1.0
C      1  0.4208670000000  0.2150910000000  0.5938220000000 1.0
C      1  0.5861230000000  0.2166090000000  0.5919430000000 1.0
C      1  0.7224470000000  0.3100520000000  0.5939290000000 1.0
C      1  0.7856300000000  0.4631270000000  0.5974660000000 1.0
C      1  0.5040760000000  0.1996620000000  0.6313990000000 1.0
C      1  0.6630310000000  0.2497600000000  0.6314680000000 1.0
C      1  0.7675740000000  0.3800880000000  0.6347610000000 1.0
C      1  0.7868520000000  0.5471270000000  0.6372140000000 1.0
C      1  0.7149080000000  0.7001110000000  0.6360900000000 1.0
C      1  0.5733600000000  0.7907470000000  0.6328460000000 1.0
C      1  0.4060860000000  0.7892360000000  0.6312220000000 1.0
C      1  0.2680940000000  0.6946550000000  0.6328880000000 1.0
C      1  0.2038480000000  0.5393220000000  0.6361070000000 1.0
C      1  0.2324630000000  0.3727020000000  0.6371820000000 1.0
C      1  0.3437850000000  0.2466910000000  0.6346570000000 1.0
C      1  0.2863280000000  0.3098310000000  0.4992300000000 1.0
C      1  0.4222400000000  0.2235750000000  0.4956840000000 1.0
C      1  0.5833210000000  0.2255940000000  0.4938870000000 1.0
C      1  0.7165210000000  0.3161970000000  0.4957850000000 1.0
C      1  0.7786340000000  0.4647040000000  0.4993030000000 1.0
C      1  0.7512870000000  0.6232920000000  0.5007820000000 1.0
C      1  0.6459060000000  0.7450060000000  0.4977040000000 1.0
C      1  0.4907020000000  0.7899320000000  0.4947040000000 1.0
C      1  0.3362950000000  0.7413360000000  0.4947310000000 1.0
C      1  0.2347690000000  0.6156490000000  0.4977440000000 1.0
C      1  0.2180050000000  0.4555370000000  0.5007780000000 1.0
C      1  0.3412460000000  0.4259750000000  0.4024670000000 1.0
C      1  0.4060570000000  0.3524430000000  0.4001200000000 1.0
C      1  0.5004080000000  0.3259350000000  0.3983690000000 1.0
C      1  0.5938950000000  0.3553480000000  0.3983980000000 1.0
C      1  0.6560780000000  0.4311020000000  0.4001810000000 1.0
C      1  0.6671430000000  0.5284900000000  0.4025050000000 1.0
C      1  0.6247260000000  0.6167470000000  0.4031400000000 1.0
C      1  0.5419300000000  0.6683610000000  0.4025190000000 1.0
C      1  0.4446020000000  0.6667320000000  0.4021530000000 1.0
C      1  0.3638660000000  0.6123470000000  0.4025250000000 1.0
C      1  0.3255190000000  0.5226290000000  0.4031300000000 1.0
C      1  0.4189510000000  0.7482860000000  0.4536800000000 1.0
C      1  0.2985140000000  0.6670100000000  0.4546910000000 1.0
C      1  0.2422060000000  0.5331060000000  0.4570580000000 1.0
C      1  0.2667350000000  0.3900050000000  0.4579380000000 1.0
C      1  0.3624130000000  0.2811680000000  0.4551000000000 1.0
C      1  0.5021200000000  0.2413220000000  0.4522960000000 1.0
C      1  0.6409050000000  0.2850000000000  0.4523450000000 1.0
C      1  0.7326280000000  0.3976550000000  0.4551980000000 1.0
C      1  0.7488370000000  0.5416520000000  0.4579710000000 1.0
C      1  0.6870480000000  0.6730410000000  0.4570440000000 1.0
C      1  0.5642250000000  0.7506050000000  0.4546670000000 1.0
C      1  0.4888800000000  0.5262550000000  0.5657730000000 1.0
C      1  0.4961230000000  0.5029190000000  0.4840380000000 1.0
C      1  0.4933440000000  0.5118960000000  0.6521150000000 1.0
C      1  0.4970080000000  0.5000960000000  0.3121380000000 1.0
C      1  0.4967080000000  0.5010480000000  0.3964790000000 1.0
END
