TITL C-2159255-4746-546 -0.0027028495988057 3375 -403.54700089749 0 0 60 (C1) n - 1
REM
REM in /scratch/bkarasulu/871
REM
REM
REM
REM
REM
REM ./C.cell (a2850807a9bf4ad07a5b6933b78d9264)
REM AIRSS Version 0.9.1 bugfix July 2018 build 013d7b7c2542+ Fri, 06 Jul 2018 19:26:36 +0100
REM compiler GCC version 9.2.1 20190827 (Red Hat 9.2.1-1)
REM options -cpp -mtune=generic -march=x86-64 -g -O0 -fpre-include=/usr/include/finclude/math-vector-fortran.h
REM seed 49198854 -1357556299 218693964 -784893610 -1405479837 -652166788 -185827296 -792641013 1832224424 -1153138091 -1129918122 657035944 -1233861373 -1642576630 1944764618 -1657788322 834282341 2093202433 -1942113285 -1438780359 1097125858 2036413638 1330614600 858482923 -939797251 -2050769348 -103327948 -278021331 -489445877 -78787208 -1572746450 -753224652 -602915970
REM
CELL 1.54180   15.00000   15.00000   15.00000   90.00000   90.00000   90.00000
LATT -1
SFAC C  
C      1  0.4400500000000  0.5858080000000  0.3482450000000 1.0
C      1  0.5511270000000  0.5894900000000  0.6487470000000 1.0
C      1  0.4531110000000  0.4175190000000  0.3506240000000 1.0
C      1  0.5560380000000  0.4208880000000  0.6536760000000 1.0
C      1  0.4473710000000  0.5890170000000  0.6497960000000 1.0
C      1  0.5467090000000  0.5886200000000  0.3447670000000 1.0
C      1  0.4451260000000  0.4201810000000  0.6526340000000 1.0
C      1  0.5596200000000  0.4204680000000  0.3529540000000 1.0
C      1  0.7248690000000  0.5736150000000  0.5990860000000 1.0
C      1  0.2540640000000  0.6083290000000  0.3880150000000 1.0
C      1  0.7462800000000  0.3921030000000  0.6194300000000 1.0
C      1  0.2741510000000  0.4246990000000  0.3936830000000 1.0
C      1  0.7270660000000  0.5873680000000  0.3824360000000 1.0
C      1  0.2714280000000  0.5752380000000  0.6054360000000 1.0
C      1  0.7473510000000  0.3995530000000  0.3948350000000 1.0
C      1  0.2572330000000  0.3912150000000  0.6118990000000 1.0
C      1  0.5422460000000  0.6590520000000  0.7370030000000 1.0
C      1  0.4502030000000  0.6596020000000  0.2555810000000 1.0
C      1  0.5425690000000  0.3534930000000  0.7440720000000 1.0
C      1  0.4649700000000  0.3507610000000  0.2638640000000 1.0
C      1  0.5342630000000  0.6517920000000  0.2557560000000 1.0
C      1  0.4576180000000  0.6577450000000  0.7381940000000 1.0
C      1  0.5490140000000  0.3424980000000  0.2630450000000 1.0
C      1  0.4581940000000  0.3526050000000  0.7432580000000 1.0
C      1  0.6870430000000  0.3662830000000  0.4557420000000 1.0
C      1  0.3188200000000  0.3638620000000  0.5499760000000 1.0
C      1  0.6766760000000  0.6303490000000  0.4442060000000 1.0
C      1  0.3183170000000  0.6288020000000  0.5492630000000 1.0
C      1  0.6865290000000  0.3622970000000  0.5562620000000 1.0
C      1  0.3234390000000  0.3748540000000  0.4510580000000 1.0
C      1  0.6769970000000  0.6269460000000  0.5435800000000 1.0
C      1  0.3134500000000  0.6397960000000  0.4500200000000 1.0
C      1  0.5924740000000  0.6517970000000  0.4052590000000 1.0
C      1  0.4027060000000  0.6497420000000  0.5873980000000 1.0
C      1  0.6012820000000  0.3572030000000  0.4148020000000 1.0
C      1  0.4039010000000  0.3545630000000  0.5922370000000 1.0
C      1  0.5943940000000  0.6499500000000  0.5851430000000 1.0
C      1  0.3986460000000  0.6515660000000  0.4080990000000 1.0
C      1  0.5995630000000  0.3553620000000  0.5942740000000 1.0
C      1  0.4081800000000  0.3564710000000  0.4130650000000 1.0
C      1  0.4501940000000  0.7172610000000  0.5455800000000 1.0
C      1  0.5451210000000  0.7185540000000  0.4473430000000 1.0
C      1  0.4549090000000  0.2885820000000  0.5524690000000 1.0
C      1  0.5501600000000  0.2912120000000  0.4551880000000 1.0
C      1  0.4496530000000  0.7177120000000  0.4479480000000 1.0
C      1  0.5456360000000  0.7173890000000  0.5447690000000 1.0
C      1  0.4555010000000  0.2892270000000  0.4549400000000 1.0
C      1  0.5497060000000  0.2894620000000  0.5528940000000 1.0
C      1  0.3033430000000  0.5128670000000  0.6630790000000 1.0
C      1  0.6957080000000  0.5183170000000  0.3318310000000 1.0
C      1  0.2440660000000  0.4384470000000  0.6800820000000 1.0
C      1  0.7566310000000  0.4451120000000  0.3250310000000 1.0
C      1  0.2412100000000  0.5603330000000  0.3203860000000 1.0
C      1  0.6958850000000  0.5152650000000  0.6622040000000 1.0
C      1  0.3035490000000  0.4878100000000  0.3358890000000 1.0
C      1  0.7568930000000  0.4438230000000  0.6848450000000 1.0
C      1  0.6002010000000  0.5057920000000  0.3350790000000 1.0
C      1  0.6003720000000  0.5064990000000  0.6634100000000 1.0
C      1  0.3989970000000  0.5051520000000  0.6629080000000 1.0
C      1  0.3991780000000  0.4996780000000  0.3367030000000 1.0
END
