TITL C-2159255-4746-1413 -0.00163376156041251 3375 -390.775909957127 0 0 60 (D5) n - 1
REM
REM in /scratch/bkarasulu/871
REM
REM
REM
REM
REM
REM ./C.cell (a2850807a9bf4ad07a5b6933b78d9264)
REM AIRSS Version 0.9.1 bugfix July 2018 build 013d7b7c2542+ Fri, 06 Jul 2018 19:26:36 +0100
REM compiler GCC version 9.2.1 20190827 (Red Hat 9.2.1-1)
REM options -cpp -mtune=generic -march=x86-64 -g -O0 -fpre-include=/usr/include/finclude/math-vector-fortran.h
REM seed -1901193604 -1734499914 1957607736 -1749409423 298806174 1978700792 -1950121623 -2020652356 1932843150 225917528 1187559112 -1120488215 -41648628 -1435205935 1612739638 -1295225615 -1068239054 2013900302 -877620281 -1087232486 -1886111145 1709835856 -1946694683 270121911 -1720514242 127439882 2076934663 2034604969 -43891439 897221459 649373580 614345787 1615236392
REM
CELL 1.54180   15.00000   15.00000   15.00000   90.00000   90.00000   90.00000
LATT -1
SFAC C  
C      1  0.6304540000000  0.3869220000000  0.6917380000000 1.0
C      1  0.4327700000000  0.3409860000000  0.6917370000000 1.0
C      1  0.3279940000000  0.5148010000000  0.6917380000000 1.0
C      1  0.4609250000000  0.6681600000000  0.6917400000000 1.0
C      1  0.6478560000000  0.5891250000000  0.6917390000000 1.0
C      1  0.6304540000000  0.6130780000000  0.3082620000000 1.0
C      1  0.4327700000000  0.6590140000000  0.3082630000000 1.0
C      1  0.3279940000000  0.4851990000000  0.3082620000000 1.0
C      1  0.4609250000000  0.3318400000000  0.3082600000000 1.0
C      1  0.6478560000000  0.4108750000000  0.3082610000000 1.0
C      1  0.3634490000000  0.6644930000000  0.4533810000000 1.0
C      1  0.6142450000000  0.6807000000000  0.4533810000000 1.0
C      1  0.7071590000000  0.4471860000000  0.4533790000000 1.0
C      1  0.5137860000000  0.2866590000000  0.4533780000000 1.0
C      1  0.3013610000000  0.4209630000000  0.4533790000000 1.0
C      1  0.3634490000000  0.3355070000000  0.5466190000000 1.0
C      1  0.6142450000000  0.3193000000000  0.5466190000000 1.0
C      1  0.7071590000000  0.5528140000000  0.5466210000000 1.0
C      1  0.5137860000000  0.7133410000000  0.5466220000000 1.0
C      1  0.3013610000000  0.5790370000000  0.5466210000000 1.0
C      1  0.5820890000000  0.5150920000000  0.4498210000000 1.0
C      1  0.5397200000000  0.4265920000000  0.4498200000000 1.0
C      1  0.4424590000000  0.4395400000000  0.4498200000000 1.0
C      1  0.4247180000000  0.5360410000000  0.4498210000000 1.0
C      1  0.5110140000000  0.5827360000000  0.4498210000000 1.0
C      1  0.5820890000000  0.4849080000000  0.5501790000000 1.0
C      1  0.5397200000000  0.5734080000000  0.5501800000000 1.0
C      1  0.4424590000000  0.5604600000000  0.5501800000000 1.0
C      1  0.4247180000000  0.4639590000000  0.5501790000000 1.0
C      1  0.5110140000000  0.4172640000000  0.5501790000000 1.0
C      1  0.3795380000000  0.3545930000000  0.4481340000000 1.0
C      1  0.3244850000000  0.5696340000000  0.4481350000000 1.0
C      1  0.5119890000000  0.6884450000000  0.4481360000000 1.0
C      1  0.6829260000000  0.5468310000000  0.4481350000000 1.0
C      1  0.6010650000000  0.3404990000000  0.4481340000000 1.0
C      1  0.3795380000000  0.6454070000000  0.5518660000000 1.0
C      1  0.3244850000000  0.4303660000000  0.5518650000000 1.0
C      1  0.5119890000000  0.3115550000000  0.5518640000000 1.0
C      1  0.6829260000000  0.4531690000000  0.5518650000000 1.0
C      1  0.6010650000000  0.6595010000000  0.5518660000000 1.0
C      1  0.6675010000000  0.3691840000000  0.6091690000000 1.0
C      1  0.4273480000000  0.3002710000000  0.6091680000000 1.0
C      1  0.2875970000000  0.5073770000000  0.6091690000000 1.0
C      1  0.4413800000000  0.7042870000000  0.6091710000000 1.0
C      1  0.6761740000000  0.6188780000000  0.6091700000000 1.0
C      1  0.6675010000000  0.6308160000000  0.3908310000000 1.0
C      1  0.4273480000000  0.6997290000000  0.3908320000000 1.0
C      1  0.2875970000000  0.4926230000000  0.3908310000000 1.0
C      1  0.4413800000000  0.2957130000000  0.3908290000000 1.0
C      1  0.6761740000000  0.3811220000000  0.3908300000000 1.0
C      1  0.5632490000000  0.5553850000000  0.2811070000000 1.0
C      1  0.5722190000000  0.4569620000000  0.2811060000000 1.0
C      1  0.4813840000000  0.4180170000000  0.2811060000000 1.0
C      1  0.4162760000000  0.4923710000000  0.2811070000000 1.0
C      1  0.4668710000000  0.5772690000000  0.2811080000000 1.0
C      1  0.5632490000000  0.4446150000000  0.7188930000000 1.0
C      1  0.5722190000000  0.5430380000000  0.7188940000000 1.0
C      1  0.4813840000000  0.5819830000000  0.7188940000000 1.0
C      1  0.4162760000000  0.5076290000000  0.7188930000000 1.0
C      1  0.4668710000000  0.4227310000000  0.7188920000000 1.0
END
