TITL C-2158984-8299-1061 -0.00251482526531617 3375 -394.241832662646 0 0 60 (C3i) n - 1
REM
REM in /scratch/bkarasulu/869
REM
REM
REM
REM
REM
REM ./C.cell (a2850807a9bf4ad07a5b6933b78d9264)
REM AIRSS Version 0.9.1 bugfix July 2018 build 013d7b7c2542+ Fri, 06 Jul 2018 19:26:36 +0100
REM compiler GCC version 9.2.1 20190827 (Red Hat 9.2.1-1)
REM options -cpp -mtune=generic -march=x86-64 -g -O0 -fpre-include=/usr/include/finclude/math-vector-fortran.h
REM seed 348586791 -1232569083 -1717795701 1873613092 253710103 -1615167127 -1975010809 -315107022 -1556400693 -715062565 1740884908 1415993039 -1717030489 -1369527771 -1863047851 1661457846 525016063 -12456899 943216303 -2087581623 2128655596 -1018498203 -1022512495 2082837725 50271448 979244663 171375764 909909523 902444282 -1675832375 128921883 1668551624 -51455626
REM
CELL 1.54180   15.00000   15.00000   15.00000   90.00000   90.00000   90.00000
LATT -1
SFAC C  
C      1  0.3569070000000  0.3449170000000  0.4490880000000 1.0
C      1  0.5627590000000  0.2985390000000  0.5509300000000 1.0
C      1  0.7058530000000  0.4536170000000  0.4490750000000 1.0
C      1  0.6430930000000  0.6550830000000  0.5509120000000 1.0
C      1  0.4372410000000  0.7014610000000  0.4490700000000 1.0
C      1  0.2941470000000  0.5463830000000  0.5509250000000 1.0
C      1  0.7376740000000  0.4325540000000  0.6081780000000 1.0
C      1  0.6772480000000  0.6720950000000  0.3918110000000 1.0
C      1  0.4395840000000  0.7395560000000  0.6081690000000 1.0
C      1  0.2623260000000  0.5674460000000  0.3918220000000 1.0
C      1  0.3227520000000  0.3279050000000  0.6081890000000 1.0
C      1  0.5604160000000  0.2604440000000  0.3918310000000 1.0
C      1  0.5301500000000  0.5872220000000  0.5956890000000 1.0
C      1  0.4395400000000  0.5697170000000  0.4043040000000 1.0
C      1  0.4093910000000  0.4825030000000  0.5956970000000 1.0
C      1  0.4698500000000  0.4127780000000  0.4043110000000 1.0
C      1  0.5604600000000  0.4302830000000  0.5956960000000 1.0
C      1  0.5906090000000  0.5174970000000  0.4043030000000 1.0
C      1  0.6782530000000  0.6038530000000  0.3326480000000 1.0
C      1  0.4991850000000  0.7063090000000  0.6673340000000 1.0
C      1  0.3209230000000  0.6024340000000  0.3326580000000 1.0
C      1  0.3217470000000  0.3961470000000  0.6673520000000 1.0
C      1  0.5008150000000  0.2936910000000  0.3326660000000 1.0
C      1  0.6790770000000  0.3975660000000  0.6673420000000 1.0
C      1  0.3875940000000  0.6461110000000  0.3872480000000 1.0
C      1  0.3172580000000  0.4757160000000  0.6127510000000 1.0
C      1  0.4296620000000  0.3295940000000  0.3872640000000 1.0
C      1  0.6124060000000  0.3538890000000  0.6127520000000 1.0
C      1  0.6827420000000  0.5242840000000  0.3872490000000 1.0
C      1  0.5703380000000  0.6704060000000  0.6127360000000 1.0
C      1  0.3936050000000  0.7047120000000  0.5387400000000 1.0
C      1  0.2695150000000  0.5102110000000  0.4612580000000 1.0
C      1  0.3759130000000  0.3055040000000  0.5387580000000 1.0
C      1  0.6063950000000  0.2952880000000  0.4612600000000 1.0
C      1  0.7304850000000  0.4897890000000  0.5387420000000 1.0
C      1  0.6240870000000  0.6944960000000  0.4612420000000 1.0
C      1  0.4906690000000  0.5549340000000  0.7622280000000 1.0
C      1  0.4477610000000  0.5193660000000  0.2377710000000 1.0
C      1  0.4571080000000  0.4644630000000  0.7622320000000 1.0
C      1  0.5093310000000  0.4450660000000  0.2377720000000 1.0
C      1  0.5522390000000  0.4806340000000  0.7622290000000 1.0
C      1  0.5428920000000  0.5355370000000  0.2377680000000 1.0
C      1  0.5305750000000  0.6791040000000  0.4338680000000 1.0
C      1  0.3601780000000  0.6160330000000  0.5661210000000 1.0
C      1  0.3296020000000  0.4369240000000  0.4338830000000 1.0
C      1  0.4694250000000  0.3208960000000  0.5661320000000 1.0
C      1  0.6398220000000  0.3839670000000  0.4338790000000 1.0
C      1  0.6703980000000  0.5630760000000  0.5661170000000 1.0
C      1  0.6225540000000  0.4748060000000  0.7018880000000 1.0
C      1  0.5830980000000  0.5935220000000  0.2981030000000 1.0
C      1  0.4605550000000  0.6187400000000  0.7018860000000 1.0
C      1  0.3774460000000  0.5251940000000  0.2981120000000 1.0
C      1  0.4169020000000  0.4064780000000  0.7018970000000 1.0
C      1  0.5394450000000  0.3812600000000  0.2981140000000 1.0
C      1  0.4039210000000  0.4804220000000  0.3885580000000 1.0
C      1  0.4689140000000  0.4070110000000  0.6114510000000 1.0
C      1  0.5649900000000  0.4265780000000  0.3885560000000 1.0
C      1  0.5960790000000  0.5195780000000  0.6114420000000 1.0
C      1  0.5310860000000  0.5929890000000  0.3885490000000 1.0
C      1  0.4350100000000  0.5734220000000  0.6114440000000 1.0
END
