TITL C-2159255-4746-906 -0.0014060066188837 3375 -382.878582560719 0 0 60 (C6) n - 1
REM
REM in /scratch/bkarasulu/871
REM
REM
REM
REM
REM
REM ./C.cell (a2850807a9bf4ad07a5b6933b78d9264)
REM AIRSS Version 0.9.1 bugfix July 2018 build 013d7b7c2542+ Fri, 06 Jul 2018 19:26:36 +0100
REM compiler GCC version 9.2.1 20190827 (Red Hat 9.2.1-1)
REM options -cpp -mtune=generic -march=x86-64 -g -O0 -fpre-include=/usr/include/finclude/math-vector-fortran.h
REM seed -1368135743 -835435436 172278768 65747833 1733998588 -952290744 526135074 1444348586 -266260749 -955842444 499197930 110545057 2118299808 1611912215 -18025556 -968655807 1325153168 -1539532396 951845064 -1372305593 461866441 -1044070865 942238380 -50705012 158899345 1369908019 1053527471 1226787737 -233224737 2058127174 1141002067 485558900 2079318116
REM
CELL 1.54180   15.00000   15.00000   15.00000   90.00000   90.00000   90.00000
LATT -1
SFAC C  
C      1  0.5513950000000  0.5132810000000  0.5947370000000 1.0
C      1  0.5513930000000  0.4245950000000  0.5588700000000 1.0
C      1  0.5513940000000  0.4113150000000  0.4641330000000 1.0
C      1  0.5513950000000  0.4867190000000  0.4052630000000 1.0
C      1  0.5513930000000  0.5754050000000  0.4411300000000 1.0
C      1  0.5513940000000  0.5886850000000  0.5358670000000 1.0
C      1  0.4486050000000  0.4867190000000  0.5947370000000 1.0
C      1  0.4486070000000  0.5754050000000  0.5588700000000 1.0
C      1  0.4486060000000  0.5886850000000  0.4641330000000 1.0
C      1  0.4486050000000  0.5132810000000  0.4052630000000 1.0
C      1  0.4486070000000  0.4245950000000  0.4411300000000 1.0
C      1  0.4486060000000  0.4113150000000  0.5358670000000 1.0
C      1  0.4522060000000  0.3912390000000  0.2981080000000 1.0
C      1  0.4522090000000  0.6204610000000  0.3048630000000 1.0
C      1  0.4522070000000  0.7292240000000  0.5067550000000 1.0
C      1  0.4522060000000  0.6087610000000  0.7018920000000 1.0
C      1  0.4522090000000  0.3795390000000  0.6951370000000 1.0
C      1  0.4522070000000  0.2707760000000  0.4932450000000 1.0
C      1  0.5477940000000  0.6087610000000  0.2981080000000 1.0
C      1  0.5477910000000  0.3795390000000  0.3048630000000 1.0
C      1  0.5477930000000  0.2707760000000  0.5067550000000 1.0
C      1  0.5477940000000  0.3912390000000  0.7018920000000 1.0
C      1  0.5477910000000  0.6204610000000  0.6951370000000 1.0
C      1  0.5477930000000  0.7292240000000  0.4932450000000 1.0
C      1  0.6018800000000  0.5375020000000  0.6747960000000 1.0
C      1  0.6018820000000  0.3673760000000  0.6198750000000 1.0
C      1  0.6018810000000  0.3298730000000  0.4450810000000 1.0
C      1  0.6018800000000  0.4624980000000  0.3252040000000 1.0
C      1  0.6018820000000  0.6326240000000  0.3801250000000 1.0
C      1  0.6018810000000  0.6701270000000  0.5549190000000 1.0
C      1  0.3981200000000  0.4624980000000  0.6747960000000 1.0
C      1  0.3981180000000  0.6326240000000  0.6198750000000 1.0
C      1  0.3981190000000  0.6701270000000  0.4450810000000 1.0
C      1  0.3981200000000  0.5375020000000  0.3252040000000 1.0
C      1  0.3981180000000  0.3673760000000  0.3801250000000 1.0
C      1  0.3981190000000  0.3298730000000  0.5549190000000 1.0
C      1  0.4236420000000  0.6846300000000  0.3579020000000 1.0
C      1  0.4236400000000  0.7153760000000  0.5888460000000 1.0
C      1  0.4236400000000  0.5307450000000  0.7309480000000 1.0
C      1  0.4236420000000  0.3153700000000  0.6420980000000 1.0
C      1  0.4236400000000  0.2846240000000  0.4111540000000 1.0
C      1  0.4236400000000  0.4692550000000  0.2690520000000 1.0
C      1  0.5763580000000  0.3153700000000  0.3579020000000 1.0
C      1  0.5763600000000  0.2846240000000  0.5888460000000 1.0
C      1  0.5763600000000  0.4692550000000  0.7309480000000 1.0
C      1  0.5763580000000  0.6846300000000  0.6420980000000 1.0
C      1  0.5763600000000  0.7153760000000  0.4111540000000 1.0
C      1  0.5763600000000  0.5307450000000  0.2690520000000 1.0
C      1  0.6797590000000  0.5932830000000  0.5274690000000 1.0
C      1  0.6797580000000  0.5228520000000  0.5945200000000 1.0
C      1  0.6797590000000  0.4295690000000  0.5670510000000 1.0
C      1  0.6797590000000  0.4067170000000  0.4725310000000 1.0
C      1  0.6797580000000  0.4771480000000  0.4054800000000 1.0
C      1  0.6797590000000  0.5704310000000  0.4329490000000 1.0
C      1  0.3202410000000  0.4067170000000  0.5274690000000 1.0
C      1  0.3202420000000  0.4771480000000  0.5945200000000 1.0
C      1  0.3202410000000  0.5704310000000  0.5670510000000 1.0
C      1  0.3202410000000  0.5932830000000  0.4725310000000 1.0
C      1  0.3202420000000  0.5228520000000  0.4054800000000 1.0
C      1  0.3202410000000  0.4295690000000  0.4329490000000 1.0
END
