TITL C-2159252-5904-351 -0.00156794811077574 3375 -404.379015907797 0 0 60 (C3) n - 1
REM
REM in /scratch/bkarasulu/870
REM
REM
REM
REM
REM
REM ./C.cell (a2850807a9bf4ad07a5b6933b78d9264)
REM AIRSS Version 0.9.1 bugfix July 2018 build 013d7b7c2542+ Fri, 06 Jul 2018 19:26:36 +0100
REM compiler GCC version 9.2.1 20190827 (Red Hat 9.2.1-1)
REM options -cpp -mtune=generic -march=x86-64 -g -O0 -fpre-include=/usr/include/finclude/math-vector-fortran.h
REM seed 543376410 -770377034 1538405898 -1603982626 -1844263747 616569054 138753015 907107855 -154689186 -119101033 7174669 143259335 -1064699576 119225040 1756923894 -1565779689 731052730 -2120051610 613376335 1756173044 -1894931391 1986626962 964915108 -1233053148 1660946726 341061715 -520598035 -2032801876 1292519575 -1458814502 -1861486691 1799018423 1780507446
REM
CELL 1.54180   15.00000   15.00000   15.00000   90.00000   90.00000   90.00000
LATT -1
SFAC C  
C      1  0.5045210000000  0.5423480000000  0.2858180000000 1.0
C      1  0.5045240000000  0.6656910000000  0.6383360000000 1.0
C      1  0.5045190000000  0.2987310000000  0.5688980000000 1.0
C      1  0.5735110000000  0.7223470000000  0.4632820000000 1.0
C      1  0.5735080000000  0.4220090000000  0.7054930000000 1.0
C      1  0.5735070000000  0.3624170000000  0.3242800000000 1.0
C      1  0.6940810000000  0.5432050000000  0.5813270000000 1.0
C      1  0.6940790000000  0.4093420000000  0.4913260000000 1.0
C      1  0.6940800000000  0.5542170000000  0.4203970000000 1.0
C      1  0.5462040000000  0.5861420000000  0.4959240000000 1.0
C      1  0.5462040000000  0.4618350000000  0.5712110000000 1.0
C      1  0.5462030000000  0.4587890000000  0.4259150000000 1.0
C      1  0.5923990000000  0.5469210000000  0.5777920000000 1.0
C      1  0.5923980000000  0.4105450000000  0.4963090000000 1.0
C      1  0.5923980000000  0.5492990000000  0.4189470000000 1.0
C      1  0.6407210000000  0.3179990000000  0.4992960000000 1.0
C      1  0.6407250000000  0.5929880000000  0.3373090000000 1.0
C      1  0.6407250000000  0.5957750000000  0.6564480000000 1.0
C      1  0.7018490000000  0.4590020000000  0.4064180000000 1.0
C      1  0.7018510000000  0.6029190000000  0.5058580000000 1.0
C      1  0.7018510000000  0.4448440000000  0.5807740000000 1.0
C      1  0.4365010000000  0.4806640000000  0.3167830000000 1.0
C      1  0.4365040000000  0.6697180000000  0.5694340000000 1.0
C      1  0.4365010000000  0.3563900000000  0.6068360000000 1.0
C      1  0.4383040000000  0.3339970000000  0.4205250000000 1.0
C      1  0.4383070000000  0.6532100000000  0.3905470000000 1.0
C      1  0.4383050000000  0.5195650000000  0.6819810000000 1.0
C      1  0.3530740000000  0.5486200000000  0.6513790000000 1.0
C      1  0.3530720000000  0.3459740000000  0.4609880000000 1.0
C      1  0.3530740000000  0.6121810000000  0.3806870000000 1.0
C      1  0.6014060000000  0.6755010000000  0.6182140000000 1.0
C      1  0.6014020000000  0.3112510000000  0.5874580000000 1.0
C      1  0.6014040000000  0.5200140000000  0.2873820000000 1.0
C      1  0.2847780000000  0.4673620000000  0.4043470000000 1.0
C      1  0.2847790000000  0.6005400000000  0.5141310000000 1.0
C      1  0.2847770000000  0.4388750000000  0.5745750000000 1.0
C      1  0.3520780000000  0.6234710000000  0.5855560000000 1.0
C      1  0.3520760000000  0.3655540000000  0.5587220000000 1.0
C      1  0.3520770000000  0.5177510000000  0.3487760000000 1.0
C      1  0.5858440000000  0.6714640000000  0.3363350000000 1.0
C      1  0.5858430000000  0.5573810000000  0.7248960000000 1.0
C      1  0.5858390000000  0.2779150000000  0.4318230000000 1.0
C      1  0.4973040000000  0.5909030000000  0.7017790000000 1.0
C      1  0.4972990000000  0.2811800000000  0.4724080000000 1.0
C      1  0.4973030000000  0.6346850000000  0.3188660000000 1.0
C      1  0.2867080000000  0.4851970000000  0.6519290000000 1.0
C      1  0.2867080000000  0.3772100000000  0.4057870000000 1.0
C      1  0.2867100000000  0.6443690000000  0.4353380000000 1.0
C      1  0.5924720000000  0.4804770000000  0.7731220000000 1.0
C      1  0.5924680000000  0.2746160000000  0.3411090000000 1.0
C      1  0.5924740000000  0.7516760000000  0.3788320000000 1.0
C      1  0.6360630000000  0.3877200000000  0.6376130000000 1.0
C      1  0.6360640000000  0.4383430000000  0.3285250000000 1.0
C      1  0.6360670000000  0.6807070000000  0.5269140000000 1.0
C      1  0.4833080000000  0.6714570000000  0.4795740000000 1.0
C      1  0.4833060000000  0.4333420000000  0.6532730000000 1.0
C      1  0.4833050000000  0.4019720000000  0.3602070000000 1.0
C      1  0.4882990000000  0.5022560000000  0.4976840000000 1.0
C      1  0.4002360000000  0.5022580000000  0.4976840000000 1.0
C      1  0.2586460000000  0.5022590000000  0.4976840000000 1.0
END
