TITL C-2158988-7926-202 -0.0021145123012147 3375 -404.056758984667 0 0 60 (C1) n - 1
REM
REM in /scratch/bkarasulu/868
REM
REM
REM
REM
REM
REM ./C.cell (a2850807a9bf4ad07a5b6933b78d9264)
REM AIRSS Version 0.9.1 bugfix July 2018 build 013d7b7c2542+ Fri, 06 Jul 2018 19:26:36 +0100
REM compiler GCC version 9.2.1 20190827 (Red Hat 9.2.1-1)
REM options -cpp -mtune=generic -march=x86-64 -g -O0 -fpre-include=/usr/include/finclude/math-vector-fortran.h
REM seed -1957504345 370076144 903126538 406783761 1293066820 458479548 -1128093281 410120581 309133966 2061917323 -132461635 1041896145 1823353310 1051752402 550625969 -2011581493 -606210191 1190765414 539967183 525617422 -134379224 -158347421 -981943701 -632094540 -1815047149 911529768 314359657 -672845640 -1864290455 2137254619 -1312719600 -1920654688 1000627349
REM
CELL 1.54180   15.00000   15.00000   15.00000   90.00000   90.00000   90.00000
LATT -1
SFAC C  
C      1  0.6611090000000  0.4289150000000  0.6300860000000 1.0
C      1  0.4367640000000  0.5888320000000  0.4446290000000 1.0
C      1  0.5706720000000  0.3389450000000  0.3394630000000 1.0
C      1  0.3239810000000  0.6216950000000  0.5659480000000 1.0
C      1  0.7111580000000  0.4910870000000  0.5694000000000 1.0
C      1  0.3585090000000  0.2978780000000  0.5147840000000 1.0
C      1  0.5016730000000  0.6805970000000  0.6953670000000 1.0
C      1  0.5728790000000  0.4978410000000  0.4553020000000 1.0
C      1  0.3444970000000  0.3928640000000  0.6516560000000 1.0
C      1  0.5029200000000  0.7228460000000  0.5050880000000 1.0
C      1  0.6622220000000  0.6976860000000  0.4702190000000 1.0
C      1  0.7078870000000  0.6662130000000  0.5424930000000 1.0
C      1  0.4101170000000  0.5261160000000  0.3058640000000 1.0
C      1  0.4398480000000  0.2694700000000  0.5463210000000 1.0
C      1  0.4778160000000  0.4901050000000  0.4438730000000 1.0
C      1  0.5108090000000  0.6540180000000  0.3070080000000 1.0
C      1  0.7008120000000  0.4698660000000  0.3876610000000 1.0
C      1  0.6314040000000  0.5430680000000  0.3761920000000 1.0
C      1  0.5063420000000  0.5899990000000  0.6913470000000 1.0
C      1  0.4981770000000  0.3837470000000  0.2909080000000 1.0
C      1  0.4605040000000  0.4646090000000  0.5907270000000 1.0
C      1  0.4830910000000  0.3043140000000  0.6274970000000 1.0
C      1  0.3296400000000  0.3435720000000  0.4336800000000 1.0
C      1  0.5758280000000  0.7441270000000  0.4499660000000 1.0
C      1  0.5742340000000  0.5361010000000  0.2870460000000 1.0
C      1  0.5711210000000  0.2918570000000  0.5894440000000 1.0
C      1  0.4461890000000  0.3865900000000  0.6632500000000 1.0
C      1  0.5443950000000  0.3173330000000  0.4313480000000 1.0
C      1  0.5741890000000  0.6979720000000  0.3615660000000 1.0
C      1  0.3136870000000  0.3660820000000  0.5691650000000 1.0
C      1  0.4593570000000  0.5241640000000  0.7425540000000 1.0
C      1  0.5365660000000  0.5274310000000  0.6155680000000 1.0
C      1  0.3471830000000  0.4751600000000  0.3546890000000 1.0
C      1  0.4159400000000  0.3439150000000  0.2908440000000 1.0
C      1  0.6478080000000  0.6424680000000  0.3883250000000 1.0
C      1  0.5773120000000  0.5639760000000  0.5336620000000 1.0
C      1  0.4394750000000  0.7479740000000  0.5723460000000 1.0
C      1  0.5080740000000  0.6291970000000  0.5001450000000 1.0
C      1  0.2874410000000  0.4133410000000  0.4852320000000 1.0
C      1  0.4801490000000  0.7550330000000  0.6602790000000 1.0
C      1  0.3430030000000  0.5781040000000  0.4810140000000 1.0
C      1  0.4342710000000  0.6096310000000  0.3466370000000 1.0
C      1  0.6524070000000  0.3414990000000  0.5895340000000 1.0
C      1  0.3119710000000  0.5697850000000  0.6513550000000 1.0
C      1  0.5270240000000  0.2627390000000  0.5039440000000 1.0
C      1  0.5591680000000  0.6125600000000  0.2395310000000 1.0
C      1  0.6468410000000  0.3929070000000  0.3633620000000 1.0
C      1  0.3564730000000  0.7084410000000  0.5690120000000 1.0
C      1  0.6005190000000  0.3960970000000  0.4567970000000 1.0
C      1  0.3593800000000  0.3794990000000  0.3511230000000 1.0
C      1  0.6822170000000  0.3648870000000  0.5007080000000 1.0
C      1  0.6775010000000  0.5817160000000  0.5605310000000 1.0
C      1  0.4951530000000  0.4794650000000  0.2815770000000 1.0
C      1  0.7269210000000  0.4463950000000  0.4838220000000 1.0
C      1  0.5030070000000  0.4384390000000  0.7256800000000 1.0
C      1  0.5851730000000  0.4614140000000  0.6741050000000 1.0
C      1  0.4451390000000  0.4351940000000  0.5075470000000 1.0
C      1  0.3089810000000  0.4979750000000  0.4393040000000 1.0
C      1  0.3132580000000  0.4794630000000  0.6742480000000 1.0
C      1  0.3698110000000  0.5367860000000  0.7192270000000 1.0
END
