TITL C-2159255-4746-678 -0.00144564099608207 3375 -402.825586995057 0 0 60 (C5) n - 1
REM
REM in /scratch/bkarasulu/871
REM
REM
REM
REM
REM
REM ./C.cell (a2850807a9bf4ad07a5b6933b78d9264)
REM AIRSS Version 0.9.1 bugfix July 2018 build 013d7b7c2542+ Fri, 06 Jul 2018 19:26:36 +0100
REM compiler GCC version 9.2.1 20190827 (Red Hat 9.2.1-1)
REM options -cpp -mtune=generic -march=x86-64 -g -O0 -fpre-include=/usr/include/finclude/math-vector-fortran.h
REM seed 880272972 -1198039128 1623756371 1355583771 446111120 869174656 1871864296 -961276189 -450762525 322938993 -93442625 -906929998 1476028810 1490850483 -488146382 267153765 1210532139 1494994782 -1129629188 -285099999 -2060135689 1340656224 1349654644 1842862962 1835274593 -1450956428 1560325730 -575736627 1583851403 1367992895 -808438214 -2109756452 874074023
REM
CELL 1.54180   15.00000   15.00000   15.00000   90.00000   90.00000   90.00000
LATT -1
SFAC C  
C      1  0.6855190000000  0.5387310000000  0.4273700000000 1.0
C      1  0.6855180000000  0.5810460000000  0.5143920000000 1.0
C      1  0.6855170000000  0.5113580000000  0.5815280000000 1.0
C      1  0.6855180000000  0.4259750000000  0.5359960000000 1.0
C      1  0.6855190000000  0.4428920000000  0.4407220000000 1.0
C      1  0.2922500000000  0.5252550000000  0.6434180000000 1.0
C      1  0.2922500000000  0.3714040000000  0.5683360000000 1.0
C      1  0.2922510000000  0.3952690000000  0.3988130000000 1.0
C      1  0.2922520000000  0.5638690000000  0.3691250000000 1.0
C      1  0.2922510000000  0.6442050000000  0.5202990000000 1.0
C      1  0.4695530000000  0.6304260000000  0.3362060000000 1.0
C      1  0.4695510000000  0.6960820000000  0.5734280000000 1.0
C      1  0.4695490000000  0.4907570000000  0.7091750000000 1.0
C      1  0.4695500000000  0.2982060000000  0.5558480000000 1.0
C      1  0.4695530000000  0.3845270000000  0.3253410000000 1.0
C      1  0.6364650000000  0.7438000000000  0.4841620000000 1.0
C      1  0.6364620000000  0.5904000000000  0.7269740000000 1.0
C      1  0.6364630000000  0.3120730000000  0.6561140000000 1.0
C      1  0.6364670000000  0.2934530000000  0.3695190000000 1.0
C      1  0.6364680000000  0.5602710000000  0.2632410000000 1.0
C      1  0.5313240000000  0.5657380000000  0.5460330000000 1.0
C      1  0.5313230000000  0.4765350000000  0.5767450000000 1.0
C      1  0.5313230000000  0.4197600000000  0.5013990000000 1.0
C      1  0.5313240000000  0.4738740000000  0.4241200000000 1.0
C      1  0.5313250000000  0.5640940000000  0.4517050000000 1.0
C      1  0.4136400000000  0.4690660000000  0.3253070000000 1.0
C      1  0.4136400000000  0.6565830000000  0.4165960000000 1.0
C      1  0.4136380000000  0.6277080000000  0.6231450000000 1.0
C      1  0.4136370000000  0.4223450000000  0.6595110000000 1.0
C      1  0.4136380000000  0.3242980000000  0.4754370000000 1.0
C      1  0.4286390000000  0.5720440000000  0.4622330000000 1.0
C      1  0.4286380000000  0.5581810000000  0.5568470000000 1.0
C      1  0.4286380000000  0.4639140000000  0.5728990000000 1.0
C      1  0.4286380000000  0.4195170000000  0.4882060000000 1.0
C      1  0.4286390000000  0.4863450000000  0.4198110000000 1.0
C      1  0.6407990000000  0.5176910000000  0.6711450000000 1.0
C      1  0.6408010000000  0.3427000000000  0.5697110000000 1.0
C      1  0.6408030000000  0.3850920000000  0.3719430000000 1.0
C      1  0.6408030000000  0.5862820000000  0.3511440000000 1.0
C      1  0.6408010000000  0.6682350000000  0.5360620000000 1.0
C      1  0.5591260000000  0.4326630000000  0.3355260000000 1.0
C      1  0.5591260000000  0.6356170000000  0.3851330000000 1.0
C      1  0.5591240000000  0.6511530000000  0.5934840000000 1.0
C      1  0.5591230000000  0.4578000000000  0.6726430000000 1.0
C      1  0.5591240000000  0.3227660000000  0.5132160000000 1.0
C      1  0.3157730000000  0.3521600000000  0.4790350000000 1.0
C      1  0.3157750000000  0.4742530000000  0.3529160000000 1.0
C      1  0.3157740000000  0.6319280000000  0.4300600000000 1.0
C      1  0.3157730000000  0.6072830000000  0.6038570000000 1.0
C      1  0.3157720000000  0.4343770000000  0.6341240000000 1.0
C      1  0.4685950000000  0.5461990000000  0.2939940000000 1.0
C      1  0.4685930000000  0.7101990000000  0.4802790000000 1.0
C      1  0.4685910000000  0.5837100000000  0.6938160000000 1.0
C      1  0.4685910000000  0.3415370000000  0.6395060000000 1.0
C      1  0.4685930000000  0.3183540000000  0.3924030000000 1.0
C      1  0.5583240000000  0.5121190000000  0.2797280000000 1.0
C      1  0.5583230000000  0.7132370000000  0.4434590000000 1.0
C      1  0.5583210000000  0.6196660000000  0.6853280000000 1.0
C      1  0.5583200000000  0.3607210000000  0.6710800000000 1.0
C      1  0.5583220000000  0.2942530000000  0.4204060000000 1.0
END
