TITL C-2159255-4746-1009 -0.0028292547856428 3375 -407.932829388015 0 0 60 (C1) n - 1
REM
REM in /scratch/bkarasulu/871
REM
REM
REM
REM
REM
REM ./C.cell (a2850807a9bf4ad07a5b6933b78d9264)
REM AIRSS Version 0.9.1 bugfix July 2018 build 013d7b7c2542+ Fri, 06 Jul 2018 19:26:36 +0100
REM compiler GCC version 9.2.1 20190827 (Red Hat 9.2.1-1)
REM options -cpp -mtune=generic -march=x86-64 -g -O0 -fpre-include=/usr/include/finclude/math-vector-fortran.h
REM seed -555567782 -1616304987 -14092166 1225909812 -1594936841 461071087 967938279 565069981 -2129436858 624021095 -328158478 1206810368 1131180198 2073871880 -939555569 2098537207 1626120851 -247715279 321335175 1039527697 -171221863 1931634424 -1755513927 1534630512 1069596066 1379234400 563997463 745778027 -1078356609 -1250184459 -1893525443 1595355796 -77590828
REM
CELL 1.54180   15.00000   15.00000   15.00000   90.00000   90.00000   90.00000
LATT -1
SFAC C  
C      1  0.5280270000000  0.6907460000000  0.7158320000000 1.0
C      1  0.5301690000000  0.5175650000000  0.8614300000000 1.0
C      1  0.4876900000000  0.4406500000000  0.8688730000000 1.0
C      1  0.4890570000000  0.3800110000000  0.8072070000000 1.0
C      1  0.5348910000000  0.3844750000000  0.7264150000000 1.0
C      1  0.5953370000000  0.4641580000000  0.7275380000000 1.0
C      1  0.5873200000000  0.6220700000000  0.7336600000000 1.0
C      1  0.4977640000000  0.2918670000000  0.4064380000000 1.0
C      1  0.6352430000000  0.3849320000000  0.4330680000000 1.0
C      1  0.6842030000000  0.5451570000000  0.4244180000000 1.0
C      1  0.5773990000000  0.6759470000000  0.4188820000000 1.0
C      1  0.4145210000000  0.6663650000000  0.4132380000000 1.0
C      1  0.3084170000000  0.5421050000000  0.3822150000000 1.0
C      1  0.3563460000000  0.3783960000000  0.3817150000000 1.0
C      1  0.6319490000000  0.5936240000000  0.6531080000000 1.0
C      1  0.4763800000000  0.6818680000000  0.6431280000000 1.0
C      1  0.3765770000000  0.5457750000000  0.6219270000000 1.0
C      1  0.3524990000000  0.4517560000000  0.6146300000000 1.0
C      1  0.4047020000000  0.3661860000000  0.6179120000000 1.0
C      1  0.4971700000000  0.3547330000000  0.6434670000000 1.0
C      1  0.6377090000000  0.4987170000000  0.6538710000000 1.0
C      1  0.6372720000000  0.4674880000000  0.5633130000000 1.0
C      1  0.6361700000000  0.6251860000000  0.5655780000000 1.0
C      1  0.4768140000000  0.7132290000000  0.5530370000000 1.0
C      1  0.3424930000000  0.6053630000000  0.5500850000000 1.0
C      1  0.3018750000000  0.4463430000000  0.5356460000000 1.0
C      1  0.3880750000000  0.3109900000000  0.5378690000000 1.0
C      1  0.5377120000000  0.3447540000000  0.5537710000000 1.0
C      1  0.3785760000000  0.5187660000000  0.4458300000000 1.0
C      1  0.4045650000000  0.4292650000000  0.4559250000000 1.0
C      1  0.4887280000000  0.4207250000000  0.4995690000000 1.0
C      1  0.5452060000000  0.4522910000000  0.4309280000000 1.0
C      1  0.5489160000000  0.4957870000000  0.5175270000000 1.0
C      1  0.5049650000000  0.5771850000000  0.5209300000000 1.0
C      1  0.4562030000000  0.5710870000000  0.4345560000000 1.0
C      1  0.4058550000000  0.5973770000000  0.2791580000000 1.0
C      1  0.3795540000000  0.5029080000000  0.2663260000000 1.0
C      1  0.4839190000000  0.3787580000000  0.2836100000000 1.0
C      1  0.5762910000000  0.3821350000000  0.2971200000000 1.0
C      1  0.6239720000000  0.4669240000000  0.3019210000000 1.0
C      1  0.5752780000000  0.5599580000000  0.3126470000000 1.0
C      1  0.4994270000000  0.6262680000000  0.2896880000000 1.0
C      1  0.6311010000000  0.3751990000000  0.5289550000000 1.0
C      1  0.6771480000000  0.5485020000000  0.5167690000000 1.0
C      1  0.5614300000000  0.6671360000000  0.5149440000000 1.0
C      1  0.3960040000000  0.6827210000000  0.5073050000000 1.0
C      1  0.3008350000000  0.5380740000000  0.4991650000000 1.0
C      1  0.3315870000000  0.3675930000000  0.4856160000000 1.0
C      1  0.4785540000000  0.2888810000000  0.4998970000000 1.0
C      1  0.6298230000000  0.6083630000000  0.3788930000000 1.0
C      1  0.4990530000000  0.6866110000000  0.3657100000000 1.0
C      1  0.3493620000000  0.6260650000000  0.3476760000000 1.0
C      1  0.3231450000000  0.4625030000000  0.3327120000000 1.0
C      1  0.4327050000000  0.3283490000000  0.3470130000000 1.0
C      1  0.5878210000000  0.3240850000000  0.3735640000000 1.0
C      1  0.6756040000000  0.4596480000000  0.3812170000000 1.0
C      1  0.5781880000000  0.5395930000000  0.7876970000000 1.0
C      1  0.4587490000000  0.4669090000000  0.2895500000000 1.0
C      1  0.4598910000000  0.5866020000000  0.6121090000000 1.0
C      1  0.5056780000000  0.5140010000000  0.3676360000000 1.0
END
