TITL C-2158984-8299-856 -0.00161378417026147 3375 -403.974961010351 0 0 60 (C5) n - 1
REM
REM in /scratch/bkarasulu/869
REM
REM
REM
REM
REM
REM ./C.cell (a2850807a9bf4ad07a5b6933b78d9264)
REM AIRSS Version 0.9.1 bugfix July 2018 build 013d7b7c2542+ Fri, 06 Jul 2018 19:26:36 +0100
REM compiler GCC version 9.2.1 20190827 (Red Hat 9.2.1-1)
REM options -cpp -mtune=generic -march=x86-64 -g -O0 -fpre-include=/usr/include/finclude/math-vector-fortran.h
REM seed -673257544 -315898725 -1804233169 -27390178 1163596410 -210347682 -1424804151 1254242287 -1277365331 2034499366 139093885 469117556 586938323 1279328354 -451091080 -314787963 -1937271728 -369870772 1930884890 -833890138 -1398248494 -1706192770 407170633 -1426239316 369371780 -2057989388 1431507324 -137529353 312514518 -1824668368 -1440845933 -1686709118 1491538349
REM
CELL 1.54180   15.00000   15.00000   15.00000   90.00000   90.00000   90.00000
LATT -1
SFAC C  
C      1  0.5227120000000  0.4226550000000  0.4313340000000 1.0
C      1  0.4334590000000  0.4544990000000  0.4313340000000 1.0
C      1  0.4361630000000  0.5492240000000  0.4313340000000 1.0
C      1  0.5270880000000  0.5759230000000  0.4313340000000 1.0
C      1  0.5805780000000  0.4976990000000  0.4313350000000 1.0
C      1  0.6401400000000  0.5008210000000  0.3454460000000 1.0
C      1  0.5440860000000  0.3669740000000  0.3454460000000 1.0
C      1  0.3871080000000  0.4169650000000  0.3454450000000 1.0
C      1  0.3861440000000  0.5817090000000  0.3454460000000 1.0
C      1  0.5425260000000  0.6335330000000  0.3454460000000 1.0
C      1  0.7209020000000  0.4099970000000  0.5240740000000 1.0
C      1  0.4826650000000  0.2620960000000  0.5240730000000 1.0
C      1  0.2683830000000  0.4429720000000  0.5240720000000 1.0
C      1  0.3741910000000  0.7026580000000  0.5240720000000 1.0
C      1  0.6538600000000  0.6822770000000  0.5240740000000 1.0
C      1  0.5793960000000  0.5006100000000  0.2730680000000 1.0
C      1  0.5251150000000  0.4246800000000  0.2730680000000 1.0
C      1  0.4361270000000  0.4528390000000  0.2730680000000 1.0
C      1  0.4354100000000  0.5461740000000  0.2730680000000 1.0
C      1  0.5239550000000  0.5756980000000  0.2730680000000 1.0
C      1  0.4193890000000  0.4975680000000  0.7005310000000 1.0
C      1  0.4727760000000  0.5759130000000  0.7005310000000 1.0
C      1  0.5637840000000  0.5493480000000  0.7005320000000 1.0
C      1  0.5666430000000  0.4545860000000  0.7005320000000 1.0
C      1  0.4774020000000  0.4225840000000  0.7005310000000 1.0
C      1  0.5821840000000  0.4910210000000  0.5338660000000 1.0
C      1  0.5168560000000  0.4190620000000  0.5338660000000 1.0
C      1  0.4282320000000  0.4589570000000  0.5338650000000 1.0
C      1  0.4387880000000  0.5555720000000  0.5338650000000 1.0
C      1  0.5339360000000  0.5753880000000  0.5338660000000 1.0
C      1  0.6437500000000  0.6104560000000  0.3658360000000 1.0
C      1  0.6494740000000  0.3974230000000  0.3658360000000 1.0
C      1  0.4486320000000  0.3261450000000  0.3658350000000 1.0
C      1  0.3187800000000  0.4951320000000  0.3658350000000 1.0
C      1  0.4393720000000  0.6708460000000  0.3658360000000 1.0
C      1  0.5854680000000  0.6614800000000  0.5915560000000 1.0
C      1  0.6799890000000  0.4686150000000  0.5915570000000 1.0
C      1  0.5257700000000  0.3191210000000  0.5915560000000 1.0
C      1  0.3359370000000  0.4195970000000  0.5915540000000 1.0
C      1  0.3728340000000  0.6311860000000  0.5915540000000 1.0
C      1  0.3923730000000  0.2875200000000  0.5274190000000 1.0
C      1  0.2646590000000  0.5367010000000  0.5274190000000 1.0
C      1  0.4621820000000  0.7351620000000  0.5274200000000 1.0
C      1  0.7119660000000  0.6086360000000  0.5274220000000 1.0
C      1  0.6688200000000  0.3319810000000  0.5274200000000 1.0
C      1  0.6357660000000  0.4108940000000  0.6555960000000 1.0
C      1  0.4572080000000  0.3433420000000  0.6555940000000 1.0
C      1  0.3377850000000  0.4922860000000  0.6555940000000 1.0
C      1  0.4425370000000  0.6518900000000  0.6555950000000 1.0
C      1  0.6266990000000  0.6015860000000  0.6555960000000 1.0
C      1  0.4360770000000  0.2782630000000  0.4436180000000 1.0
C      1  0.2693620000000  0.4922760000000  0.4436180000000 1.0
C      1  0.4213850000000  0.7169630000000  0.4436190000000 1.0
C      1  0.6820500000000  0.6418130000000  0.4436200000000 1.0
C      1  0.6911310000000  0.3706850000000  0.4436200000000 1.0
C      1  0.5049270000000  0.7070510000000  0.6076580000000 1.0
C      1  0.6984390000000  0.5592960000000  0.6076590000000 1.0
C      1  0.6177140000000  0.3295970000000  0.6076570000000 1.0
C      1  0.3743130000000  0.3353890000000  0.6076550000000 1.0
C      1  0.3046050000000  0.5686680000000  0.6076560000000 1.0
END
