TITL C-2158988-7926-449 -0.00220711169528633 3375 -410.993132904428 0 0 60 (C1) n - 1
REM
REM in /scratch/bkarasulu/868
REM
REM
REM
REM
REM
REM ./C.cell (a2850807a9bf4ad07a5b6933b78d9264)
REM AIRSS Version 0.9.1 bugfix July 2018 build 013d7b7c2542+ Fri, 06 Jul 2018 19:26:36 +0100
REM compiler GCC version 9.2.1 20190827 (Red Hat 9.2.1-1)
REM options -cpp -mtune=generic -march=x86-64 -g -O0 -fpre-include=/usr/include/finclude/math-vector-fortran.h
REM seed 1037557489 -1012857806 454509122 1833852429 2006318825 1264718181 1971551342 -2051527296 -764375970 1388841018 -234584970 2088803554 -1437771533 -367150754 2032989941 160983111 -1441828801 1053688346 -720643123 -160282655 1358625510 671249627 -292754143 -1402753748 -1315619150 2002393581 1789305898 -1891188281 -299340957 132605463 -829052770 -1396511264 803252470
REM
CELL 1.54180   15.00000   15.00000   15.00000   90.00000   90.00000   90.00000
LATT -1
SFAC C  
C      1  0.5333920000000  0.2848180000000  0.5768820000000 1.0
C      1  0.3546970000000  0.4631340000000  0.7212180000000 1.0
C      1  0.6518450000000  0.6511990000000  0.4208590000000 1.0
C      1  0.3196920000000  0.3616640000000  0.3992110000000 1.0
C      1  0.6685480000000  0.6404230000000  0.5848320000000 1.0
C      1  0.5662880000000  0.6985530000000  0.4186150000000 1.0
C      1  0.6264440000000  0.5727600000000  0.7167870000000 1.0
C      1  0.4542000000000  0.3340840000000  0.3225250000000 1.0
C      1  0.4292750000000  0.2843690000000  0.4704920000000 1.0
C      1  0.5822710000000  0.2997990000000  0.4147530000000 1.0
C      1  0.6297890000000  0.5931000000000  0.3481380000000 1.0
C      1  0.6994200000000  0.4845160000000  0.5872170000000 1.0
C      1  0.6648720000000  0.3921220000000  0.5989560000000 1.0
C      1  0.7226260000000  0.3833810000000  0.4407390000000 1.0
C      1  0.3105010000000  0.3849810000000  0.4919840000000 1.0
C      1  0.4473140000000  0.7492580000000  0.6254940000000 1.0
C      1  0.6399660000000  0.5005610000000  0.3451810000000 1.0
C      1  0.4929930000000  0.3685140000000  0.6807940000000 1.0
C      1  0.4493460000000  0.4372420000000  0.7302670000000 1.0
C      1  0.5045220000000  0.7334160000000  0.4810070000000 1.0
C      1  0.3700280000000  0.5744360000000  0.3538180000000 1.0
C      1  0.2877380000000  0.4771240000000  0.5165800000000 1.0
C      1  0.6712420000000  0.3058950000000  0.4454200000000 1.0
C      1  0.3936860000000  0.2998450000000  0.3866910000000 1.0
C      1  0.4466180000000  0.3161800000000  0.6136710000000 1.0
C      1  0.4015080000000  0.6034200000000  0.4454850000000 1.0
C      1  0.3905310000000  0.5895450000000  0.6239660000000 1.0
C      1  0.5518260000000  0.5429090000000  0.4766230000000 1.0
C      1  0.3320470000000  0.5390130000000  0.6905710000000 1.0
C      1  0.4880960000000  0.6433810000000  0.2653120000000 1.0
C      1  0.5192840000000  0.4760600000000  0.5190840000000 1.0
C      1  0.3950370000000  0.3527570000000  0.5356430000000 1.0
C      1  0.5213610000000  0.2690590000000  0.4825760000000 1.0
C      1  0.4801700000000  0.4799930000000  0.2774090000000 1.0
C      1  0.2024680000000  0.5142490000000  0.4902700000000 1.0
C      1  0.3744080000000  0.5326720000000  0.5287480000000 1.0
C      1  0.4967560000000  0.5871860000000  0.4198460000000 1.0
C      1  0.5821290000000  0.3488790000000  0.6341950000000 1.0
C      1  0.5934470000000  0.6904970000000  0.6161230000000 1.0
C      1  0.4145400000000  0.4136270000000  0.2904400000000 1.0
C      1  0.6954540000000  0.6166620000000  0.4959340000000 1.0
C      1  0.5899250000000  0.5167250000000  0.7779350000000 1.0
C      1  0.5007970000000  0.5142030000000  0.7461520000000 1.0
C      1  0.4757810000000  0.5920370000000  0.6930950000000 1.0
C      1  0.6836540000000  0.5629590000000  0.6413540000000 1.0
C      1  0.3276770000000  0.4261240000000  0.3280870000000 1.0
C      1  0.7149970000000  0.5221020000000  0.4965000000000 1.0
C      1  0.4141030000000  0.6902670000000  0.4896210000000 1.0
C      1  0.6995890000000  0.3455570000000  0.5248300000000 1.0
C      1  0.5649760000000  0.4460690000000  0.3127660000000 1.0
C      1  0.4323210000000  0.4550340000000  0.5160620000000 1.0
C      1  0.5371860000000  0.6389200000000  0.3443450000000 1.0
C      1  0.5285700000000  0.7466190000000  0.5736040000000 1.0
C      1  0.2338200000000  0.5239390000000  0.4113830000000 1.0
C      1  0.7027370000000  0.4706650000000  0.4166340000000 1.0
C      1  0.3961010000000  0.6835150000000  0.5860680000000 1.0
C      1  0.2990630000000  0.5150950000000  0.3477230000000 1.0
C      1  0.5579690000000  0.6378400000000  0.6859370000000 1.0
C      1  0.4385680000000  0.5680150000000  0.2817000000000 1.0
C      1  0.5457920000000  0.3530380000000  0.3418510000000 1.0
END
