TITL C-2159255-4746-93 -0.00315645022259014 3375 -404.482318574437 0 0 60 (C5v) n - 1
REM
REM in /scratch/bkarasulu/871
REM
REM
REM
REM
REM
REM ./C.cell (a2850807a9bf4ad07a5b6933b78d9264)
REM AIRSS Version 0.9.1 bugfix July 2018 build 013d7b7c2542+ Fri, 06 Jul 2018 19:26:36 +0100
REM compiler GCC version 9.2.1 20190827 (Red Hat 9.2.1-1)
REM options -cpp -mtune=generic -march=x86-64 -g -O0 -fpre-include=/usr/include/finclude/math-vector-fortran.h
REM seed 15979278 -123265223 652581335 -511921256 -1490470670 -1740530880 1256988959 371024069 1252908459 399903278 109530155 402471236 1347718342 -993652918 1085021092 -1375326720 -375544030 -1265107246 -2017143258 1023468679 -2120232324 -847531834 -1973261187 2136947903 -981785373 1534552276 41191486 -1058960786 1080606846 1419537627 -426179262 -1218055476 -348707353
REM
CELL 1.54180   15.00000   15.00000   15.00000   90.00000   90.00000   90.00000
LATT -1
SFAC C  
C      1  0.3550690000000  0.6155720000000  0.4291490000000 1.0
C      1  0.5225970000000  0.6155700000000  0.3402600000000 1.0
C      1  0.6589040000000  0.6155730000000  0.4721250000000 1.0
C      1  0.5756120000000  0.6155760000000  0.6425060000000 1.0
C      1  0.3878350000000  0.6155750000000  0.6159430000000 1.0
C      1  0.5809140000000  0.3026050000000  0.4858210000000 1.0
C      1  0.5384890000000  0.3026020000000  0.5725810000000 1.0
C      1  0.4428650000000  0.3025980000000  0.5590440000000 1.0
C      1  0.4261910000000  0.3025980000000  0.4639160000000 1.0
C      1  0.5115100000000  0.3026020000000  0.4186620000000 1.0
C      1  0.5380410000000  0.5473300000000  0.5716880000000 1.0
C      1  0.4435760000000  0.5473260000000  0.5583270000000 1.0
C      1  0.4270930000000  0.5473260000000  0.4643550000000 1.0
C      1  0.5113710000000  0.5473290000000  0.4196410000000 1.0
C      1  0.5799390000000  0.5473320000000  0.4859760000000 1.0
C      1  0.3792070000000  0.4873450000000  0.7289190000000 1.0
C      1  0.2449540000000  0.4873440000000  0.4558560000000 1.0
C      1  0.4631720000000  0.4873450000000  0.2437880000000 1.0
C      1  0.7322870000000  0.4873450000000  0.3858020000000 1.0
C      1  0.6803870000000  0.4873450000000  0.6856210000000 1.0
C      1  0.7329000000000  0.4722300000000  0.6138420000000 1.0
C      1  0.4637000000000  0.4722300000000  0.7566820000000 1.0
C      1  0.2446640000000  0.4722260000000  0.5447920000000 1.0
C      1  0.3785020000000  0.4722230000000  0.2710030000000 1.0
C      1  0.6802420000000  0.4722260000000  0.3136820000000 1.0
C      1  0.5700700000000  0.7012800000000  0.6320650000000 1.0
C      1  0.3960510000000  0.7012790000000  0.6074480000000 1.0
C      1  0.3656850000000  0.7012760000000  0.4343390000000 1.0
C      1  0.5209400000000  0.7012750000000  0.3519640000000 1.0
C      1  0.6472580000000  0.7012770000000  0.4741670000000 1.0
C      1  0.5803230000000  0.3106480000000  0.6514620000000 1.0
C      1  0.3807750000000  0.3106390000000  0.6232080000000 1.0
C      1  0.3459780000000  0.3106380000000  0.4246970000000 1.0
C      1  0.5240230000000  0.3106490000000  0.3302560000000 1.0
C      1  0.6688600000000  0.3106550000000  0.4704080000000 1.0
C      1  0.5389320000000  0.7623180000000  0.5733730000000 1.0
C      1  0.4422450000000  0.7623180000000  0.5596960000000 1.0
C      1  0.4253740000000  0.7623160000000  0.4635150000000 1.0
C      1  0.5116350000000  0.7623140000000  0.4177480000000 1.0
C      1  0.5818180000000  0.7623150000000  0.4856440000000 1.0
C      1  0.7483770000000  0.3355300000000  0.4564540000000 1.0
C      1  0.6181670000000  0.3355300000000  0.7227710000000 1.0
C      1  0.3246540000000  0.3355260000000  0.6812370000000 1.0
C      1  0.2734450000000  0.3355220000000  0.3892550000000 1.0
C      1  0.5353210000000  0.3355260000000  0.2503190000000 1.0
C      1  0.7572980000000  0.4873560000000  0.5283180000000 1.0
C      1  0.5525760000000  0.4873570000000  0.7534510000000 1.0
C      1  0.2752070000000  0.4873500000000  0.6283190000000 1.0
C      1  0.3085010000000  0.4873420000000  0.3258620000000 1.0
C      1  0.6064400000000  0.4873470000000  0.2640530000000 1.0
C      1  0.6277340000000  0.4238890000000  0.7407540000000 1.0
C      1  0.3105040000000  0.4238870000000  0.6958820000000 1.0
C      1  0.2551480000000  0.4238820000000  0.3803110000000 1.0
C      1  0.5381710000000  0.4238830000000  0.2301430000000 1.0
C      1  0.7684450000000  0.4238880000000  0.4529150000000 1.0
C      1  0.7272990000000  0.5539270000000  0.4601260000000 1.0
C      1  0.6081570000000  0.5539260000000  0.7038420000000 1.0
C      1  0.3395620000000  0.5539220000000  0.6658490000000 1.0
C      1  0.2926880000000  0.5539180000000  0.3986610000000 1.0
C      1  0.5323180000000  0.5539220000000  0.2715060000000 1.0
END
