TITL C-2159255-4746-510 -0.00216501490276269 3375 -400.339100018435 0 0 60 (C3) n - 1
REM
REM in /scratch/bkarasulu/871
REM
REM
REM
REM
REM
REM ./C.cell (a2850807a9bf4ad07a5b6933b78d9264)
REM AIRSS Version 0.9.1 bugfix July 2018 build 013d7b7c2542+ Fri, 06 Jul 2018 19:26:36 +0100
REM compiler GCC version 9.2.1 20190827 (Red Hat 9.2.1-1)
REM options -cpp -mtune=generic -march=x86-64 -g -O0 -fpre-include=/usr/include/finclude/math-vector-fortran.h
REM seed 941986440 -592612763 1564487650 -585430766 143764913 1460441524 -1544606531 883365768 -1423009347 229511013 1883251071 298946574 1031305425 -1489689567 1723765108 1333094493 1684929839 871854281 -2091676703 2084926097 2033020241 1486958821 108439535 393410572 21801771 1261248807 742384854 -1818769141 1124269187 -2119121815 1811576088 2111548363 241730363
REM
CELL 1.54180   15.00000   15.00000   15.00000   90.00000   90.00000   90.00000
LATT -1
SFAC C  
C      1  0.6688320000000  0.4498730000000  0.3684780000000 1.0
C      1  0.3016820000000  0.4498720000000  0.4195480000000 1.0
C      1  0.5294860000000  0.4498700000000  0.7119740000000 1.0
C      1  0.3790200000000  0.2839440000000  0.4848810000000 1.0
C      1  0.5473980000000  0.2839430000000  0.6123270000000 1.0
C      1  0.5735800000000  0.2839450000000  0.4027850000000 1.0
C      1  0.6635960000000  0.4107530000000  0.6091320000000 1.0
C      1  0.5127140000000  0.4107560000000  0.3037540000000 1.0
C      1  0.3236890000000  0.4107540000000  0.5871110000000 1.0
C      1  0.3982950000000  0.6330260000000  0.6603810000000 1.0
C      1  0.6897460000000  0.6330280000000  0.5078910000000 1.0
C      1  0.4119600000000  0.6330300000000  0.3317320000000 1.0
C      1  0.4865880000000  0.5316130000000  0.7385590000000 1.0
C      1  0.7133020000000  0.5316160000000  0.3923380000000 1.0
C      1  0.3001110000000  0.5316160000000  0.3691060000000 1.0
C      1  0.6239480000000  0.5673680000000  0.6691950000000 1.0
C      1  0.5845510000000  0.5673710000000  0.3080620000000 1.0
C      1  0.2914980000000  0.5673690000000  0.5227460000000 1.0
C      1  0.5521740000000  0.6806290000000  0.4027520000000 1.0
C      1  0.3896900000000  0.6806270000000  0.5034440000000 1.0
C      1  0.5581340000000  0.6806270000000  0.5938110000000 1.0
C      1  0.5210860000000  0.6015830000000  0.4469670000000 1.0
C      1  0.4435270000000  0.6015820000000  0.5082560000000 1.0
C      1  0.5353850000000  0.6015810000000  0.5447800000000 1.0
C      1  0.3980700000000  0.4969570000000  0.2309370000000 1.0
C      1  0.3179540000000  0.4969490000000  0.7228100000000 1.0
C      1  0.7839860000000  0.4969510000000  0.5462520000000 1.0
C      1  0.6211520000000  0.3183130000000  0.5740040000000 1.0
C      1  0.5035150000000  0.3183140000000  0.3580740000000 1.0
C      1  0.3753320000000  0.3183130000000  0.5679160000000 1.0
C      1  0.4931560000000  0.6650750000000  0.6655280000000 1.0
C      1  0.6467720000000  0.6650780000000  0.4231660000000 1.0
C      1  0.3600710000000  0.6650780000000  0.4113120000000 1.0
C      1  0.3432970000000  0.6381760000000  0.5775030000000 1.0
C      1  0.6454690000000  0.6381770000000  0.5969580000000 1.0
C      1  0.5112320000000  0.6381790000000  0.3255430000000 1.0
C      1  0.4642010000000  0.3992030000000  0.6650220000000 1.0
C      1  0.6608140000000  0.3992040000000  0.4484900000000 1.0
C      1  0.3749850000000  0.3992050000000  0.3864850000000 1.0
C      1  0.3927260000000  0.5558630000000  0.7196170000000 1.0
C      1  0.7438310000000  0.5558650000000  0.4830950000000 1.0
C      1  0.3634460000000  0.5558670000000  0.2972910000000 1.0
C      1  0.5948660000000  0.4704430000000  0.3108580000000 1.0
C      1  0.2887630000000  0.4704400000000  0.5124130000000 1.0
C      1  0.6163680000000  0.4704390000000  0.6767280000000 1.0
C      1  0.2940950000000  0.6006320000000  0.4315790000000 1.0
C      1  0.5436970000000  0.6006300000000  0.7125310000000 1.0
C      1  0.6622060000000  0.6006330000000  0.3558940000000 1.0
C      1  0.7635460000000  0.4334670000000  0.6012490000000 1.0
C      1  0.4559180000000  0.4334720000000  0.2211340000000 1.0
C      1  0.2805410000000  0.4334680000000  0.6776090000000 1.0
C      1  0.4552070000000  0.4514870000000  0.3732100000000 1.0
C      1  0.4125930000000  0.4514860000000  0.6021860000000 1.0
C      1  0.6321990000000  0.4514860000000  0.5246020000000 1.0
C      1  0.6271620000000  0.3143300000000  0.4714610000000 1.0
C      1  0.4117040000000  0.3143300000000  0.4041410000000 1.0
C      1  0.4611320000000  0.3143290000000  0.6243930000000 1.0
C      1  0.5474650000000  0.4972610000000  0.5330430000000 1.0
C      1  0.5048840000000  0.4972630000000  0.4423720000000 1.0
C      1  0.4476500000000  0.4972620000000  0.5245840000000 1.0
END
