TITL C-2159255-4746-779 -0.0033682954237446 3375 -414.777826742911 0 0 60 (C1) n - 1
REM
REM in /scratch/bkarasulu/871
REM
REM
REM
REM
REM
REM ./C.cell (a2850807a9bf4ad07a5b6933b78d9264)
REM AIRSS Version 0.9.1 bugfix July 2018 build 013d7b7c2542+ Fri, 06 Jul 2018 19:26:36 +0100
REM compiler GCC version 9.2.1 20190827 (Red Hat 9.2.1-1)
REM options -cpp -mtune=generic -march=x86-64 -g -O0 -fpre-include=/usr/include/finclude/math-vector-fortran.h
REM seed -1939290794 2063067638 -1189200330 940449631 -579770108 1339038755 -616704049 1237642267 413839693 -649611382 568597333 -510544814 -2103758805 826059861 115623839 773924102 1897053702 -386354281 -2041576603 -890210253 -812839442 -869268649 -957068468 -2113020859 -2085559715 -617436976 -77748490 -1991145349 -1768814619 1139030459 -385162408 -772152664 2131498442
REM
CELL 1.54180   15.00000   15.00000   15.00000   90.00000   90.00000   90.00000
LATT -1
SFAC C  
C      1  0.5281520000000  0.3767980000000  0.6730450000000 1.0
C      1  0.6155030000000  0.3746750000000  0.6285550000000 1.0
C      1  0.6581830000000  0.3912490000000  0.5441360000000 1.0
C      1  0.6540940000000  0.3869590000000  0.4439880000000 1.0
C      1  0.5997140000000  0.3848970000000  0.3677180000000 1.0
C      1  0.5062260000000  0.3870510000000  0.3323290000000 1.0
C      1  0.4125800000000  0.3754780000000  0.3489490000000 1.0
C      1  0.3458800000000  0.3791650000000  0.4189530000000 1.0
C      1  0.3239170000000  0.3797050000000  0.5147840000000 1.0
C      1  0.3523240000000  0.3744810000000  0.6072210000000 1.0
C      1  0.4304580000000  0.3842300000000  0.6626670000000 1.0
C      1  0.2817710000000  0.5209490000000  0.3509960000000 1.0
C      1  0.2406640000000  0.5241170000000  0.5450940000000 1.0
C      1  0.2672070000000  0.5080210000000  0.6364410000000 1.0
C      1  0.3881610000000  0.5346950000000  0.7450940000000 1.0
C      1  0.5807420000000  0.5125540000000  0.7600850000000 1.0
C      1  0.6608940000000  0.5021970000000  0.7108930000000 1.0
C      1  0.7423690000000  0.5426850000000  0.5789140000000 1.0
C      1  0.7324700000000  0.5292960000000  0.3852750000000 1.0
C      1  0.6789420000000  0.5256440000000  0.3069670000000 1.0
C      1  0.4989710000000  0.5326910000000  0.2304010000000 1.0
C      1  0.3446800000000  0.5032460000000  0.2795010000000 1.0
C      1  0.2507300000000  0.4450850000000  0.4958280000000 1.0
C      1  0.2779850000000  0.4174930000000  0.6582390000000 1.0
C      1  0.4265390000000  0.4480590000000  0.7397560000000 1.0
C      1  0.5231610000000  0.4383790000000  0.7520520000000 1.0
C      1  0.6810350000000  0.4135440000000  0.6927370000000 1.0
C      1  0.7316180000000  0.4583820000000  0.5374570000000 1.0
C      1  0.7290920000000  0.4540890000000  0.4406000000000 1.0
C      1  0.6264400000000  0.4488680000000  0.2945530000000 1.0
C      1  0.5347390000000  0.4508310000000  0.2615350000000 1.0
C      1  0.3677840000000  0.4138520000000  0.2688600000000 1.0
C      1  0.2714580000000  0.4437610000000  0.4029220000000 1.0
C      1  0.7418470000000  0.6162300000000  0.5211980000000 1.0
C      1  0.7348650000000  0.6138280000000  0.4291000000000 1.0
C      1  0.6393440000000  0.6081320000000  0.2830760000000 1.0
C      1  0.5564020000000  0.6069210000000  0.2413450000000 1.0
C      1  0.4130140000000  0.5643470000000  0.2600210000000 1.0
C      1  0.2953210000000  0.6001680000000  0.4043760000000 1.0
C      1  0.2769920000000  0.6009170000000  0.4995080000000 1.0
C      1  0.3252350000000  0.5671900000000  0.6800920000000 1.0
C      1  0.4496350000000  0.6058050000000  0.7549600000000 1.0
C      1  0.5428400000000  0.5982910000000  0.7528010000000 1.0
C      1  0.6840200000000  0.5685430000000  0.6488600000000 1.0
C      1  0.6263530000000  0.6455500000000  0.6186780000000 1.0
C      1  0.6611160000000  0.6724780000000  0.5328670000000 1.0
C      1  0.6530930000000  0.6773450000000  0.4332390000000 1.0
C      1  0.6064660000000  0.6764290000000  0.3533350000000 1.0
C      1  0.5194250000000  0.6705720000000  0.3063010000000 1.0
C      1  0.4284640000000  0.6441520000000  0.3142110000000 1.0
C      1  0.3788720000000  0.6464080000000  0.3925670000000 1.0
C      1  0.3521320000000  0.6440890000000  0.5416410000000 1.0
C      1  0.3675000000000  0.6417730000000  0.6330940000000 1.0
C      1  0.4502030000000  0.6639600000000  0.6755790000000 1.0
C      1  0.5489200000000  0.6568200000000  0.6708830000000 1.0
C      1  0.4262660000000  0.6416410000000  0.4781360000000 1.0
C      1  0.4957040000000  0.5463910000000  0.4858410000000 1.0
C      1  0.4958740000000  0.2894170000000  0.5034740000000 1.0
C      1  0.4959170000000  0.4650310000000  0.5068310000000 1.0
C      1  0.4951180000000  0.3735180000000  0.5041130000000 1.0
END
