TITL C-2159255-4746-1409 -0.00221701192497477 3375 -422.787937310992 0 0 60 (C5) n - 1
REM
REM in /scratch/bkarasulu/871
REM
REM
REM
REM
REM
REM ./C.cell (a2850807a9bf4ad07a5b6933b78d9264)
REM AIRSS Version 0.9.1 bugfix July 2018 build 013d7b7c2542+ Fri, 06 Jul 2018 19:26:36 +0100
REM compiler GCC version 9.2.1 20190827 (Red Hat 9.2.1-1)
REM options -cpp -mtune=generic -march=x86-64 -g -O0 -fpre-include=/usr/include/finclude/math-vector-fortran.h
REM seed 1276681426 54500088 1254583061 -2000499025 -752994166 -609646263 8406199 -1052985679 -1587087575 -440834520 1938602777 -1601088154 -1889622057 -530855287 -63227482 1830221417 -706920938 -550974505 -1079062504 -1813458562 805009499 -1991000498 -1670027515 1523723880 -1754217818 445403167 -2089124827 -452287009 -1997541709 -1547165227 717387935 -759454781 -1908691083
REM
CELL 1.54180   15.00000   15.00000   15.00000   90.00000   90.00000   90.00000
LATT -1
SFAC C  
C      1  0.3005750000000  0.5755070000000  0.5288360000000 1.0
C      1  0.3005740000000  0.5507560000000  0.4371000000000 1.0
C      1  0.3005750000000  0.4558600000000  0.4322920000000 1.0
C      1  0.3005750000000  0.4219630000000  0.5210570000000 1.0
C      1  0.3005760000000  0.4959090000000  0.5807250000000 1.0
C      1  0.5363460000000  0.2768150000000  0.3674650000000 1.0
C      1  0.5363500000000  0.3049850000000  0.6713020000000 1.0
C      1  0.5363490000000  0.6026560000000  0.7384080000000 1.0
C      1  0.5363450000000  0.7584660000000  0.4760390000000 1.0
C      1  0.5363430000000  0.5570800000000  0.2467780000000 1.0
C      1  0.4715270000000  0.5396100000000  0.7326420000000 1.0
C      1  0.4715250000000  0.7334960000000  0.5342180000000 1.0
C      1  0.4715240000000  0.6046960000000  0.2885070000000 1.0
C      1  0.4715250000000  0.3312120000000  0.3350740000000 1.0
C      1  0.4715270000000  0.2909850000000  0.6095610000000 1.0
C      1  0.5529680000000  0.7049050000000  0.4013920000000 1.0
C      1  0.5529670000000  0.4695360000000  0.2746510000000 1.0
C      1  0.5529700000000  0.2762680000000  0.4593370000000 1.0
C      1  0.5529720000000  0.3921910000000  0.7002150000000 1.0
C      1  0.5529710000000  0.6571000000000  0.6644030000000 1.0
C      1  0.3908050000000  0.5544010000000  0.3041230000000 1.0
C      1  0.3908060000000  0.3305200000000  0.3877320000000 1.0
C      1  0.3908080000000  0.3408530000000  0.6264920000000 1.0
C      1  0.3908080000000  0.5711210000000  0.6904460000000 1.0
C      1  0.3908060000000  0.7031020000000  0.4912110000000 1.0
C      1  0.3446940000000  0.6002980000000  0.3727650000000 1.0
C      1  0.3446940000000  0.4099840000000  0.3652940000000 1.0
C      1  0.3446960000000  0.3440680000000  0.5439830000000 1.0
C      1  0.3446960000000  0.4936440000000  0.6618920000000 1.0
C      1  0.3446950000000  0.6520020000000  0.5560730000000 1.0
C      1  0.6615080000000  0.3831170000000  0.5652150000000 1.0
C      1  0.6615090000000  0.5259070000000  0.6313150000000 1.0
C      1  0.6615070000000  0.6328950000000  0.5159400000000 1.0
C      1  0.6615050000000  0.5562290000000  0.3785350000000 1.0
C      1  0.6615050000000  0.4018570000000  0.4089890000000 1.0
C      1  0.3928510000000  0.4148740000000  0.6862810000000 1.0
C      1  0.3928500000000  0.6508570000000  0.6385230000000 1.0
C      1  0.3928480000000  0.6783600000000  0.3993330000000 1.0
C      1  0.3928470000000  0.4593740000000  0.2992620000000 1.0
C      1  0.3928490000000  0.2965310000000  0.4766060000000 1.0
C      1  0.6099540000000  0.4405000000000  0.6326440000000 1.0
C      1  0.6099540000000  0.6077650000000  0.5975780000000 1.0
C      1  0.6099510000000  0.6261050000000  0.4276620000000 1.0
C      1  0.6099490000000  0.4701720000000  0.3577130000000 1.0
C      1  0.6099520000000  0.3554620000000  0.4844000000000 1.0
C      1  0.7408700000000  0.5348030000000  0.4259170000000 1.0
C      1  0.7408700000000  0.4403010000000  0.4440070000000 1.0
C      1  0.7408720000000  0.4283030000000  0.5394730000000 1.0
C      1  0.7408730000000  0.5153890000000  0.5803850000000 1.0
C      1  0.7408710000000  0.5812100000000  0.5102040000000 1.0
C      1  0.5235400000000  0.4677830000000  0.5740830000000 1.0
C      1  0.5235400000000  0.5605010000000  0.5535330000000 1.0
C      1  0.5235390000000  0.5696090000000  0.4590030000000 1.0
C      1  0.5235380000000  0.4825190000000  0.4211290000000 1.0
C      1  0.5235390000000  0.4195870000000  0.4922530000000 1.0
C      1  0.4743640000000  0.6989030000000  0.6258310000000 1.0
C      1  0.4743610000000  0.6811360000000  0.3497160000000 1.0
C      1  0.4743610000000  0.4130450000000  0.2812880000000 1.0
C      1  0.4743640000000  0.2651200000000  0.5151130000000 1.0
C      1  0.4743650000000  0.4417920000000  0.7280540000000 1.0
END
