TITL C-2159255-4746-39 -0.0016243789308742 3375 -401.015258386611 0 0 60 (C1) n - 1
REM
REM in /scratch/bkarasulu/871
REM
REM
REM
REM
REM
REM ./C.cell (a2850807a9bf4ad07a5b6933b78d9264)
REM AIRSS Version 0.9.1 bugfix July 2018 build 013d7b7c2542+ Fri, 06 Jul 2018 19:26:36 +0100
REM compiler GCC version 9.2.1 20190827 (Red Hat 9.2.1-1)
REM options -cpp -mtune=generic -march=x86-64 -g -O0 -fpre-include=/usr/include/finclude/math-vector-fortran.h
REM seed -1558883045 -92751558 1934722656 1087933317 1514619678 -460933719 -967633660 1406984195 -1731217379 1964932092 -1226545373 -131504301 -1639713113 1668433936 -1801729724 -748848157 -1790789113 -1197495585 -1207658206 -468640382 1659950285 -624588506 1606862991 871482124 301351269 1500047887 -2049506071 1687872200 -1477310687 1066715981 -767608008 1190321893 -1993396320
REM
CELL 1.54180   15.00000   15.00000   15.00000   90.00000   90.00000   90.00000
LATT -1
SFAC C  
C      1  0.6330150000000  0.4561920000000  0.3003540000000 1.0
C      1  0.3703630000000  0.5513430000000  0.2969610000000 1.0
C      1  0.6239640000000  0.5548670000000  0.2984900000000 1.0
C      1  0.3579330000000  0.4526150000000  0.2977910000000 1.0
C      1  0.4365270000000  0.4237140000000  0.5018350000000 1.0
C      1  0.5451820000000  0.5834840000000  0.5077870000000 1.0
C      1  0.4424490000000  0.5764750000000  0.5081010000000 1.0
C      1  0.5385780000000  0.4308450000000  0.5046930000000 1.0
C      1  0.6198980000000  0.6904960000000  0.6332310000000 1.0
C      1  0.3749320000000  0.3275440000000  0.6230860000000 1.0
C      1  0.6185940000000  0.3178460000000  0.6362140000000 1.0
C      1  0.3793210000000  0.6841140000000  0.6344860000000 1.0
C      1  0.5964730000000  0.4653610000000  0.7375140000000 1.0
C      1  0.3702310000000  0.5459970000000  0.7426430000000 1.0
C      1  0.6443920000000  0.5438750000000  0.7320280000000 1.0
C      1  0.4103160000000  0.4612940000000  0.7386460000000 1.0
C      1  0.4103000000000  0.2920060000000  0.5422740000000 1.0
C      1  0.5863720000000  0.7185330000000  0.5506160000000 1.0
C      1  0.4144430000000  0.7112180000000  0.5510080000000 1.0
C      1  0.5829510000000  0.2936120000000  0.5506450000000 1.0
C      1  0.2930800000000  0.4539580000000  0.3665010000000 1.0
C      1  0.6931680000000  0.5597900000000  0.3652410000000 1.0
C      1  0.3020870000000  0.5577580000000  0.3652950000000 1.0
C      1  0.6978940000000  0.4578640000000  0.3691330000000 1.0
C      1  0.3889000000000  0.3456860000000  0.4585910000000 1.0
C      1  0.6034510000000  0.6585000000000  0.4681940000000 1.0
C      1  0.3935290000000  0.6567330000000  0.4670780000000 1.0
C      1  0.5992240000000  0.3560140000000  0.4699100000000 1.0
C      1  0.4508150000000  0.6718930000000  0.3905890000000 1.0
C      1  0.5470920000000  0.3349120000000  0.3867010000000 1.0
C      1  0.4471950000000  0.3327870000000  0.3815710000000 1.0
C      1  0.5489430000000  0.6768690000000  0.3885450000000 1.0
C      1  0.3725420000000  0.4035330000000  0.6674870000000 1.0
C      1  0.6232740000000  0.6072040000000  0.6684700000000 1.0
C      1  0.3742340000000  0.6018770000000  0.6713510000000 1.0
C      1  0.6072920000000  0.4022060000000  0.6645260000000 1.0
C      1  0.7542280000000  0.5537870000000  0.4951910000000 1.0
C      1  0.2896380000000  0.4601150000000  0.5191340000000 1.0
C      1  0.7464310000000  0.4671200000000  0.5026900000000 1.0
C      1  0.2751870000000  0.5461430000000  0.4987640000000 1.0
C      1  0.3052650000000  0.6098670000000  0.4425150000000 1.0
C      1  0.6880060000000  0.4116220000000  0.4515520000000 1.0
C      1  0.3021070000000  0.4023980000000  0.4442600000000 1.0
C      1  0.6904410000000  0.6058630000000  0.4462600000000 1.0
C      1  0.3697010000000  0.4520530000000  0.5799920000000 1.0
C      1  0.5737380000000  0.5559210000000  0.5982390000000 1.0
C      1  0.4148720000000  0.5403680000000  0.5968260000000 1.0
C      1  0.5635970000000  0.4562950000000  0.5947690000000 1.0
C      1  0.4217320000000  0.3876840000000  0.3064890000000 1.0
C      1  0.5530320000000  0.6137240000000  0.3123660000000 1.0
C      1  0.4538400000000  0.5974410000000  0.3232090000000 1.0
C      1  0.5724470000000  0.3891770000000  0.3110090000000 1.0
C      1  0.5593210000000  0.5082760000000  0.4439230000000 1.0
C      1  0.4224240000000  0.5015880000000  0.4442170000000 1.0
C      1  0.4988910000000  0.7437970000000  0.5399380000000 1.0
C      1  0.4978080000000  0.2628540000000  0.5366910000000 1.0
C      1  0.4987540000000  0.5133220000000  0.6381530000000 1.0
C      1  0.4967710000000  0.4419650000000  0.2985050000000 1.0
C      1  0.4878810000000  0.5133480000000  0.3717900000000 1.0
C      1  0.5001830000000  0.4871220000000  0.7280710000000 1.0
END
