TITL C-2158984-8299-1090 -0.00284157632014305 3375 -421.663180888205 0 0 60 (Td) n - 1
REM
REM in /scratch/bkarasulu/869
REM
REM
REM
REM
REM
REM ./C.cell (a2850807a9bf4ad07a5b6933b78d9264)
REM AIRSS Version 0.9.1 bugfix July 2018 build 013d7b7c2542+ Fri, 06 Jul 2018 19:26:36 +0100
REM compiler GCC version 9.2.1 20190827 (Red Hat 9.2.1-1)
REM options -cpp -mtune=generic -march=x86-64 -g -O0 -fpre-include=/usr/include/finclude/math-vector-fortran.h
REM seed -1633169379 -1098711923 143055539 -2132719517 1191851497 935125533 -998897843 -1972014076 1799657021 -694651541 -417645076 -426883882 -885167977 -1464575279 -1690454695 1022002059 690521458 73987265 -968996332 196531145 -1343836073 1641765360 -2139191988 908643873 1981328737 730155104 164469227 -1351397110 1370863236 -831944928 322108169 1096409361 1433460360
REM
CELL 1.54180   15.00000   15.00000   15.00000   90.00000   90.00000   90.00000
LATT -1
SFAC C  
C      1  0.4549440000000  0.3893180000000  0.3212220000000 1.0
C      1  0.3212220000000  0.4549440000000  0.3893180000000 1.0
C      1  0.3893180000000  0.3212220000000  0.4549440000000 1.0
C      1  0.4549440000000  0.6106820000000  0.6787780000000 1.0
C      1  0.5450560000000  0.6106820000000  0.3212220000000 1.0
C      1  0.5450560000000  0.3893180000000  0.6787780000000 1.0
C      1  0.3212220000000  0.5450560000000  0.6106820000000 1.0
C      1  0.6787780000000  0.5450560000000  0.3893180000000 1.0
C      1  0.6787780000000  0.4549440000000  0.6106820000000 1.0
C      1  0.3893180000000  0.6787780000000  0.5450560000000 1.0
C      1  0.6106820000000  0.6787780000000  0.4549440000000 1.0
C      1  0.6106820000000  0.3212220000000  0.5450560000000 1.0
C      1  0.4549440000000  0.3212220000000  0.3893180000000 1.0
C      1  0.3212220000000  0.3893180000000  0.4549440000000 1.0
C      1  0.3893180000000  0.4549440000000  0.3212220000000 1.0
C      1  0.4549440000000  0.6787780000000  0.6106820000000 1.0
C      1  0.5450560000000  0.3212220000000  0.6106820000000 1.0
C      1  0.5450560000000  0.6787780000000  0.3893180000000 1.0
C      1  0.3212220000000  0.6106820000000  0.5450560000000 1.0
C      1  0.6787780000000  0.3893180000000  0.5450560000000 1.0
C      1  0.6787780000000  0.6106820000000  0.4549440000000 1.0
C      1  0.3893180000000  0.5450560000000  0.6787780000000 1.0
C      1  0.6106820000000  0.4549440000000  0.6787780000000 1.0
C      1  0.6106820000000  0.5450560000000  0.3212220000000 1.0
C      1  0.4582780000000  0.3921700000000  0.7161200000000 1.0
C      1  0.7161200000000  0.4582780000000  0.3921700000000 1.0
C      1  0.3921700000000  0.7161200000000  0.4582780000000 1.0
C      1  0.4582780000000  0.6078300000000  0.2838800000000 1.0
C      1  0.5417220000000  0.6078300000000  0.7161200000000 1.0
C      1  0.5417220000000  0.3921700000000  0.2838800000000 1.0
C      1  0.7161200000000  0.5417220000000  0.6078300000000 1.0
C      1  0.2838800000000  0.5417220000000  0.3921700000000 1.0
C      1  0.2838800000000  0.4582780000000  0.6078300000000 1.0
C      1  0.3921700000000  0.2838800000000  0.5417220000000 1.0
C      1  0.6078300000000  0.2838800000000  0.4582780000000 1.0
C      1  0.6078300000000  0.7161200000000  0.5417220000000 1.0
C      1  0.4582780000000  0.7161200000000  0.3921700000000 1.0
C      1  0.7161200000000  0.3921700000000  0.4582780000000 1.0
C      1  0.3921700000000  0.4582780000000  0.7161200000000 1.0
C      1  0.4582780000000  0.2838800000000  0.6078300000000 1.0
C      1  0.5417220000000  0.7161200000000  0.6078300000000 1.0
C      1  0.5417220000000  0.2838800000000  0.3921700000000 1.0
C      1  0.7161200000000  0.6078300000000  0.5417220000000 1.0
C      1  0.2838800000000  0.3921700000000  0.5417220000000 1.0
C      1  0.2838800000000  0.6078300000000  0.4582780000000 1.0
C      1  0.3921700000000  0.5417220000000  0.2838800000000 1.0
C      1  0.6078300000000  0.4582780000000  0.2838800000000 1.0
C      1  0.6078300000000  0.5417220000000  0.7161200000000 1.0
C      1  0.3989880000000  0.3254110000000  0.6745890000000 1.0
C      1  0.3989880000000  0.6745890000000  0.3254110000000 1.0
C      1  0.3254110000000  0.3989880000000  0.6745890000000 1.0
C      1  0.6745890000000  0.3989880000000  0.3254110000000 1.0
C      1  0.3254110000000  0.6745890000000  0.3989880000000 1.0
C      1  0.6745890000000  0.3254110000000  0.3989880000000 1.0
C      1  0.6010120000000  0.3254110000000  0.3254110000000 1.0
C      1  0.6010120000000  0.6745890000000  0.6745890000000 1.0
C      1  0.3254110000000  0.6010120000000  0.3254110000000 1.0
C      1  0.6745890000000  0.6010120000000  0.6745890000000 1.0
C      1  0.3254110000000  0.3254110000000  0.6010120000000 1.0
C      1  0.6745890000000  0.6745890000000  0.6010120000000 1.0
END
