TITL C-2159255-4746-806 -0.0014535771180792 3375 -404.451760823433 0 0 60 (C5) n - 1
REM
REM in /scratch/bkarasulu/871
REM
REM
REM
REM
REM
REM ./C.cell (a2850807a9bf4ad07a5b6933b78d9264)
REM AIRSS Version 0.9.1 bugfix July 2018 build 013d7b7c2542+ Fri, 06 Jul 2018 19:26:36 +0100
REM compiler GCC version 9.2.1 20190827 (Red Hat 9.2.1-1)
REM options -cpp -mtune=generic -march=x86-64 -g -O0 -fpre-include=/usr/include/finclude/math-vector-fortran.h
REM seed 62827115 1818537875 72472784 -2139117692 -72706249 -382211333 1699136688 1616878642 1955089088 1915400174 -133271685 247900792 -1373696953 -538584774 911098668 1461725666 1747964374 -1833819948 746289216 -1993905180 -542526449 1334653412 -681342101 1693136791 1847458353 -1834678662 -1874061224 544190272 498319758 -380671289 737203630 -1956618428 -2009003560
REM
CELL 1.54180   15.00000   15.00000   15.00000   90.00000   90.00000   90.00000
LATT -1
SFAC C  
C      1  0.3943790000000  0.5031140000000  0.6660190000000 1.0
C      1  0.3943810000000  0.6588580000000  0.5483410000000 1.0
C      1  0.3943820000000  0.5950670000000  0.3638560000000 1.0
C      1  0.3943800000000  0.3998990000000  0.3675150000000 1.0
C      1  0.3943780000000  0.3430680000000  0.5542620000000 1.0
C      1  0.4454460000000  0.5780680000000  0.5256470000000 1.0
C      1  0.4454470000000  0.5485170000000  0.4336780000000 1.0
C      1  0.4454460000000  0.4519180000000  0.4333630000000 1.0
C      1  0.4454450000000  0.4217670000000  0.5251370000000 1.0
C      1  0.4454450000000  0.4997320000000  0.5821720000000 1.0
C      1  0.4691520000000  0.5232500000000  0.2699690000000 1.0
C      1  0.4691490000000  0.2884130000000  0.4068060000000 1.0
C      1  0.4691470000000  0.3459840000000  0.6724330000000 1.0
C      1  0.4691490000000  0.6163990000000  0.6997630000000 1.0
C      1  0.4691530000000  0.7259570000000  0.4510290000000 1.0
C      1  0.6113170000000  0.2841780000000  0.4868110000000 1.0
C      1  0.6113160000000  0.4207620000000  0.7011830000000 1.0
C      1  0.6113200000000  0.6668470000000  0.6375290000000 1.0
C      1  0.6113220000000  0.6823540000000  0.3838180000000 1.0
C      1  0.6113200000000  0.4458520000000  0.2906670000000 1.0
C      1  0.6764830000000  0.4714540000000  0.6655100000000 1.0
C      1  0.6764850000000  0.6485850000000  0.5782940000000 1.0
C      1  0.6764860000000  0.6203740000000  0.3828810000000 1.0
C      1  0.6764850000000  0.4258080000000  0.3493250000000 1.0
C      1  0.6764820000000  0.3337700000000  0.5239990000000 1.0
C      1  0.3822080000000  0.5942620000000  0.6852530000000 1.0
C      1  0.3822110000000  0.7053170000000  0.4675980000000 1.0
C      1  0.3822110000000  0.5326320000000  0.2947190000000 1.0
C      1  0.3822080000000  0.3148530000000  0.4055300000000 1.0
C      1  0.3822060000000  0.3529430000000  0.6468930000000 1.0
C      1  0.5470320000000  0.5468310000000  0.4304200000000 1.0
C      1  0.5470310000000  0.4482960000000  0.4339590000000 1.0
C      1  0.5470300000000  0.4212130000000  0.5287650000000 1.0
C      1  0.5470300000000  0.5030100000000  0.5838190000000 1.0
C      1  0.5470320000000  0.5806460000000  0.5230390000000 1.0
C      1  0.2854070000000  0.5697160000000  0.4586880000000 1.0
C      1  0.2854070000000  0.4822570000000  0.4209300000000 1.0
C      1  0.2854060000000  0.4193210000000  0.4924410000000 1.0
C      1  0.2854050000000  0.4678830000000  0.5743950000000 1.0
C      1  0.2854060000000  0.5608330000000  0.5535350000000 1.0
C      1  0.5570150000000  0.3481690000000  0.6619220000000 1.0
C      1  0.5570180000000  0.6070760000000  0.6944370000000 1.0
C      1  0.5570210000000  0.7180090000000  0.4582490000000 1.0
C      1  0.5570210000000  0.5276590000000  0.2797590000000 1.0
C      1  0.5570170000000  0.2990850000000  0.4056370000000 1.0
C      1  0.7139050000000  0.4836390000000  0.5793770000000 1.0
C      1  0.7139060000000  0.5704320000000  0.5400880000000 1.0
C      1  0.7139070000000  0.5598870000000  0.4454020000000 1.0
C      1  0.7139060000000  0.4665770000000  0.4261710000000 1.0
C      1  0.7139050000000  0.4194530000000  0.5089720000000 1.0
C      1  0.3315520000000  0.3358420000000  0.4857840000000 1.0
C      1  0.3315510000000  0.4357550000000  0.6517310000000 1.0
C      1  0.3315540000000  0.6244550000000  0.6079890000000 1.0
C      1  0.3315560000000  0.6411650000000  0.4150070000000 1.0
C      1  0.3315550000000  0.4627920000000  0.3394800000000 1.0
C      1  0.5860980000000  0.3877440000000  0.3666210000000 1.0
C      1  0.5860960000000  0.3384580000000  0.5655450000000 1.0
C      1  0.5860970000000  0.5124160000000  0.6738900000000 1.0
C      1  0.5860990000000  0.6692150000000  0.5419260000000 1.0
C      1  0.5861000000000  0.5921630000000  0.3520230000000 1.0
END
