TITL C-2159255-4746-380 -0.00229563760114822 3375 -413.253465277979 0 0 60 (C3) n - 1
REM
REM in /scratch/bkarasulu/871
REM
REM
REM
REM
REM
REM ./C.cell (a2850807a9bf4ad07a5b6933b78d9264)
REM AIRSS Version 0.9.1 bugfix July 2018 build 013d7b7c2542+ Fri, 06 Jul 2018 19:26:36 +0100
REM compiler GCC version 9.2.1 20190827 (Red Hat 9.2.1-1)
REM options -cpp -mtune=generic -march=x86-64 -g -O0 -fpre-include=/usr/include/finclude/math-vector-fortran.h
REM seed -120948976 -43279835 -1773385301 -1873187491 674466775 832313641 -139377722 1939156028 -1864803678 860425578 1008653285 -1049162427 155844443 1419955160 1944471425 2080230610 -547205676 -1236043664 25687823 -1536610925 1737984041 -145846145 370410227 1563708996 -188158249 -1719030719 -139274626 837076909 -2052599673 -1860960467 -2016140366 -1813759629 1340157716
REM
CELL 1.54180   15.00000   15.00000   15.00000   90.00000   90.00000   90.00000
LATT -1
SFAC C  
C      1  0.6275320000000  0.4614570000000  0.7098190000000 1.0
C      1  0.4696070000000  0.6297130000000  0.7098210000000 1.0
C      1  0.4028560000000  0.4088180000000  0.7098160000000 1.0
C      1  0.6258570000000  0.6711540000000  0.4908170000000 1.0
C      1  0.2888480000000  0.5234190000000  0.4908100000000 1.0
C      1  0.5852940000000  0.3054280000000  0.4908090000000 1.0
C      1  0.6818980000000  0.5928640000000  0.5029400000000 1.0
C      1  0.3286290000000  0.6110960000000  0.5029370000000 1.0
C      1  0.4894730000000  0.2960390000000  0.5029330000000 1.0
C      1  0.6771370000000  0.5740240000000  0.5976560000000 1.0
C      1  0.3473220000000  0.6163910000000  0.5976530000000 1.0
C      1  0.4755380000000  0.3095780000000  0.5976490000000 1.0
C      1  0.6248940000000  0.3576980000000  0.4221060000000 1.0
C      1  0.5607930000000  0.6793140000000  0.4221110000000 1.0
C      1  0.3143150000000  0.4629930000000  0.4221050000000 1.0
C      1  0.4439840000000  0.5220580000000  0.2224740000000 1.0
C      1  0.5089130000000  0.4404640000000  0.2224740000000 1.0
C      1  0.5471120000000  0.5374930000000  0.2224760000000 1.0
C      1  0.3783230000000  0.5995320000000  0.3503040000000 1.0
C      1  0.4746460000000  0.3448620000000  0.3503010000000 1.0
C      1  0.6470360000000  0.5556150000000  0.3503060000000 1.0
C      1  0.4185370000000  0.4346460000000  0.5740560000000 1.0
C      1  0.5973270000000  0.4621270000000  0.5740590000000 1.0
C      1  0.4841320000000  0.6032240000000  0.5740600000000 1.0
C      1  0.3684150000000  0.4981410000000  0.7108970000000 1.0
C      1  0.5673960000000  0.3869690000000  0.7108970000000 1.0
C      1  0.5641830000000  0.6148770000000  0.7109020000000 1.0
C      1  0.5597050000000  0.3252250000000  0.6405680000000 1.0
C      1  0.6215020000000  0.6390900000000  0.6405750000000 1.0
C      1  0.3187880000000  0.5356760000000  0.6405700000000 1.0
C      1  0.6854190000000  0.5239530000000  0.4329790000000 1.0
C      1  0.3865500000000  0.6486020000000  0.4329780000000 1.0
C      1  0.4280340000000  0.3274490000000  0.4329730000000 1.0
C      1  0.5828360000000  0.6927420000000  0.5723150000000 1.0
C      1  0.2916600000000  0.4753650000000  0.5723070000000 1.0
C      1  0.6255020000000  0.3318890000000  0.5723080000000 1.0
C      1  0.5704120000000  0.3600100000000  0.3457120000000 1.0
C      1  0.5860330000000  0.6309770000000  0.3457170000000 1.0
C      1  0.3435590000000  0.5090220000000  0.3457130000000 1.0
C      1  0.5499660000000  0.4856990000000  0.4976430000000 1.0
C      1  0.4874020000000  0.5504230000000  0.4976430000000 1.0
C      1  0.4626320000000  0.4638790000000  0.4976420000000 1.0
C      1  0.3313220000000  0.3894980000000  0.5559160000000 1.0
C      1  0.6800350000000  0.4091710000000  0.5559200000000 1.0
C      1  0.4886410000000  0.7013290000000  0.5559240000000 1.0
C      1  0.4252740000000  0.6612290000000  0.6300390000000 1.0
C      1  0.3977320000000  0.3546690000000  0.6300320000000 1.0
C      1  0.6769910000000  0.4840950000000  0.6300380000000 1.0
C      1  0.5572510000000  0.5231920000000  0.7388870000000 1.0
C      1  0.4512810000000  0.5379800000000  0.7388860000000 1.0
C      1  0.4914610000000  0.4388140000000  0.7388840000000 1.0
C      1  0.6251040000000  0.5023190000000  0.2738060000000 1.0
C      1  0.4354470000000  0.6071880000000  0.2738060000000 1.0
C      1  0.4394560000000  0.3905050000000  0.2738030000000 1.0
C      1  0.3456170000000  0.3766860000000  0.4602330000000 1.0
C      1  0.6839860000000  0.4279580000000  0.4602380000000 1.0
C      1  0.4703990000000  0.6953590000000  0.4602400000000 1.0
C      1  0.5287880000000  0.6206940000000  0.2708410000000 1.0
C      1  0.3810890000000  0.4645890000000  0.2708360000000 1.0
C      1  0.5901300000000  0.4147300000000  0.2708380000000 1.0
END
