TITL C-2158984-8299-1196 -0.00421355867517524 3375 -430.945703319577 0 0 60 (Ci) n - 1
REM
REM in /scratch/bkarasulu/869
REM
REM
REM
REM
REM
REM ./C.cell (a2850807a9bf4ad07a5b6933b78d9264)
REM AIRSS Version 0.9.1 bugfix July 2018 build 013d7b7c2542+ Fri, 06 Jul 2018 19:26:36 +0100
REM compiler GCC version 9.2.1 20190827 (Red Hat 9.2.1-1)
REM options -cpp -mtune=generic -march=x86-64 -g -O0 -fpre-include=/usr/include/finclude/math-vector-fortran.h
REM seed 536526300 -901813797 -361107961 -330486688 -1342952416 1443932137 516900874 207788308 1145953743 -1210788255 -103999875 -1584565512 -1203208351 25318743 434820568 -1452459788 1001785998 -1620386930 1141185070 -1643538650 -179665297 668451620 -1098383725 -300794335 20113528 -230836873 1915502875 -519131741 473283455 390458880 416801970 -1250695329 -1511052542
REM
CELL 1.54180   15.00000   15.00000   15.00000   90.00000   90.00000   90.00000
LATT -1
SFAC C  
C      1  0.3187680000000  0.5695210000000  0.3979560000000 1.0
C      1  0.6812320000000  0.4304790000000  0.6020440000000 1.0
C      1  0.6139290000000  0.7102060000000  0.5433730000000 1.0
C      1  0.3860710000000  0.2897940000000  0.4566270000000 1.0
C      1  0.5685100000000  0.7044130000000  0.6251480000000 1.0
C      1  0.4314900000000  0.2955870000000  0.3748520000000 1.0
C      1  0.5387930000000  0.4824710000000  0.1704190000000 1.0
C      1  0.4612070000000  0.5175290000000  0.8295810000000 1.0
C      1  0.3503110000000  0.4354400000000  0.3128050000000 1.0
C      1  0.6496890000000  0.5645600000000  0.6871950000000 1.0
C      1  0.6648600000000  0.6452900000000  0.4850610000000 1.0
C      1  0.3351400000000  0.3547100000000  0.5149390000000 1.0
C      1  0.5503170000000  0.3245270000000  0.6145260000000 1.0
C      1  0.4496830000000  0.6754730000000  0.3854740000000 1.0
C      1  0.3846010000000  0.5685820000000  0.6965060000000 1.0
C      1  0.6153990000000  0.4314180000000  0.3034940000000 1.0
C      1  0.6062240000000  0.6728740000000  0.4091480000000 1.0
C      1  0.3937760000000  0.3271260000000  0.5908520000000 1.0
C      1  0.6868680000000  0.5264230000000  0.6068790000000 1.0
C      1  0.3131320000000  0.4735770000000  0.3931210000000 1.0
C      1  0.6168120000000  0.3812950000000  0.6521650000000 1.0
C      1  0.3831880000000  0.6187050000000  0.3478350000000 1.0
C      1  0.6563750000000  0.3548520000000  0.4444960000000 1.0
C      1  0.3436250000000  0.6451480000000  0.5555040000000 1.0
C      1  0.5829000000000  0.2957750000000  0.4492100000000 1.0
C      1  0.4171000000000  0.7042250000000  0.5507900000000 1.0
C      1  0.5557130000000  0.3516340000000  0.2978080000000 1.0
C      1  0.4442870000000  0.6483660000000  0.7021920000000 1.0
C      1  0.4254490000000  0.4923410000000  0.7479630000000 1.0
C      1  0.5745510000000  0.5076590000000  0.2520370000000 1.0
C      1  0.5250970000000  0.6359290000000  0.7522820000000 1.0
C      1  0.4749030000000  0.3640710000000  0.2477180000000 1.0
C      1  0.3000240000000  0.4385540000000  0.4858330000000 1.0
C      1  0.6999760000000  0.5614460000000  0.5141670000000 1.0
C      1  0.4651610000000  0.4458330000000  0.2041570000000 1.0
C      1  0.5348390000000  0.5541670000000  0.7958430000000 1.0
C      1  0.2925490000000  0.5158470000000  0.5444480000000 1.0
C      1  0.7074510000000  0.4841530000000  0.4555520000000 1.0
C      1  0.5743720000000  0.4250090000000  0.7236670000000 1.0
C      1  0.4256280000000  0.5749910000000  0.2763330000000 1.0
C      1  0.5361750000000  0.2815160000000  0.5316950000000 1.0
C      1  0.4638250000000  0.7184840000000  0.4683050000000 1.0
C      1  0.6089440000000  0.5062910000000  0.7547810000000 1.0
C      1  0.3910560000000  0.4937090000000  0.2452190000000 1.0
C      1  0.3328000000000  0.5688020000000  0.6188870000000 1.0
C      1  0.6672000000000  0.4311980000000  0.3811130000000 1.0
C      1  0.4010350000000  0.3524650000000  0.3054030000000 1.0
C      1  0.5989650000000  0.6475350000000  0.6945970000000 1.0
C      1  0.4703930000000  0.7039520000000  0.6286940000000 1.0
C      1  0.5296070000000  0.2960480000000  0.3713060000000 1.0
C      1  0.3016030000000  0.5946780000000  0.4865090000000 1.0
C      1  0.6983970000000  0.4053220000000  0.5134910000000 1.0
C      1  0.5235980000000  0.5852780000000  0.2816880000000 1.0
C      1  0.4764020000000  0.4147220000000  0.7183120000000 1.0
C      1  0.4622190000000  0.3508200000000  0.6520490000000 1.0
C      1  0.5377810000000  0.6491800000000  0.3479510000000 1.0
C      1  0.5046770000000  0.5187160000000  0.5354050000000 1.0
C      1  0.4953230000000  0.4812840000000  0.4645950000000 1.0
C      1  0.4429940000000  0.2682380000000  0.5282740000000 1.0
C      1  0.5570060000000  0.7317620000000  0.4717260000000 1.0
END
