TITL C-2159255-4746-374 -0.00107816343154586 3375 -387.454486460321 0 0 60 (C3) n - 1
REM
REM in /scratch/bkarasulu/871
REM
REM
REM
REM
REM
REM ./C.cell (a2850807a9bf4ad07a5b6933b78d9264)
REM AIRSS Version 0.9.1 bugfix July 2018 build 013d7b7c2542+ Fri, 06 Jul 2018 19:26:36 +0100
REM compiler GCC version 9.2.1 20190827 (Red Hat 9.2.1-1)
REM options -cpp -mtune=generic -march=x86-64 -g -O0 -fpre-include=/usr/include/finclude/math-vector-fortran.h
REM seed -2027738816 1199837429 -647659192 -1722254585 -690810535 -1059144129 -832437873 1120353267 -876528877 846646249 -4213581 -1862699123 197239728 2050001956 2136802709 -199354379 -2048797236 1833913756 -904999988 999048754 -866349351 1289872212 -396256327 289966272 -326513327 -308994898 -2011335864 -421960406 -841602194 -2120748999 1847950399 777134099 -200012317
REM
CELL 1.54180   15.00000   15.00000   15.00000   90.00000   90.00000   90.00000
LATT -1
SFAC C  
C      1  0.3440460000000  0.6083420000000  0.5805790000000 1.0
C      1  0.3440450000000  0.5156110000000  0.3658860000000 1.0
C      1  0.3440450000000  0.3760490000000  0.5535390000000 1.0
C      1  0.3189730000000  0.5386990000000  0.6432930000000 1.0
C      1  0.3189710000000  0.6047440000000  0.3948420000000 1.0
C      1  0.3189700000000  0.3565580000000  0.4618700000000 1.0
C      1  0.4535080000000  0.7320270000000  0.5973590000000 1.0
C      1  0.4535060000000  0.4683030000000  0.2503780000000 1.0
C      1  0.4535080000000  0.2996720000000  0.6522610000000 1.0
C      1  0.4763630000000  0.4156220000000  0.3316670000000 1.0
C      1  0.4763660000000  0.3964090000000  0.6572400000000 1.0
C      1  0.4763650000000  0.6879700000000  0.5110920000000 1.0
C      1  0.3977510000000  0.5552200000000  0.5167670000000 1.0
C      1  0.3977510000000  0.4869110000000  0.4437970000000 1.0
C      1  0.3977510000000  0.4578720000000  0.5394380000000 1.0
C      1  0.5398010000000  0.4456100000000  0.2579190000000 1.0
C      1  0.5398040000000  0.3175470000000  0.6681420000000 1.0
C      1  0.5398040000000  0.7368430000000  0.5739370000000 1.0
C      1  0.3252760000000  0.6396180000000  0.4865500000000 1.0
C      1  0.3252740000000  0.4185410000000  0.3858130000000 1.0
C      1  0.3252760000000  0.4418400000000  0.6276420000000 1.0
C      1  0.6032120000000  0.6742290000000  0.6025550000000 1.0
C      1  0.6032100000000  0.5017020000000  0.2978340000000 1.0
C      1  0.6032120000000  0.3240700000000  0.5996070000000 1.0
C      1  0.4761850000000  0.3160680000000  0.4938270000000 1.0
C      1  0.4761870000000  0.5866200000000  0.6623780000000 1.0
C      1  0.4761860000000  0.5973120000000  0.3437970000000 1.0
C      1  0.4881490000000  0.4650750000000  0.4182970000000 1.0
C      1  0.4881500000000  0.4467050000000  0.5710970000000 1.0
C      1  0.4881500000000  0.5882200000000  0.5106070000000 1.0
C      1  0.6611400000000  0.4018350000000  0.6082370000000 1.0
C      1  0.6611400000000  0.6428230000000  0.5308940000000 1.0
C      1  0.6611400000000  0.4553450000000  0.3608630000000 1.0
C      1  0.6879940000000  0.4427220000000  0.5211920000000 1.0
C      1  0.6879930000000  0.5469960000000  0.5390050000000 1.0
C      1  0.6879940000000  0.5102810000000  0.4398000000000 1.0
C      1  0.5739920000000  0.2879900000000  0.5120230000000 1.0
C      1  0.5739940000000  0.6164180000000  0.6775930000000 1.0
C      1  0.5739920000000  0.5955910000000  0.3103810000000 1.0
C      1  0.6362600000000  0.5473500000000  0.7006920000000 1.0
C      1  0.6362590000000  0.6501270000000  0.3586480000000 1.0
C      1  0.6362570000000  0.3025190000000  0.4406590000000 1.0
C      1  0.5222070000000  0.5365360000000  0.5843120000000 1.0
C      1  0.5222070000000  0.5547480000000  0.4262030000000 1.0
C      1  0.5222060000000  0.4087160000000  0.4894850000000 1.0
C      1  0.4165070000000  0.6566790000000  0.6281100000000 1.0
C      1  0.4165050000000  0.5326050000000  0.3002590000000 1.0
C      1  0.4165050000000  0.3107160000000  0.5716330000000 1.0
C      1  0.6205240000000  0.5188410000000  0.6031670000000 1.0
C      1  0.6205240000000  0.5799230000000  0.4320990000000 1.0
C      1  0.6205230000000  0.4012320000000  0.4647320000000 1.0
C      1  0.4029600000000  0.6569690000000  0.3708170000000 1.0
C      1  0.4029590000000  0.3096400000000  0.4286530000000 1.0
C      1  0.4029620000000  0.5333920000000  0.7005330000000 1.0
C      1  0.3988950000000  0.6998850000000  0.4551740000000 1.0
C      1  0.3988940000000  0.3612380000000  0.3493080000000 1.0
C      1  0.3988970000000  0.4388790000000  0.6955200000000 1.0
C      1  0.6562610000000  0.4610950000000  0.6832720000000 1.0
C      1  0.6562590000000  0.6781720000000  0.4420550000000 1.0
C      1  0.6562560000000  0.3607340000000  0.3746700000000 1.0
END
