TITL C-2158984-8299-707 -0.00289897545233934 3375 -420.455054907159 0 0 60 (Cs) n - 1
REM
REM in /scratch/bkarasulu/869
REM
REM
REM
REM
REM
REM ./C.cell (a2850807a9bf4ad07a5b6933b78d9264)
REM AIRSS Version 0.9.1 bugfix July 2018 build 013d7b7c2542+ Fri, 06 Jul 2018 19:26:36 +0100
REM compiler GCC version 9.2.1 20190827 (Red Hat 9.2.1-1)
REM options -cpp -mtune=generic -march=x86-64 -g -O0 -fpre-include=/usr/include/finclude/math-vector-fortran.h
REM seed -1304285354 -1988545732 -742846399 -1223718707 -69032395 1935684810 296423861 -746157649 368844702 -2041202089 -1288423834 1443869970 381619172 1645019662 1472256115 -442947015 -2022561834 992262948 -1857227498 -1113773323 -1754677540 -1899529034 -1213273299 446888306 1649523855 1483876590 -1096676280 -131283787 94092572 719611962 859395812 -1907992240 1520356934
REM
CELL 1.54180   15.00000   15.00000   15.00000   90.00000   90.00000   90.00000
LATT -1
SFAC C  
C      1  0.7164620000000  0.5727060000000  0.3465200000000 1.0
C      1  0.7161920000000  0.6660530000000  0.4624160000000 1.0
C      1  0.7169090000000  0.6338510000000  0.6081310000000 1.0
C      1  0.7170250000000  0.4993800000000  0.6730180000000 1.0
C      1  0.7171920000000  0.3652680000000  0.6083710000000 1.0
C      1  0.7172450000000  0.3309680000000  0.4633530000000 1.0
C      1  0.7169570000000  0.4236430000000  0.3461940000000 1.0
C      1  0.3521220000000  0.3269520000000  0.4634200000000 1.0
C      1  0.3515360000000  0.4218420000000  0.3434400000000 1.0
C      1  0.3528490000000  0.5747460000000  0.3430780000000 1.0
C      1  0.3524630000000  0.6695940000000  0.4612620000000 1.0
C      1  0.3511970000000  0.6361120000000  0.6107880000000 1.0
C      1  0.3528250000000  0.4982480000000  0.6775010000000 1.0
C      1  0.3536520000000  0.3613920000000  0.6120930000000 1.0
C      1  0.6229580000000  0.3831480000000  0.4749710000000 1.0
C      1  0.6227290000000  0.4466040000000  0.3946100000000 1.0
C      1  0.6221350000000  0.5490400000000  0.3953120000000 1.0
C      1  0.6220370000000  0.6130710000000  0.4750530000000 1.0
C      1  0.6228530000000  0.5917860000000  0.5752200000000 1.0
C      1  0.6226500000000  0.4993180000000  0.6191820000000 1.0
C      1  0.6227390000000  0.4070930000000  0.5746660000000 1.0
C      1  0.3969150000000  0.6862730000000  0.5431820000000 1.0
C      1  0.3970470000000  0.5820610000000  0.6753150000000 1.0
C      1  0.3986630000000  0.4148560000000  0.6758480000000 1.0
C      1  0.3983940000000  0.3117760000000  0.5454410000000 1.0
C      1  0.3967090000000  0.3466920000000  0.3814850000000 1.0
C      1  0.3975580000000  0.4984990000000  0.3098630000000 1.0
C      1  0.3980530000000  0.6491980000000  0.3803360000000 1.0
C      1  0.2805700000000  0.4505550000000  0.4025900000000 1.0
C      1  0.2820430000000  0.5463680000000  0.4019340000000 1.0
C      1  0.2814880000000  0.6059510000000  0.4762860000000 1.0
C      1  0.2803180000000  0.5844290000000  0.5699280000000 1.0
C      1  0.2818120000000  0.4981390000000  0.6121440000000 1.0
C      1  0.2828700000000  0.4121930000000  0.5711500000000 1.0
C      1  0.2811080000000  0.3908850000000  0.4779740000000 1.0
C      1  0.5376710000000  0.3284920000000  0.4630380000000 1.0
C      1  0.5373290000000  0.4222260000000  0.3444430000000 1.0
C      1  0.5381090000000  0.5744560000000  0.3434980000000 1.0
C      1  0.5370420000000  0.6673980000000  0.4617770000000 1.0
C      1  0.5374430000000  0.6357790000000  0.6102420000000 1.0
C      1  0.5375660000000  0.4987680000000  0.6750730000000 1.0
C      1  0.5388690000000  0.3621780000000  0.6111960000000 1.0
C      1  0.7556350000000  0.5825270000000  0.6734250000000 1.0
C      1  0.7560200000000  0.4164490000000  0.6737470000000 1.0
C      1  0.7560190000000  0.3124900000000  0.5442880000000 1.0
C      1  0.7557450000000  0.3487720000000  0.3820960000000 1.0
C      1  0.7553820000000  0.4983770000000  0.3096540000000 1.0
C      1  0.7550870000000  0.6481530000000  0.3813610000000 1.0
C      1  0.7551050000000  0.6857930000000  0.5430370000000 1.0
C      1  0.4917110000000  0.4985100000000  0.3124240000000 1.0
C      1  0.4922740000000  0.6485310000000  0.3806620000000 1.0
C      1  0.4913840000000  0.6835780000000  0.5425970000000 1.0
C      1  0.4917040000000  0.5812200000000  0.6729410000000 1.0
C      1  0.4928850000000  0.4155160000000  0.6744600000000 1.0
C      1  0.4925440000000  0.3137830000000  0.5447030000000 1.0
C      1  0.4917240000000  0.3483190000000  0.3825480000000 1.0
C      1  0.7732300000000  0.4989630000000  0.5010720000000 1.0
C      1  0.4508640000000  0.4724230000000  0.5306250000000 1.0
C      1  0.4526540000000  0.5241580000000  0.4722710000000 1.0
C      1  0.1694050000000  0.4982800000000  0.5017730000000 1.0
END
