TITL C-2158988-7926-1055 -0.00185643107396613 3375 -405.214420362785 0 0 60 (C1) n - 1
REM
REM in /scratch/bkarasulu/868
REM
REM
REM
REM
REM
REM ./C.cell (a2850807a9bf4ad07a5b6933b78d9264)
REM AIRSS Version 0.9.1 bugfix July 2018 build 013d7b7c2542+ Fri, 06 Jul 2018 19:26:36 +0100
REM compiler GCC version 9.2.1 20190827 (Red Hat 9.2.1-1)
REM options -cpp -mtune=generic -march=x86-64 -g -O0 -fpre-include=/usr/include/finclude/math-vector-fortran.h
REM seed 1449586485 1978537695 -1169924011 -141236238 -1833190549 -1675080140 -127210308 1895377250 1498456231 1420133007 796485578 -2027766828 -671148614 1517251067 -1243455126 1282136409 1095343231 153961653 561455247 1116228810 2123871567 1492923257 185083474 1084524621 1432424964 -250448379 -2041692324 64612103 -567349206 -239836001 -2041657330 -1130544526 -1191415364
REM
CELL 1.54180   15.00000   15.00000   15.00000   90.00000   90.00000   90.00000
LATT -1
SFAC C  
C      1  0.2807850000000  0.4465180000000  0.4676470000000 1.0
C      1  0.4158720000000  0.3621070000000  0.5848220000000 1.0
C      1  0.7077870000000  0.3957360000000  0.5671380000000 1.0
C      1  0.6285380000000  0.4522420000000  0.3257690000000 1.0
C      1  0.3591670000000  0.5759360000000  0.6728410000000 1.0
C      1  0.6040870000000  0.4723980000000  0.7081560000000 1.0
C      1  0.7533120000000  0.4877050000000  0.4312900000000 1.0
C      1  0.3203850000000  0.6131980000000  0.5945760000000 1.0
C      1  0.7197210000000  0.4586520000000  0.3439360000000 1.0
C      1  0.5289300000000  0.2997230000000  0.3738340000000 1.0
C      1  0.5359260000000  0.4063410000000  0.4891890000000 1.0
C      1  0.5976550000000  0.6260820000000  0.6717180000000 1.0
C      1  0.5788240000000  0.3254070000000  0.5213380000000 1.0
C      1  0.5996420000000  0.7359320000000  0.4536560000000 1.0
C      1  0.3345810000000  0.4197900000000  0.6184620000000 1.0
C      1  0.5206130000000  0.5993620000000  0.7278960000000 1.0
C      1  0.3888090000000  0.4903050000000  0.3688420000000 1.0
C      1  0.4406250000000  0.4196880000000  0.5037060000000 1.0
C      1  0.3625140000000  0.4117480000000  0.4274030000000 1.0
C      1  0.4449350000000  0.4838090000000  0.2915220000000 1.0
C      1  0.6720510000000  0.6353560000000  0.5346740000000 1.0
C      1  0.4980910000000  0.5666800000000  0.2862120000000 1.0
C      1  0.2626550000000  0.5556070000000  0.5470590000000 1.0
C      1  0.7018950000000  0.4752850000000  0.5151320000000 1.0
C      1  0.4254940000000  0.5158850000000  0.5244660000000 1.0
C      1  0.7020120000000  0.5562810000000  0.5752300000000 1.0
C      1  0.5232030000000  0.2752170000000  0.4703450000000 1.0
C      1  0.5606290000000  0.4930760000000  0.5855500000000 1.0
C      1  0.5484880000000  0.5380850000000  0.4340870000000 1.0
C      1  0.3714050000000  0.3183060000000  0.3924400000000 1.0
C      1  0.5926350000000  0.4820520000000  0.4971920000000 1.0
C      1  0.5694940000000  0.3785930000000  0.3236150000000 1.0
C      1  0.2681340000000  0.5411470000000  0.4501370000000 1.0
C      1  0.6447560000000  0.5448980000000  0.6532860000000 1.0
C      1  0.6000300000000  0.6710450000000  0.5875200000000 1.0
C      1  0.5401730000000  0.7225960000000  0.5247000000000 1.0
C      1  0.4328230000000  0.2808770000000  0.5149810000000 1.0
C      1  0.3642800000000  0.4790170000000  0.6850990000000 1.0
C      1  0.4396520000000  0.6311560000000  0.3033540000000 1.0
C      1  0.5765280000000  0.4006390000000  0.6487530000000 1.0
C      1  0.3705010000000  0.6467080000000  0.3606130000000 1.0
C      1  0.6362670000000  0.3482450000000  0.5906850000000 1.0
C      1  0.4456280000000  0.7163210000000  0.5114420000000 1.0
C      1  0.3237010000000  0.5623550000000  0.3790310000000 1.0
C      1  0.3730780000000  0.2481230000000  0.4564640000000 1.0
C      1  0.4436750000000  0.3179470000000  0.3321700000000 1.0
C      1  0.3625320000000  0.6787930000000  0.5374330000000 1.0
C      1  0.4506870000000  0.5986990000000  0.6686440000000 1.0
C      1  0.5854190000000  0.5477060000000  0.3440070000000 1.0
C      1  0.4808500000000  0.3975600000000  0.2895710000000 1.0
C      1  0.3814620000000  0.6892270000000  0.4477110000000 1.0
C      1  0.6613290000000  0.6681770000000  0.4414290000000 1.0
C      1  0.4557300000000  0.5415240000000  0.4394310000000 1.0
C      1  0.4484190000000  0.4465860000000  0.7180270000000 1.0
C      1  0.7430680000000  0.5533980000000  0.3666970000000 1.0
C      1  0.6653230000000  0.6072380000000  0.3662710000000 1.0
C      1  0.4795350000000  0.3781800000000  0.6599820000000 1.0
C      1  0.5214940000000  0.5059240000000  0.7413900000000 1.0
C      1  0.4816530000000  0.5437890000000  0.5901090000000 1.0
C      1  0.2725150000000  0.4590230000000  0.5613200000000 1.0
END
