TITL C-2159252-5904-433 -0.00294556325009102 3375 -437.967547086953 0 0 60 (D5h) n - 1
REM
REM in /scratch/bkarasulu/870
REM
REM
REM
REM
REM
REM ./C.cell (a2850807a9bf4ad07a5b6933b78d9264)
REM AIRSS Version 0.9.1 bugfix July 2018 build 013d7b7c2542+ Fri, 06 Jul 2018 19:26:36 +0100
REM compiler GCC version 9.2.1 20190827 (Red Hat 9.2.1-1)
REM options -cpp -mtune=generic -march=x86-64 -g -O0 -fpre-include=/usr/include/finclude/math-vector-fortran.h
REM seed 992166474 76707107 -1446288497 519082244 -1674433067 -944454729 1988246658 1942379345 1771484670 92585780 1548423826 -936705599 2072737832 1135811641 -375196345 -2071802153 -1710918180 531190247 311505181 -1038807411 1567794717 378686287 1560940799 1301073377 1919235948 -644238136 -514222805 -1594809729 -1334825215 -241505797 -966508306 2063658725 -549128069
REM
CELL 1.54180   15.00000   15.00000   15.00000   90.00000   90.00000   90.00000
LATT -1
SFAC C  
C      1  0.4532120000000  0.3825540000000  0.3013150000000 1.0
C      1  0.6745010000000  0.3825540000000  0.3941050000000 1.0
C      1  0.6546360000000  0.3825560000000  0.6332370000000 1.0
C      1  0.4210690000000  0.3825570000000  0.6882410000000 1.0
C      1  0.2965800000000  0.3825550000000  0.4831010000000 1.0
C      1  0.5467880000000  0.6174460000000  0.3013150000000 1.0
C      1  0.3254990000000  0.6174460000000  0.3941050000000 1.0
C      1  0.3453640000000  0.6174440000000  0.6332370000000 1.0
C      1  0.5789310000000  0.6174430000000  0.6882410000000 1.0
C      1  0.7034200000000  0.6174450000000  0.4831010000000 1.0
C      1  0.3473750000000  0.3349080000000  0.5495910000000 1.0
C      1  0.4056730000000  0.3349070000000  0.3701700000000 1.0
C      1  0.5943270000000  0.3349060000000  0.3701700000000 1.0
C      1  0.6526250000000  0.3349080000000  0.5495900000000 1.0
C      1  0.5000000000000  0.3349090000000  0.6604790000000 1.0
C      1  0.6526250000000  0.6650920000000  0.5495910000000 1.0
C      1  0.5943270000000  0.6650930000000  0.3701700000000 1.0
C      1  0.4056730000000  0.6650940000000  0.3701700000000 1.0
C      1  0.3473750000000  0.6650920000000  0.5495900000000 1.0
C      1  0.5000000000000  0.6650910000000  0.6604790000000 1.0
C      1  0.4501670000000  0.4529720000000  0.7440580000000 1.0
C      1  0.2524890000000  0.4529720000000  0.5280210000000 1.0
C      1  0.3968660000000  0.4529720000000  0.2732640000000 1.0
C      1  0.6837660000000  0.4529720000000  0.3318480000000 1.0
C      1  0.7167120000000  0.4529720000000  0.6228100000000 1.0
C      1  0.5498330000000  0.5470280000000  0.7440580000000 1.0
C      1  0.7475110000000  0.5470280000000  0.5280210000000 1.0
C      1  0.6031340000000  0.5470280000000  0.2732640000000 1.0
C      1  0.3162340000000  0.5470280000000  0.3318480000000 1.0
C      1  0.2832880000000  0.5470280000000  0.6228100000000 1.0
C      1  0.5498330000000  0.4529720000000  0.7440580000000 1.0
C      1  0.2832880000000  0.4529720000000  0.6228100000000 1.0
C      1  0.3162340000000  0.4529720000000  0.3318480000000 1.0
C      1  0.6031340000000  0.4529720000000  0.2732640000000 1.0
C      1  0.7475110000000  0.4529720000000  0.5280210000000 1.0
C      1  0.4501670000000  0.5470280000000  0.7440580000000 1.0
C      1  0.7167120000000  0.5470280000000  0.6228100000000 1.0
C      1  0.6837660000000  0.5470280000000  0.3318480000000 1.0
C      1  0.3968660000000  0.5470280000000  0.2732640000000 1.0
C      1  0.2524890000000  0.5470280000000  0.5280210000000 1.0
C      1  0.4221090000000  0.7149290000000  0.5253090000000 1.0
C      1  0.4518610000000  0.7149300000000  0.4337420000000 1.0
C      1  0.5481400000000  0.7149300000000  0.4337420000000 1.0
C      1  0.5778920000000  0.7149290000000  0.5253090000000 1.0
C      1  0.5000000000000  0.7149280000000  0.5819000000000 1.0
C      1  0.5778910000000  0.2850710000000  0.5253090000000 1.0
C      1  0.5481390000000  0.2850700000000  0.4337420000000 1.0
C      1  0.4518600000000  0.2850700000000  0.4337420000000 1.0
C      1  0.4221080000000  0.2850710000000  0.5253090000000 1.0
C      1  0.5000000000000  0.2850720000000  0.5819000000000 1.0
C      1  0.4210690000000  0.6174430000000  0.6882410000000 1.0
C      1  0.2965800000000  0.6174460000000  0.4831010000000 1.0
C      1  0.4532120000000  0.6174460000000  0.3013150000000 1.0
C      1  0.6745020000000  0.6174450000000  0.3941050000000 1.0
C      1  0.6546360000000  0.6174430000000  0.6332370000000 1.0
C      1  0.5789310000000  0.3825570000000  0.6882410000000 1.0
C      1  0.7034200000000  0.3825540000000  0.4831010000000 1.0
C      1  0.5467880000000  0.3825540000000  0.3013150000000 1.0
C      1  0.3254980000000  0.3825550000000  0.3941050000000 1.0
C      1  0.3453640000000  0.3825570000000  0.6332370000000 1.0
END
