TITL C-2159252-5904-221 -0.00318113514375095 3375 -425.200964553372 0 0 60 (D2) n - 1
REM
REM in /scratch/bkarasulu/870
REM
REM
REM
REM
REM
REM ./C.cell (a2850807a9bf4ad07a5b6933b78d9264)
REM AIRSS Version 0.9.1 bugfix July 2018 build 013d7b7c2542+ Fri, 06 Jul 2018 19:26:36 +0100
REM compiler GCC version 9.2.1 20190827 (Red Hat 9.2.1-1)
REM options -cpp -mtune=generic -march=x86-64 -g -O0 -fpre-include=/usr/include/finclude/math-vector-fortran.h
REM seed 1738752301 -505203452 198126336 -854854559 560076331 1298958227 1884651924 701637242 873809305 -1447828194 1673179436 -834855684 -166400749 574835498 -1992035674 -676075881 1742564847 81576570 90186424 169934465 2042203105 1858644158 716558195 1850956393 1890692525 -944820914 -822670960 -490642132 1821067106 -242018062 1600417936 -1196504513 -1512505613
REM
CELL 1.54180   15.00000   15.00000   15.00000   90.00000   90.00000   90.00000
LATT -1
SFAC C  
C      1  0.3108300000000  0.3434270000000  0.4867170000000 1.0
C      1  0.3147360000000  0.3629760000000  0.5793780000000 1.0
C      1  0.3332880000000  0.4353350000000  0.6362720000000 1.0
C      1  0.3250370000000  0.5329820000000  0.6468920000000 1.0
C      1  0.3167810000000  0.6127600000000  0.6024160000000 1.0
C      1  0.3108300000000  0.6565730000000  0.5132830000000 1.0
C      1  0.3147360000000  0.6370240000000  0.4206220000000 1.0
C      1  0.3332880000000  0.5646650000000  0.3637280000000 1.0
C      1  0.3250370000000  0.4670180000000  0.3531080000000 1.0
C      1  0.3167810000000  0.3872400000000  0.3975840000000 1.0
C      1  0.5495280000000  0.5437180000000  0.7425340000000 1.0
C      1  0.5391950000000  0.7035290000000  0.6301730000000 1.0
C      1  0.5340700000000  0.7381340000000  0.5397630000000 1.0
C      1  0.5117910000000  0.6822500000000  0.3516560000000 1.0
C      1  0.5581400000000  0.5525400000000  0.2569130000000 1.0
C      1  0.5495280000000  0.4562820000000  0.2574660000000 1.0
C      1  0.5391950000000  0.2964710000000  0.3698270000000 1.0
C      1  0.5340700000000  0.2618660000000  0.4602370000000 1.0
C      1  0.5117910000000  0.3177500000000  0.6483440000000 1.0
C      1  0.5581400000000  0.4474600000000  0.7430870000000 1.0
C      1  0.6463000000000  0.4210750000000  0.7378430000000 1.0
C      1  0.6255940000000  0.5871770000000  0.7105070000000 1.0
C      1  0.6192190000000  0.6633050000000  0.6532870000000 1.0
C      1  0.6058030000000  0.7182910000000  0.4846150000000 1.0
C      1  0.5947040000000  0.6855930000000  0.3944930000000 1.0
C      1  0.6463000000000  0.5789250000000  0.2621570000000 1.0
C      1  0.6255940000000  0.4128230000000  0.2894930000000 1.0
C      1  0.6192190000000  0.3366950000000  0.3467130000000 1.0
C      1  0.6058030000000  0.2817090000000  0.5153850000000 1.0
C      1  0.5947040000000  0.3144070000000  0.6055070000000 1.0
C      1  0.6891700000000  0.5441520000000  0.6508060000000 1.0
C      1  0.6832190000000  0.6227920000000  0.5901430000000 1.0
C      1  0.6749630000000  0.6505150000000  0.5031140000000 1.0
C      1  0.6667120000000  0.6206900000000  0.4095290000000 1.0
C      1  0.6852640000000  0.5505450000000  0.3499270000000 1.0
C      1  0.6891700000000  0.4558480000000  0.3491940000000 1.0
C      1  0.6832190000000  0.3772080000000  0.4098570000000 1.0
C      1  0.6749630000000  0.3494850000000  0.4968860000000 1.0
C      1  0.6667120000000  0.3793100000000  0.5904710000000 1.0
C      1  0.6852640000000  0.4494550000000  0.6500730000000 1.0
C      1  0.3807810000000  0.6826990000000  0.6295620000000 1.0
C      1  0.3744050000000  0.7236380000000  0.5435770000000 1.0
C      1  0.3537010000000  0.7173980000000  0.3753570000000 1.0
C      1  0.4052950000000  0.5664950000000  0.2971320000000 1.0
C      1  0.3941970000000  0.4716710000000  0.2830080000000 1.0
C      1  0.3807810000000  0.3173010000000  0.3704380000000 1.0
C      1  0.3744050000000  0.2763620000000  0.4564230000000 1.0
C      1  0.3537000000000  0.2826020000000  0.6246430000000 1.0
C      1  0.4052950000000  0.4335050000000  0.7028680000000 1.0
C      1  0.3941970000000  0.5283290000000  0.7169920000000 1.0
C      1  0.4659300000000  0.5863220000000  0.7254720000000 1.0
C      1  0.4608050000000  0.6680460000000  0.6735790000000 1.0
C      1  0.4504720000000  0.7463830000000  0.4946170000000 1.0
C      1  0.4418600000000  0.7277820000000  0.4001720000000 1.0
C      1  0.4882090000000  0.6091410000000  0.2918900000000 1.0
C      1  0.4659300000000  0.4136780000000  0.2745280000000 1.0
C      1  0.4608050000000  0.3319540000000  0.3264210000000 1.0
C      1  0.4504720000000  0.2536170000000  0.5053830000000 1.0
C      1  0.4418600000000  0.2722180000000  0.5998280000000 1.0
C      1  0.4882090000000  0.3908590000000  0.7081100000000 1.0
END
