TITL C-2158988-7926-357 -0.0014935822725072 3375 -412.042230086402 0 0 60 (C1) n - 1
REM
REM in /scratch/bkarasulu/868
REM
REM
REM
REM
REM
REM ./C.cell (a2850807a9bf4ad07a5b6933b78d9264)
REM AIRSS Version 0.9.1 bugfix July 2018 build 013d7b7c2542+ Fri, 06 Jul 2018 19:26:36 +0100
REM compiler GCC version 9.2.1 20190827 (Red Hat 9.2.1-1)
REM options -cpp -mtune=generic -march=x86-64 -g -O0 -fpre-include=/usr/include/finclude/math-vector-fortran.h
REM seed -37105348 348089483 996639956 -818868893 -478285639 -1977515157 848765593 -1274053008 891817820 1818308342 -1602389477 1314878068 1777960974 -1913062439 5527824 -1990315440 826346963 -999058389 1979341197 1292451968 280016307 -2058862850 -2054798702 295975824 -475268405 63368160 -342173421 2070251890 1321465714 719647925 1987296542 -144839234 -810872458
REM
CELL 1.54180   15.00000   15.00000   15.00000   90.00000   90.00000   90.00000
LATT -1
SFAC C  
C      1  0.5362660000000  0.3075580000000  0.5919230000000 1.0
C      1  0.6627510000000  0.5792720000000  0.3393960000000 1.0
C      1  0.3343460000000  0.6590180000000  0.4122940000000 1.0
C      1  0.5938280000000  0.3154310000000  0.3851700000000 1.0
C      1  0.7284310000000  0.5320660000000  0.4884850000000 1.0
C      1  0.2927010000000  0.5730110000000  0.6325940000000 1.0
C      1  0.4272870000000  0.6835260000000  0.5583660000000 1.0
C      1  0.2980560000000  0.5099600000000  0.4650700000000 1.0
C      1  0.6710170000000  0.3578930000000  0.4231280000000 1.0
C      1  0.4622530000000  0.3789990000000  0.3337650000000 1.0
C      1  0.3621760000000  0.5434960000000  0.3072740000000 1.0
C      1  0.6842400000000  0.3685080000000  0.5171620000000 1.0
C      1  0.4910040000000  0.5281510000000  0.3768540000000 1.0
C      1  0.4463160000000  0.4247380000000  0.5410630000000 1.0
C      1  0.6335600000000  0.6748770000000  0.5328830000000 1.0
C      1  0.5591760000000  0.4841400000000  0.4286320000000 1.0
C      1  0.4041610000000  0.4964650000000  0.6887520000000 1.0
C      1  0.5032350000000  0.5536280000000  0.5539500000000 1.0
C      1  0.4132670000000  0.4670310000000  0.3463960000000 1.0
C      1  0.3536120000000  0.4450240000000  0.4197880000000 1.0
C      1  0.7151410000000  0.5204270000000  0.3942300000000 1.0
C      1  0.5278080000000  0.2468450000000  0.5243070000000 1.0
C      1  0.5568600000000  0.3721640000000  0.3155730000000 1.0
C      1  0.4418730000000  0.3220790000000  0.4077720000000 1.0
C      1  0.5882420000000  0.7020580000000  0.6104940000000 1.0
C      1  0.5393090000000  0.6475740000000  0.6670560000000 1.0
C      1  0.5765810000000  0.6674470000000  0.4544900000000 1.0
C      1  0.3860360000000  0.3719800000000  0.4739080000000 1.0
C      1  0.4393560000000  0.6526080000000  0.6499250000000 1.0
C      1  0.4518570000000  0.6036040000000  0.4235400000000 1.0
C      1  0.3293450000000  0.4330500000000  0.6800920000000 1.0
C      1  0.6932330000000  0.4307470000000  0.3626490000000 1.0
C      1  0.7281760000000  0.4510350000000  0.5400050000000 1.0
C      1  0.3617520000000  0.3600900000000  0.6309060000000 1.0
C      1  0.6377660000000  0.4175910000000  0.6607750000000 1.0
C      1  0.4624780000000  0.3701790000000  0.6249340000000 1.0
C      1  0.5941660000000  0.6405940000000  0.3661100000000 1.0
C      1  0.5223840000000  0.2754810000000  0.4377340000000 1.0
C      1  0.5333240000000  0.4719910000000  0.5141630000000 1.0
C      1  0.4860040000000  0.4426640000000  0.6948090000000 1.0
C      1  0.6951330000000  0.6033340000000  0.5497800000000 1.0
C      1  0.3458830000000  0.6647870000000  0.5112640000000 1.0
C      1  0.5270140000000  0.5825000000000  0.3006190000000 1.0
C      1  0.2636720000000  0.4426990000000  0.5399420000000 1.0
C      1  0.3731880000000  0.5929480000000  0.6872790000000 1.0
C      1  0.4128080000000  0.6697500000000  0.3583500000000 1.0
C      1  0.6235730000000  0.3501200000000  0.5945110000000 1.0
C      1  0.6794380000000  0.5643800000000  0.6370870000000 1.0
C      1  0.3283790000000  0.5756590000000  0.5420460000000 1.0
C      1  0.5721100000000  0.4748760000000  0.7036150000000 1.0
C      1  0.3146810000000  0.3632420000000  0.5449150000000 1.0
C      1  0.4278230000000  0.6137720000000  0.2811310000000 1.0
C      1  0.7037100000000  0.4743000000000  0.6278590000000 1.0
C      1  0.4142910000000  0.5136500000000  0.5762170000000 1.0
C      1  0.6080820000000  0.5308310000000  0.2758990000000 1.0
C      1  0.2644580000000  0.4813870000000  0.6290900000000 1.0
C      1  0.3007110000000  0.5715640000000  0.3821080000000 1.0
C      1  0.5983460000000  0.5700870000000  0.6891390000000 1.0
C      1  0.6230890000000  0.4389720000000  0.2942370000000 1.0
C      1  0.4942360000000  0.6381390000000  0.4984960000000 1.0
END
