TITL C-2158984-8299-839 -0.00337724884237304 3375 -424.601003358691 0 0 60 (Cs) n - 1
REM
REM in /scratch/bkarasulu/869
REM
REM
REM
REM
REM
REM ./C.cell (a2850807a9bf4ad07a5b6933b78d9264)
REM AIRSS Version 0.9.1 bugfix July 2018 build 013d7b7c2542+ Fri, 06 Jul 2018 19:26:36 +0100
REM compiler GCC version 9.2.1 20190827 (Red Hat 9.2.1-1)
REM options -cpp -mtune=generic -march=x86-64 -g -O0 -fpre-include=/usr/include/finclude/math-vector-fortran.h
REM seed 282791911 -1320454241 1222774821 1321839972 740045850 -1054118605 -1954543266 1616010389 -169790164 436370997 -1527109006 -1308514093 -928272503 -469806291 -1249314447 -1706082531 2099218717 1774653655 -1895589166 -966381952 1740433196 -1638020019 89860204 406301514 -2047777643 313336116 275354457 -691974352 1401487355 1559599545 -436399147 -808186295 -1025320870
REM
CELL 1.54180   15.00000   15.00000   15.00000   90.00000   90.00000   90.00000
LATT -1
SFAC C  
C      1  0.5016560000000  0.3785790000000  0.3199340000000 1.0
C      1  0.4088250000000  0.3918670000000  0.3501250000000 1.0
C      1  0.3392660000000  0.3807840000000  0.4189260000000 1.0
C      1  0.3221070000000  0.3806000000000  0.5211620000000 1.0
C      1  0.3643210000000  0.3911440000000  0.6102880000000 1.0
C      1  0.4458400000000  0.3867040000000  0.6677800000000 1.0
C      1  0.5455900000000  0.3911350000000  0.6680110000000 1.0
C      1  0.6315660000000  0.3805860000000  0.6197010000000 1.0
C      1  0.6766820000000  0.3807680000000  0.5263660000000 1.0
C      1  0.6597120000000  0.3918550000000  0.4300140000000 1.0
C      1  0.6014270000000  0.3785750000000  0.3517050000000 1.0
C      1  0.4219970000000  0.4463040000000  0.7426680000000 1.0
C      1  0.5653390000000  0.4624820000000  0.7343830000000 1.0
C      1  0.6907480000000  0.4412100000000  0.6714070000000 1.0
C      1  0.7536860000000  0.4427020000000  0.5406550000000 1.0
C      1  0.7180340000000  0.4700210000000  0.4044010000000 1.0
C      1  0.6445840000000  0.4379880000000  0.2844050000000 1.0
C      1  0.5053620000000  0.4379920000000  0.2400690000000 1.0
C      1  0.3760580000000  0.4700370000000  0.2955070000000 1.0
C      1  0.2681840000000  0.4427270000000  0.3860630000000 1.0
C      1  0.2439250000000  0.4412290000000  0.5291290000000 1.0
C      1  0.3098390000000  0.4624950000000  0.6530210000000 1.0
C      1  0.4625730000000  0.6513490000000  0.3386800000000 1.0
C      1  0.3843240000000  0.6503540000000  0.3953440000000 1.0
C      1  0.4099060000000  0.6788780000000  0.4846600000000 1.0
C      1  0.3597420000000  0.6486050000000  0.5612340000000 1.0
C      1  0.4018920000000  0.6450970000000  0.6446060000000 1.0
C      1  0.4951160000000  0.6450930000000  0.6742920000000 1.0
C      1  0.5777120000000  0.6485950000000  0.6306410000000 1.0
C      1  0.5810640000000  0.6788700000000  0.5391600000000 1.0
C      1  0.6535770000000  0.6503410000000  0.4810810000000 1.0
C      1  0.6224990000000  0.6513420000000  0.3896050000000 1.0
C      1  0.5337520000000  0.6850230000000  0.3917330000000 1.0
C      1  0.6928340000000  0.5087090000000  0.3256490000000 1.0
C      1  0.5860840000000  0.4803870000000  0.2273500000000 1.0
C      1  0.4421550000000  0.5087200000000  0.2458230000000 1.0
C      1  0.3041240000000  0.5125650000000  0.3330910000000 1.0
C      1  0.2211520000000  0.4859440000000  0.4522430000000 1.0
C      1  0.2587020000000  0.5095330000000  0.5932310000000 1.0
C      1  0.3496380000000  0.5024540000000  0.7248660000000 1.0
C      1  0.4913300000000  0.5024480000000  0.7699890000000 1.0
C      1  0.6416330000000  0.5095160000000  0.7151660000000 1.0
C      1  0.7537900000000  0.4859190000000  0.6218450000000 1.0
C      1  0.7550010000000  0.5125440000000  0.4766580000000 1.0
C      1  0.6461060000000  0.5945270000000  0.3160070000000 1.0
C      1  0.5786460000000  0.5764230000000  0.2507230000000 1.0
C      1  0.4858620000000  0.5945350000000  0.2649790000000 1.0
C      1  0.3058150000000  0.5974670000000  0.3831800000000 1.0
C      1  0.2503670000000  0.5800310000000  0.4587420000000 1.0
C      1  0.2799390000000  0.5947460000000  0.5476610000000 1.0
C      1  0.3765090000000  0.5941490000000  0.7233090000000 1.0
C      1  0.4703160000000  0.5941450000000  0.7531810000000 1.0
C      1  0.6506640000000  0.5947290000000  0.6657070000000 1.0
C      1  0.7262050000000  0.5800080000000  0.6102580000000 1.0
C      1  0.7246630000000  0.5974480000000  0.5165490000000 1.0
C      1  0.4993230000000  0.4044500000000  0.4998160000000 1.0
C      1  0.4991190000000  0.2329230000000  0.5004310000000 1.0
C      1  0.5050510000000  0.6999430000000  0.4818690000000 1.0
C      1  0.4994330000000  0.3197140000000  0.4994600000000 1.0
C      1  0.4994320000000  0.4947580000000  0.4994890000000 1.0
END
