TITL C-2158988-7926-158 -0.00180013133403139 3375 -405.586520803786 0 0 60 (C3) n - 1
REM
REM in /scratch/bkarasulu/868
REM
REM
REM
REM
REM
REM ./C.cell (a2850807a9bf4ad07a5b6933b78d9264)
REM AIRSS Version 0.9.1 bugfix July 2018 build 013d7b7c2542+ Fri, 06 Jul 2018 19:26:36 +0100
REM compiler GCC version 9.2.1 20190827 (Red Hat 9.2.1-1)
REM options -cpp -mtune=generic -march=x86-64 -g -O0 -fpre-include=/usr/include/finclude/math-vector-fortran.h
REM seed -852166524 -1534291117 -1319649062 -1804837095 -1695001129 574933895 -591178802 -965611249 447136846 -1757025487 -885468685 748031767 -388314811 -1778318881 -1918966261 1329343850 1715267906 289754726 528898010 -1647909557 -613177882 1612340347 -422132547 -1472898593 -1504694220 -1517704905 -1797304311 -668656996 -1850772421 -1839723698 1411531145 -1082539652 666928554
REM
CELL 1.54180   15.00000   15.00000   15.00000   90.00000   90.00000   90.00000
LATT -1
SFAC C  
C      1  0.3962190000000  0.6276130000000  0.6350150000000 1.0
C      1  0.3962150000000  0.3192690000000  0.5430130000000 1.0
C      1  0.3962090000000  0.5531180000000  0.3219800000000 1.0
C      1  0.5693230000000  0.7179260000000  0.4417970000000 1.0
C      1  0.5693300000000  0.4414420000000  0.7178280000000 1.0
C      1  0.5693190000000  0.3406350000000  0.3403720000000 1.0
C      1  0.6633440000000  0.3037400000000  0.6467120000000 1.0
C      1  0.6633330000000  0.4710710000000  0.2566710000000 1.0
C      1  0.6633450000000  0.7251900000000  0.5966030000000 1.0
C      1  0.3738980000000  0.6333660000000  0.3712540000000 1.0
C      1  0.3739060000000  0.5448180000000  0.6798760000000 1.0
C      1  0.3738980000000  0.3218160000000  0.4488810000000 1.0
C      1  0.3609400000000  0.6091930000000  0.4689720000000 1.0
C      1  0.3609440000000  0.4722780000000  0.6100830000000 1.0
C      1  0.3609370000000  0.4185290000000  0.4209550000000 1.0
C      1  0.6019280000000  0.5179030000000  0.4452740000000 1.0
C      1  0.6019310000000  0.5384370000000  0.5428650000000 1.0
C      1  0.6019290000000  0.4436550000000  0.5118520000000 1.0
C      1  0.4240730000000  0.2782140000000  0.3880530000000 1.0
C      1  0.4240730000000  0.7078450000000  0.3639060000000 1.0
C      1  0.4240830000000  0.5139420000000  0.7480510000000 1.0
C      1  0.6050340000000  0.5254360000000  0.6969290000000 1.0
C      1  0.6050250000000  0.3167340000000  0.4235600000000 1.0
C      1  0.6050240000000  0.6578290000000  0.3795050000000 1.0
C      1  0.5090590000000  0.5233390000000  0.4127310000000 1.0
C      1  0.5090640000000  0.5639050000000  0.5638460000000 1.0
C      1  0.5090610000000  0.4127530000000  0.5234200000000 1.0
C      1  0.4614910000000  0.4475330000000  0.4481500000000 1.0
C      1  0.4614940000000  0.5711360000000  0.4804890000000 1.0
C      1  0.4614950000000  0.4813290000000  0.5713610000000 1.0
C      1  0.5911850000000  0.4186560000000  0.2849250000000 1.0
C      1  0.5911940000000  0.7269340000000  0.5370870000000 1.0
C      1  0.5911970000000  0.3544150000000  0.6779800000000 1.0
C      1  0.3709580000000  0.6680240000000  0.5492920000000 1.0
C      1  0.3709590000000  0.3733040000000  0.6208720000000 1.0
C      1  0.3709510000000  0.4586740000000  0.3298460000000 1.0
C      1  0.5685170000000  0.2735430000000  0.5032660000000 1.0
C      1  0.5685120000000  0.6103980000000  0.3022490000000 1.0
C      1  0.5685230000000  0.6160570000000  0.6944800000000 1.0
C      1  0.2866350000000  0.5497920000000  0.4801190000000 1.0
C      1  0.2866370000000  0.4923270000000  0.5530690000000 1.0
C      1  0.2866340000000  0.4578820000000  0.4668290000000 1.0
C      1  0.6598230000000  0.5571050000000  0.6208900000000 1.0
C      1  0.6598180000000  0.3667470000000  0.4890040000000 1.0
C      1  0.6598160000000  0.5761440000000  0.3900940000000 1.0
C      1  0.5079970000000  0.7224500000000  0.5837990000000 1.0
C      1  0.5079980000000  0.3162050000000  0.6507460000000 1.0
C      1  0.5079870000000  0.4613480000000  0.2654520000000 1.0
C      1  0.6462440000000  0.3048840000000  0.5597770000000 1.0
C      1  0.6462370000000  0.5457850000000  0.3011320000000 1.0
C      1  0.6462470000000  0.6493280000000  0.6390780000000 1.0
C      1  0.4720810000000  0.7338160000000  0.4365130000000 1.0
C      1  0.4720880000000  0.4380760000000  0.7342340000000 1.0
C      1  0.4720770000000  0.3281120000000  0.3292570000000 1.0
C      1  0.4368050000000  0.4061110000000  0.2887800000000 1.0
C      1  0.4368120000000  0.7298690000000  0.5243020000000 1.0
C      1  0.4368160000000  0.3640230000000  0.6869230000000 1.0
C      1  0.4944450000000  0.3130860000000  0.5537600000000 1.0
C      1  0.4944380000000  0.5468990000000  0.3112480000000 1.0
C      1  0.4944490000000  0.6400130000000  0.6349910000000 1.0
END
