TITL C-2159252-5904-293 -0.00312181342503771 3375 -446.935862417911 0 0 60 (C6h) n - 1
REM
REM in /scratch/bkarasulu/870
REM
REM
REM
REM
REM
REM ./C.cell (a2850807a9bf4ad07a5b6933b78d9264)
REM AIRSS Version 0.9.1 bugfix July 2018 build 013d7b7c2542+ Fri, 06 Jul 2018 19:26:36 +0100
REM compiler GCC version 9.2.1 20190827 (Red Hat 9.2.1-1)
REM options -cpp -mtune=generic -march=x86-64 -g -O0 -fpre-include=/usr/include/finclude/math-vector-fortran.h
REM seed 1696346023 -1226302603 1968705512 311120938 1224646737 1863607135 722512049 1063892900 1953996908 -860230705 1442466326 1567073525 -1022516271 734157715 -497198826 -598217419 851207647 381224956 -970680550 -184756652 405146039 -1798824774 447321053 -1628724336 -1722959398 1729708579 -430106513 1742676533 -1389490953 -299575949 1695985662 1649492685 -366273919
REM
CELL 1.54180   15.00000   15.00000   15.00000   90.00000   90.00000   90.00000
LATT -1
SFAC C  
C      1  0.3369470000000  0.3706210000000  0.4058620000000 1.0
C      1  0.5000000000000  0.3706210000000  0.3117220000000 1.0
C      1  0.6630540000000  0.3706210000000  0.4058620000000 1.0
C      1  0.6630530000000  0.3706210000000  0.5941380000000 1.0
C      1  0.5000000000000  0.3706210000000  0.6882780000000 1.0
C      1  0.3369460000000  0.3706210000000  0.5941380000000 1.0
C      1  0.6630530000000  0.6293790000000  0.4058620000000 1.0
C      1  0.5000000000000  0.6293790000000  0.3117220000000 1.0
C      1  0.3369460000000  0.6293790000000  0.4058620000000 1.0
C      1  0.3369470000000  0.6293790000000  0.5941380000000 1.0
C      1  0.5000000000000  0.6293790000000  0.6882780000000 1.0
C      1  0.6630540000000  0.6293790000000  0.5941380000000 1.0
C      1  0.2949500000000  0.5000000000000  0.3270030000000 1.0
C      1  0.5472970000000  0.5000000000000  0.2359200000000 1.0
C      1  0.7523480000000  0.5000000000000  0.4089220000000 1.0
C      1  0.7050500000000  0.5000000000000  0.6729970000000 1.0
C      1  0.4527030000000  0.5000000000000  0.7640800000000 1.0
C      1  0.2476520000000  0.5000000000000  0.5910780000000 1.0
C      1  0.7050500000000  0.5000000000000  0.3270030000000 1.0
C      1  0.4527030000000  0.5000000000000  0.2359200000000 1.0
C      1  0.2476520000000  0.5000000000000  0.4089220000000 1.0
C      1  0.2949500000000  0.5000000000000  0.6729970000000 1.0
C      1  0.5472970000000  0.5000000000000  0.7640800000000 1.0
C      1  0.7523480000000  0.5000000000000  0.5910780000000 1.0
C      1  0.2671680000000  0.5830490000000  0.4540010000000 1.0
C      1  0.4234210000000  0.5830480000000  0.2753630000000 1.0
C      1  0.6562510000000  0.5830480000000  0.3213630000000 1.0
C      1  0.7328320000000  0.5830490000000  0.5459990000000 1.0
C      1  0.5765790000000  0.5830480000000  0.7246370000000 1.0
C      1  0.3437490000000  0.5830480000000  0.6786370000000 1.0
C      1  0.7328320000000  0.4169510000000  0.4540010000000 1.0
C      1  0.5765790000000  0.4169520000000  0.2753630000000 1.0
C      1  0.3437490000000  0.4169520000000  0.3213630000000 1.0
C      1  0.2671680000000  0.4169510000000  0.5459990000000 1.0
C      1  0.4234210000000  0.4169520000000  0.7246370000000 1.0
C      1  0.6562510000000  0.4169520000000  0.6786370000000 1.0
C      1  0.7328320000000  0.5830490000000  0.4540010000000 1.0
C      1  0.6562510000000  0.5830480000000  0.6786370000000 1.0
C      1  0.4234210000000  0.5830490000000  0.7246370000000 1.0
C      1  0.2671680000000  0.5830490000000  0.5459990000000 1.0
C      1  0.3437490000000  0.5830480000000  0.3213630000000 1.0
C      1  0.5765790000000  0.5830490000000  0.2753630000000 1.0
C      1  0.2671680000000  0.4169510000000  0.4540010000000 1.0
C      1  0.3437490000000  0.4169520000000  0.6786370000000 1.0
C      1  0.5765790000000  0.4169510000000  0.7246370000000 1.0
C      1  0.7328320000000  0.4169510000000  0.5459990000000 1.0
C      1  0.6562510000000  0.4169520000000  0.3213630000000 1.0
C      1  0.4234210000000  0.4169510000000  0.2753630000000 1.0
C      1  0.4155330000000  0.3373900000000  0.4512330000000 1.0
C      1  0.5000000000000  0.3373900000000  0.4024660000000 1.0
C      1  0.5844670000000  0.3373900000000  0.4512330000000 1.0
C      1  0.5844670000000  0.3373900000000  0.5487670000000 1.0
C      1  0.5000000000000  0.3373900000000  0.5975340000000 1.0
C      1  0.4155330000000  0.3373900000000  0.5487670000000 1.0
C      1  0.5844670000000  0.6626100000000  0.4512330000000 1.0
C      1  0.5000000000000  0.6626100000000  0.4024660000000 1.0
C      1  0.4155330000000  0.6626100000000  0.4512330000000 1.0
C      1  0.4155330000000  0.6626100000000  0.5487670000000 1.0
C      1  0.5000000000000  0.6626100000000  0.5975340000000 1.0
C      1  0.5844670000000  0.6626100000000  0.5487670000000 1.0
END
