TITL C-2158988-7926-189 -0.00340359714518727 3375 -406.828836650119 0 0 60 (C1) n - 1
REM
REM in /scratch/bkarasulu/868
REM
REM
REM
REM
REM
REM ./C.cell (a2850807a9bf4ad07a5b6933b78d9264)
REM AIRSS Version 0.9.1 bugfix July 2018 build 013d7b7c2542+ Fri, 06 Jul 2018 19:26:36 +0100
REM compiler GCC version 9.2.1 20190827 (Red Hat 9.2.1-1)
REM options -cpp -mtune=generic -march=x86-64 -g -O0 -fpre-include=/usr/include/finclude/math-vector-fortran.h
REM seed -32631522 1008119186 1763317642 1965815469 829692953 1531643876 1196503831 1146402337 139902362 -1440648632 1002863004 1847998564 -1171823175 -23108556 -738824725 -1388842796 1870486967 2038388242 -1582012416 -326276456 -1215304781 272118070 -1205534582 214543068 1091605919 -642757642 332820036 1822553085 1595991216 -1592609399 -1352260791 1964498787 1240035072
REM
CELL 1.54180   15.00000   15.00000   15.00000   90.00000   90.00000   90.00000
LATT -1
SFAC C  
C      1  0.3714910000000  0.6208310000000  0.6406960000000 1.0
C      1  0.4550430000000  0.6659730000000  0.6580000000000 1.0
C      1  0.5512350000000  0.6663050000000  0.6535200000000 1.0
C      1  0.6270110000000  0.6155800000000  0.6442200000000 1.0
C      1  0.6688650000000  0.5249600000000  0.6451060000000 1.0
C      1  0.6559840000000  0.4334810000000  0.6454420000000 1.0
C      1  0.5890850000000  0.3586970000000  0.6409880000000 1.0
C      1  0.5001840000000  0.3353390000000  0.6382190000000 1.0
C      1  0.4063080000000  0.3655220000000  0.6581900000000 1.0
C      1  0.3478420000000  0.4373020000000  0.6524970000000 1.0
C      1  0.3347020000000  0.5346180000000  0.6446790000000 1.0
C      1  0.3734880000000  0.2873030000000  0.6059590000000 1.0
C      1  0.2662710000000  0.4243740000000  0.5943650000000 1.0
C      1  0.2546440000000  0.5181530000000  0.5881110000000 1.0
C      1  0.3271910000000  0.6776560000000  0.5731110000000 1.0
C      1  0.4525180000000  0.7508650000000  0.6054980000000 1.0
C      1  0.5469250000000  0.7542040000000  0.5986890000000 1.0
C      1  0.7027850000000  0.6512160000000  0.5951660000000 1.0
C      1  0.7462060000000  0.5581230000000  0.5984620000000 1.0
C      1  0.7212130000000  0.3801340000000  0.5982340000000 1.0
C      1  0.6526370000000  0.3031180000000  0.5938130000000 1.0
C      1  0.4646920000000  0.2598580000000  0.5851370000000 1.0
C      1  0.3178190000000  0.6725740000000  0.4202690000000 1.0
C      1  0.3970910000000  0.7242570000000  0.4422620000000 1.0
C      1  0.5981770000000  0.7280060000000  0.4423550000000 1.0
C      1  0.6795210000000  0.6780210000000  0.4302260000000 1.0
C      1  0.7478320000000  0.5153500000000  0.4358540000000 1.0
C      1  0.7353450000000  0.4220070000000  0.4350220000000 1.0
C      1  0.6240860000000  0.2808130000000  0.4277150000000 1.0
C      1  0.5334310000000  0.2557530000000  0.4285670000000 1.0
C      1  0.3879070000000  0.2838310000000  0.4524890000000 1.0
C      1  0.2692540000000  0.4149930000000  0.4335500000000 1.0
C      1  0.2522730000000  0.5088160000000  0.4273840000000 1.0
C      1  0.2680570000000  0.3706330000000  0.5169480000000 1.0
C      1  0.2388140000000  0.5605540000000  0.5053450000000 1.0
C      1  0.2753670000000  0.6463530000000  0.5006760000000 1.0
C      1  0.3895300000000  0.7412850000000  0.5381880000000 1.0
C      1  0.5812240000000  0.7704410000000  0.5181820000000 1.0
C      1  0.7327480000000  0.6580780000000  0.5035970000000 1.0
C      1  0.7720300000000  0.5690650000000  0.5067520000000 1.0
C      1  0.7423040000000  0.3624470000000  0.5056510000000 1.0
C      1  0.6784170000000  0.2883130000000  0.5025790000000 1.0
C      1  0.4658340000000  0.2418220000000  0.4900760000000 1.0
C      1  0.3280180000000  0.2997720000000  0.5238420000000 1.0
C      1  0.4541880000000  0.6656360000000  0.3821540000000 1.0
C      1  0.5471450000000  0.6670350000000  0.3787520000000 1.0
C      1  0.6331730000000  0.6139070000000  0.3685770000000 1.0
C      1  0.6722740000000  0.5294830000000  0.3699480000000 1.0
C      1  0.6597310000000  0.4306560000000  0.3677940000000 1.0
C      1  0.6008600000000  0.3593930000000  0.3643810000000 1.0
C      1  0.5064750000000  0.3306780000000  0.3664190000000 1.0
C      1  0.4132380000000  0.3512160000000  0.3827350000000 1.0
C      1  0.3499220000000  0.4219450000000  0.3748430000000 1.0
C      1  0.3328170000000  0.5212020000000  0.3674720000000 1.0
C      1  0.3688890000000  0.6085930000000  0.3629490000000 1.0
C      1  0.5242200000000  0.4937050000000  0.6233570000000 1.0
C      1  0.5020330000000  0.5018520000000  0.2769300000000 1.0
C      1  0.4994520000000  0.5050500000000  0.4508580000000 1.0
C      1  0.5018950000000  0.5028110000000  0.3607690000000 1.0
C      1  0.5099470000000  0.4987780000000  0.5346440000000 1.0
END
