TITL C-2158984-8299-783 -0.00192034916334522 3375 -399.013504139456 0 0 60 (C2h) n - 1
REM
REM in /scratch/bkarasulu/869
REM
REM
REM
REM
REM
REM ./C.cell (a2850807a9bf4ad07a5b6933b78d9264)
REM AIRSS Version 0.9.1 bugfix July 2018 build 013d7b7c2542+ Fri, 06 Jul 2018 19:26:36 +0100
REM compiler GCC version 9.2.1 20190827 (Red Hat 9.2.1-1)
REM options -cpp -mtune=generic -march=x86-64 -g -O0 -fpre-include=/usr/include/finclude/math-vector-fortran.h
REM seed -2099836980 2116088334 -678757294 1853220010 965492084 1621820222 260500972 -1763724184 -2052761103 379523852 -587915816 -1284102517 2019040070 -678242423 -1135284846 -137668431 -1100185708 1477199855 -227317399 -1521334057 94702493 -458942010 -538629811 1932847800 -769866542 -1402029134 320186259 135657278 1761373458 1998985962 340104876 439262220 600276028
REM
CELL 1.54180   15.00000   15.00000   15.00000   90.00000   90.00000   90.00000
LATT -1
SFAC C  
C      1  0.5657000000000  0.6359530000000  0.3597860000000 1.0
C      1  0.4343000000000  0.3640470000000  0.3597860000000 1.0
C      1  0.5657000000000  0.6359530000000  0.6402140000000 1.0
C      1  0.4343000000000  0.3640470000000  0.6402140000000 1.0
C      1  0.3082200000000  0.4983780000000  0.4025250000000 1.0
C      1  0.6917800000000  0.5016220000000  0.4025250000000 1.0
C      1  0.3082200000000  0.4983780000000  0.5974750000000 1.0
C      1  0.6917800000000  0.5016220000000  0.5974750000000 1.0
C      1  0.5458720000000  0.4919920000000  0.7181890000000 1.0
C      1  0.4541280000000  0.5080080000000  0.7181890000000 1.0
C      1  0.5458720000000  0.4919920000000  0.2818110000000 1.0
C      1  0.4541280000000  0.5080080000000  0.2818110000000 1.0
C      1  0.6934330000000  0.3480620000000  0.4536250000000 1.0
C      1  0.3065670000000  0.6519380000000  0.4536250000000 1.0
C      1  0.6934330000000  0.3480620000000  0.5463750000000 1.0
C      1  0.3065670000000  0.6519380000000  0.5463750000000 1.0
C      1  0.5130980000000  0.3214350000000  0.6762450000000 1.0
C      1  0.4869020000000  0.6785650000000  0.6762450000000 1.0
C      1  0.5130980000000  0.3214350000000  0.3237550000000 1.0
C      1  0.4869020000000  0.6785650000000  0.3237550000000 1.0
C      1  0.6022200000000  0.5032860000000  0.5489200000000 1.0
C      1  0.3977800000000  0.4967140000000  0.5489200000000 1.0
C      1  0.6022200000000  0.5032860000000  0.4510800000000 1.0
C      1  0.3977800000000  0.4967140000000  0.4510800000000 1.0
C      1  0.3079250000000  0.4452400000000  0.3307470000000 1.0
C      1  0.6920750000000  0.5547600000000  0.3307470000000 1.0
C      1  0.3079250000000  0.4452400000000  0.6692530000000 1.0
C      1  0.6920750000000  0.5547600000000  0.6692530000000 1.0
C      1  0.4395640000000  0.7344040000000  0.6222300000000 1.0
C      1  0.5604360000000  0.2655960000000  0.6222300000000 1.0
C      1  0.4395640000000  0.7344040000000  0.3777700000000 1.0
C      1  0.5604360000000  0.2655960000000  0.3777700000000 1.0
C      1  0.6656710000000  0.3892030000000  0.6903730000000 1.0
C      1  0.3343290000000  0.6107970000000  0.6903730000000 1.0
C      1  0.6656710000000  0.3892030000000  0.3096270000000 1.0
C      1  0.3343290000000  0.6107970000000  0.3096270000000 1.0
C      1  0.5563210000000  0.4186360000000  0.5783370000000 1.0
C      1  0.4436790000000  0.5813640000000  0.5783370000000 1.0
C      1  0.5563210000000  0.4186360000000  0.4216630000000 1.0
C      1  0.4436790000000  0.5813640000000  0.4216630000000 1.0
C      1  0.4585800000000  0.4126710000000  0.5548000000000 1.0
C      1  0.5414200000000  0.5873290000000  0.5548000000000 1.0
C      1  0.4585800000000  0.4126710000000  0.4452000000000 1.0
C      1  0.5414200000000  0.5873290000000  0.4452000000000 1.0
C      1  0.3958560000000  0.4343670000000  0.3074040000000 1.0
C      1  0.6041440000000  0.5656330000000  0.3074040000000 1.0
C      1  0.3958560000000  0.4343670000000  0.6925960000000 1.0
C      1  0.6041440000000  0.5656330000000  0.6925960000000 1.0
C      1  0.4259420000000  0.5942320000000  0.6812680000000 1.0
C      1  0.5740580000000  0.4057680000000  0.6812680000000 1.0
C      1  0.4259420000000  0.5942320000000  0.3187320000000 1.0
C      1  0.5740580000000  0.4057680000000  0.3187320000000 1.0
C      1  0.7131090000000  0.4087440000000  0.3853630000000 1.0
C      1  0.2868910000000  0.5912560000000  0.3853630000000 1.0
C      1  0.7131090000000  0.4087440000000  0.6146370000000 1.0
C      1  0.2868910000000  0.5912560000000  0.6146370000000 1.0
C      1  0.4052970000000  0.6785030000000  0.5506670000000 1.0
C      1  0.5947030000000  0.3214970000000  0.5506670000000 1.0
C      1  0.4052970000000  0.6785030000000  0.4493330000000 1.0
C      1  0.5947030000000  0.3214970000000  0.4493330000000 1.0
END
