TITL C-2159255-4746-782 -0.00180430896282198 3375 -407.803644253104 0 0 60 (C1) n - 1
REM
REM in /scratch/bkarasulu/871
REM
REM
REM
REM
REM
REM ./C.cell (a2850807a9bf4ad07a5b6933b78d9264)
REM AIRSS Version 0.9.1 bugfix July 2018 build 013d7b7c2542+ Fri, 06 Jul 2018 19:26:36 +0100
REM compiler GCC version 9.2.1 20190827 (Red Hat 9.2.1-1)
REM options -cpp -mtune=generic -march=x86-64 -g -O0 -fpre-include=/usr/include/finclude/math-vector-fortran.h
REM seed 450943544 602944101 -1459067685 475454940 728380834 -158153450 -1481244211 -960392448 -1995490451 1899263159 -530231892 -125603986 493404670 -1838978604 2052006155 1303794989 -608888983 683000028 1567515202 1873397094 -1198748551 1954335036 -667662627 -1342363949 1251945798 1284453242 992671343 -378083495 -217843645 63564671 -265432989 -360946065 1181839905
REM
CELL 1.54180   15.00000   15.00000   15.00000   90.00000   90.00000   90.00000
LATT -1
SFAC C  
C      1  0.6041670000000  0.4225060000000  0.7282490000000 1.0
C      1  0.4087680000000  0.6886080000000  0.4753060000000 1.0
C      1  0.5805570000000  0.7157960000000  0.4959370000000 1.0
C      1  0.5950050000000  0.4174810000000  0.3032170000000 1.0
C      1  0.5382020000000  0.2825670000000  0.4120090000000 1.0
C      1  0.4993020000000  0.3525960000000  0.6171790000000 1.0
C      1  0.5144880000000  0.4529730000000  0.6138880000000 1.0
C      1  0.4973160000000  0.7574340000000  0.6209600000000 1.0
C      1  0.6220510000000  0.3275550000000  0.4308200000000 1.0
C      1  0.4967070000000  0.6489310000000  0.7292000000000 1.0
C      1  0.3314590000000  0.5931990000000  0.4057950000000 1.0
C      1  0.6264250000000  0.3400350000000  0.5237500000000 1.0
C      1  0.3981650000000  0.2959660000000  0.4875220000000 1.0
C      1  0.5502950000000  0.4949800000000  0.4687440000000 1.0
C      1  0.5518020000000  0.7073300000000  0.6712040000000 1.0
C      1  0.4309100000000  0.5936520000000  0.7088770000000 1.0
C      1  0.5724090000000  0.6514430000000  0.3315400000000 1.0
C      1  0.4989580000000  0.6005500000000  0.5580910000000 1.0
C      1  0.6643620000000  0.4205660000000  0.5700760000000 1.0
C      1  0.5144440000000  0.4659620000000  0.7134830000000 1.0
C      1  0.3236860000000  0.6511880000000  0.4912360000000 1.0
C      1  0.6517920000000  0.6620970000000  0.5373340000000 1.0
C      1  0.4095790000000  0.3585720000000  0.6423460000000 1.0
C      1  0.4828340000000  0.6137420000000  0.3143940000000 1.0
C      1  0.4894600000000  0.2686030000000  0.4913040000000 1.0
C      1  0.6915200000000  0.5589890000000  0.3943250000000 1.0
C      1  0.6648580000000  0.4111830000000  0.6698020000000 1.0
C      1  0.5910610000000  0.4879510000000  0.5650690000000 1.0
C      1  0.5788250000000  0.5772570000000  0.6181550000000 1.0
C      1  0.5167110000000  0.5873170000000  0.4605420000000 1.0
C      1  0.6574200000000  0.3942050000000  0.3723700000000 1.0
C      1  0.4105460000000  0.4744960000000  0.5042210000000 1.0
C      1  0.3867120000000  0.3221230000000  0.3964500000000 1.0
C      1  0.6372440000000  0.5795960000000  0.3207020000000 1.0
C      1  0.7106380000000  0.4876450000000  0.5100000000000 1.0
C      1  0.3788530000000  0.5205150000000  0.6615160000000 1.0
C      1  0.4435640000000  0.4513190000000  0.2757780000000 1.0
C      1  0.3016520000000  0.5114250000000  0.5967910000000 1.0
C      1  0.2718800000000  0.5308650000000  0.4428570000000 1.0
C      1  0.4811430000000  0.4353180000000  0.4600820000000 1.0
C      1  0.7043890000000  0.4649340000000  0.4163170000000 1.0
C      1  0.3599010000000  0.4477170000000  0.3102370000000 1.0
C      1  0.2807940000000  0.5746220000000  0.5301650000000 1.0
C      1  0.4959630000000  0.5323200000000  0.2678850000000 1.0
C      1  0.5059510000000  0.3806150000000  0.2950920000000 1.0
C      1  0.3158730000000  0.4251090000000  0.5381060000000 1.0
C      1  0.3567530000000  0.3413700000000  0.5649910000000 1.0
C      1  0.4426320000000  0.5193520000000  0.5814320000000 1.0
C      1  0.3287820000000  0.3946530000000  0.3770880000000 1.0
C      1  0.5450620000000  0.3020570000000  0.5579000000000 1.0
C      1  0.2803460000000  0.4370730000000  0.4485330000000 1.0
C      1  0.4122860000000  0.4360460000000  0.7032850000000 1.0
C      1  0.4302180000000  0.6179770000000  0.4034270000000 1.0
C      1  0.5898380000000  0.5083520000000  0.2779830000000 1.0
C      1  0.5267390000000  0.5616440000000  0.7072280000000 1.0
C      1  0.6277260000000  0.6603110000000  0.6282810000000 1.0
C      1  0.4861290000000  0.7054500000000  0.5438750000000 1.0
C      1  0.4739050000000  0.3123330000000  0.3507190000000 1.0
C      1  0.5665170000000  0.6770530000000  0.4174660000000 1.0
C      1  0.6944260000000  0.5864770000000  0.4888660000000 1.0
END
