TITL C-2159252-5904-243 -0.00359918570832384 3375 -409.105824290469 0 0 60 (Cs) n - 1
REM
REM in /scratch/bkarasulu/870
REM
REM
REM
REM
REM
REM ./C.cell (a2850807a9bf4ad07a5b6933b78d9264)
REM AIRSS Version 0.9.1 bugfix July 2018 build 013d7b7c2542+ Fri, 06 Jul 2018 19:26:36 +0100
REM compiler GCC version 9.2.1 20190827 (Red Hat 9.2.1-1)
REM options -cpp -mtune=generic -march=x86-64 -g -O0 -fpre-include=/usr/include/finclude/math-vector-fortran.h
REM seed 1606974918 -1040238614 -260833798 -265919874 1512577777 2020352163 2010035196 2109042448 -1490065063 1747579704 -1054024491 -1708890987 -429197098 -862986268 -933285650 561122865 361532605 -662067272 873017273 -1051922086 -599765695 -1394950304 92061413 -1329526473 -577805121 -200079567 -1673888508 -456157640 84670756 -22755026 -1740142401 -1928737355 461511921
REM
CELL 1.54180   15.00000   15.00000   15.00000   90.00000   90.00000   90.00000
LATT -1
SFAC C  
C      1  0.6065680000000  0.5874400000000  0.6505760000000 1.0
C      1  0.6116920000000  0.4924880000000  0.6752370000000 1.0
C      1  0.6068340000000  0.4000650000000  0.6420850000000 1.0
C      1  0.6118080000000  0.3381550000000  0.5659170000000 1.0
C      1  0.6068410000000  0.3299030000000  0.4681100000000 1.0
C      1  0.6117020000000  0.3734720000000  0.3801170000000 1.0
C      1  0.6065820000000  0.4589680000000  0.3320050000000 1.0
C      1  0.6110330000000  0.5573200000000  0.3349370000000 1.0
C      1  0.6060460000000  0.6373150000000  0.3927570000000 1.0
C      1  0.6060450000000  0.6737470000000  0.4830940000000 1.0
C      1  0.6110220000000  0.6562440000000  0.5802330000000 1.0
C      1  0.3533180000000  0.5074710000000  0.3314950000000 1.0
C      1  0.3545900000000  0.6034390000000  0.3624500000000 1.0
C      1  0.3565560000000  0.6665740000000  0.4334600000000 1.0
C      1  0.3545820000000  0.6703620000000  0.5284020000000 1.0
C      1  0.3533090000000  0.6227160000000  0.6172740000000 1.0
C      1  0.3534780000000  0.5432830000000  0.6649390000000 1.0
C      1  0.3537040000000  0.4431720000000  0.6608990000000 1.0
C      1  0.3539690000000  0.3679100000000  0.6079040000000 1.0
C      1  0.3539700000000  0.3304510000000  0.5150200000000 1.0
C      1  0.3537100000000  0.3478960000000  0.4246400000000 1.0
C      1  0.3534870000000  0.4171970000000  0.3522780000000 1.0
C      1  0.4960040000000  0.6998470000000  0.6867940000000 1.0
C      1  0.4962480000000  0.5628820000000  0.7664400000000 1.0
C      1  0.4961460000000  0.4141330000000  0.7594240000000 1.0
C      1  0.4963710000000  0.2847090000000  0.6677850000000 1.0
C      1  0.4963760000000  0.2289860000000  0.5296170000000 1.0
C      1  0.4961590000000  0.2586320000000  0.3738360000000 1.0
C      1  0.4962660000000  0.3609010000000  0.2655880000000 1.0
C      1  0.4960240000000  0.5147950000000  0.2279260000000 1.0
C      1  0.4969600000000  0.6564350000000  0.2748300000000 1.0
C      1  0.4908040000000  0.7536650000000  0.3983460000000 1.0
C      1  0.4969480000000  0.7693280000000  0.5547530000000 1.0
C      1  0.5404100000000  0.6250370000000  0.7159770000000 1.0
C      1  0.5524490000000  0.4887470000000  0.7565350000000 1.0
C      1  0.5400280000000  0.3568770000000  0.7031250000000 1.0
C      1  0.5525650000000  0.2628110000000  0.5962980000000 1.0
C      1  0.5400400000000  0.2564480000000  0.4541040000000 1.0
C      1  0.5524630000000  0.3143790000000  0.3241580000000 1.0
C      1  0.5404310000000  0.4406730000000  0.2588120000000 1.0
C      1  0.5527640000000  0.5831780000000  0.2574750000000 1.0
C      1  0.5402430000000  0.6964930000000  0.3450050000000 1.0
C      1  0.5402420000000  0.7495000000000  0.4764270000000 1.0
C      1  0.5527480000000  0.7286040000000  0.6180780000000 1.0
C      1  0.4042660000000  0.4409630000000  0.7468240000000 1.0
C      1  0.4043510000000  0.2873530000000  0.6387420000000 1.0
C      1  0.4043530000000  0.2510370000000  0.5486950000000 1.0
C      1  0.4042800000000  0.2866990000000  0.3642940000000 1.0
C      1  0.4041730000000  0.3535010000000  0.2938260000000 1.0
C      1  0.4048790000000  0.5349100000000  0.2510720000000 1.0
C      1  0.4051200000000  0.6275120000000  0.2820110000000 1.0
C      1  0.3978400000000  0.7505840000000  0.3995880000000 1.0
C      1  0.4051070000000  0.7435080000000  0.5696370000000 1.0
C      1  0.4048630000000  0.6982750000000  0.6561620000000 1.0
C      1  0.4041540000000  0.5379610000000  0.7512340000000 1.0
C      1  0.5310450000000  0.4992890000000  0.5009340000000 1.0
C      1  0.3570010000000  0.5097200000000  0.4967070000000 1.0
C      1  0.7033760000000  0.5008720000000  0.5003010000000 1.0
C      1  0.4466230000000  0.5030600000000  0.4994050000000 1.0
C      1  0.6205370000000  0.5002990000000  0.5005300000000 1.0
END
