TITL C-2158984-8299-493 -0.00255711933889791 3375 -421.593494604682 0 0 60 (C1) n - 1
REM
REM in /scratch/bkarasulu/869
REM
REM
REM
REM
REM
REM ./C.cell (a2850807a9bf4ad07a5b6933b78d9264)
REM AIRSS Version 0.9.1 bugfix July 2018 build 013d7b7c2542+ Fri, 06 Jul 2018 19:26:36 +0100
REM compiler GCC version 9.2.1 20190827 (Red Hat 9.2.1-1)
REM options -cpp -mtune=generic -march=x86-64 -g -O0 -fpre-include=/usr/include/finclude/math-vector-fortran.h
REM seed 1761813022 -1684971998 299085989 1134327709 -795280515 -23328560 2133966392 1233659421 -90695422 -560740324 1854315652 1181780537 1341964198 -2079743961 649729800 -1342887769 -1072326936 -314130551 -1795460742 1277447195 1325291963 1469378153 1250835824 464189909 -1353833800 -1061602244 -488039526 -1701795866 -1305488239 276943406 -588110493 -1379600964 1730435497
REM
CELL 1.54180   15.00000   15.00000   15.00000   90.00000   90.00000   90.00000
LATT -1
SFAC C  
C      1  0.3156940000000  0.4587930000000  0.3384090000000 1.0
C      1  0.3341640000000  0.5440730000000  0.6563580000000 1.0
C      1  0.3125150000000  0.5513810000000  0.3398970000000 1.0
C      1  0.3313130000000  0.4504470000000  0.6537640000000 1.0
C      1  0.4225570000000  0.2901290000000  0.4946630000000 1.0
C      1  0.3551310000000  0.7501740000000  0.4620960000000 1.0
C      1  0.3659920000000  0.7515030000000  0.5464850000000 1.0
C      1  0.3581210000000  0.2475230000000  0.4372900000000 1.0
C      1  0.6738830000000  0.4492770000000  0.6543240000000 1.0
C      1  0.6497280000000  0.5513860000000  0.3626920000000 1.0
C      1  0.6778930000000  0.5467720000000  0.6464920000000 1.0
C      1  0.6581070000000  0.4533750000000  0.3761460000000 1.0
C      1  0.3974370000000  0.4307860000000  0.2955050000000 1.0
C      1  0.4182240000000  0.5714320000000  0.6964400000000 1.0
C      1  0.3920640000000  0.5832360000000  0.2947200000000 1.0
C      1  0.4100000000000  0.4166260000000  0.6973220000000 1.0
C      1  0.3905530000000  0.3351100000000  0.5729280000000 1.0
C      1  0.3599130000000  0.6766760000000  0.4080860000000 1.0
C      1  0.3773820000000  0.6722850000000  0.5932570000000 1.0
C      1  0.3588200000000  0.3315170000000  0.4022350000000 1.0
C      1  0.5749100000000  0.5574390000000  0.7439330000000 1.0
C      1  0.5722710000000  0.4298980000000  0.2519840000000 1.0
C      1  0.5482550000000  0.4713670000000  0.7397820000000 1.0
C      1  0.5344190000000  0.5143140000000  0.2574060000000 1.0
C      1  0.5744180000000  0.5816340000000  0.3122390000000 1.0
C      1  0.5946740000000  0.4077100000000  0.6868960000000 1.0
C      1  0.5892960000000  0.3964950000000  0.3349060000000 1.0
C      1  0.6048390000000  0.6028160000000  0.6739230000000 1.0
C      1  0.4506740000000  0.3475880000000  0.6451030000000 1.0
C      1  0.4293370000000  0.6547600000000  0.3431600000000 1.0
C      1  0.4532030000000  0.6480060000000  0.6476140000000 1.0
C      1  0.4322000000000  0.3566580000000  0.3426010000000 1.0
C      1  0.5456410000000  0.3442080000000  0.6316640000000 1.0
C      1  0.5252510000000  0.6544330000000  0.3560040000000 1.0
C      1  0.5488480000000  0.6637090000000  0.6205240000000 1.0
C      1  0.5202660000000  0.3386820000000  0.3772100000000 1.0
C      1  0.3130910000000  0.5970390000000  0.5825060000000 1.0
C      1  0.2992840000000  0.4084070000000  0.4151990000000 1.0
C      1  0.3188950000000  0.4027450000000  0.5730320000000 1.0
C      1  0.3002340000000  0.5999680000000  0.4192340000000 1.0
C      1  0.7290860000000  0.5816810000000  0.5752370000000 1.0
C      1  0.6997530000000  0.4169410000000  0.4501340000000 1.0
C      1  0.7149350000000  0.4035190000000  0.5855250000000 1.0
C      1  0.6606290000000  0.6210920000000  0.4268680000000 1.0
C      1  0.5161800000000  0.3036300000000  0.4681510000000 1.0
C      1  0.5925360000000  0.6823120000000  0.5344040000000 1.0
C      1  0.5785830000000  0.6771650000000  0.4343090000000 1.0
C      1  0.5777240000000  0.3203390000000  0.5409360000000 1.0
C      1  0.6632390000000  0.3561900000000  0.5215340000000 1.0
C      1  0.6807210000000  0.6398920000000  0.5192170000000 1.0
C      1  0.4561460000000  0.4889920000000  0.7322530000000 1.0
C      1  0.4401230000000  0.5100430000000  0.2618650000000 1.0
C      1  0.4749650000000  0.5102980000000  0.5523070000000 1.0
C      1  0.5164340000000  0.4926210000000  0.4696500000000 1.0
C      1  0.2867840000000  0.4531570000000  0.4981520000000 1.0
C      1  0.8019480000000  0.5360780000000  0.5354950000000 1.0
C      1  0.2844190000000  0.5535760000000  0.5016630000000 1.0
C      1  0.4334230000000  0.5278090000000  0.4727740000000 1.0
C      1  0.5645320000000  0.4873750000000  0.5486120000000 1.0
C      1  0.7518550000000  0.4646450000000  0.5165800000000 1.0
END
