TITL C-2158984-8299-62 -0.00274154810345295 3375 -395.659140437801 0 0 60 (C2v) n - 1
REM
REM in /scratch/bkarasulu/869
REM
REM
REM
REM
REM
REM ./C.cell (a2850807a9bf4ad07a5b6933b78d9264)
REM AIRSS Version 0.9.1 bugfix July 2018 build 013d7b7c2542+ Fri, 06 Jul 2018 19:26:36 +0100
REM compiler GCC version 9.2.1 20190827 (Red Hat 9.2.1-1)
REM options -cpp -mtune=generic -march=x86-64 -g -O0 -fpre-include=/usr/include/finclude/math-vector-fortran.h
REM seed 2142823090 281401923 1816012660 -32424845 886937738 -519531571 -167830616 -1385663072 -302543981 -84899416 -288643273 1376684143 -842937810 1658175251 -1125952139 244240756 -321420820 -1827408016 -862333630 678986222 -868632491 1251173307 -1194889836 -1091518524 -533113332 -1914503392 -1805146002 -246124622 407505580 1127298651 -841070884 -1375080029 -1457940040
REM
CELL 1.54180   15.00000   15.00000   15.00000   90.00000   90.00000   90.00000
LATT -1
SFAC C  
C      1  0.4196660000000  0.5345660000000  0.2756730000000 1.0
C      1  0.5803340000000  0.5345660000000  0.7243270000000 1.0
C      1  0.4196660000000  0.5345660000000  0.7243270000000 1.0
C      1  0.5803340000000  0.5345660000000  0.2756730000000 1.0
C      1  0.4433370000000  0.5873250000000  0.3541640000000 1.0
C      1  0.5566630000000  0.5873250000000  0.6458360000000 1.0
C      1  0.4433370000000  0.5873250000000  0.6458360000000 1.0
C      1  0.5566630000000  0.5873250000000  0.3541640000000 1.0
C      1  0.6058220000000  0.3423320000000  0.5552080000000 1.0
C      1  0.3941780000000  0.3423320000000  0.4447920000000 1.0
C      1  0.6058220000000  0.3423320000000  0.4447920000000 1.0
C      1  0.3941780000000  0.3423320000000  0.5552080000000 1.0
C      1  0.4528580000000  0.4410780000000  0.2776300000000 1.0
C      1  0.5471420000000  0.4410780000000  0.7223700000000 1.0
C      1  0.4528580000000  0.4410780000000  0.7223700000000 1.0
C      1  0.5471420000000  0.4410780000000  0.2776300000000 1.0
C      1  0.4052380000000  0.3671900000000  0.6898600000000 1.0
C      1  0.5947620000000  0.3671900000000  0.3101400000000 1.0
C      1  0.4052380000000  0.3671900000000  0.3101400000000 1.0
C      1  0.5947620000000  0.3671900000000  0.6898600000000 1.0
C      1  0.4570150000000  0.5713680000000  0.1954580000000 1.0
C      1  0.5429850000000  0.5713680000000  0.8045420000000 1.0
C      1  0.4570160000000  0.5713680000000  0.8045410000000 1.0
C      1  0.5429840000000  0.5713680000000  0.1954590000000 1.0
C      1  0.4508140000000  0.7093580000000  0.5479690000000 1.0
C      1  0.5491860000000  0.7093580000000  0.4520310000000 1.0
C      1  0.4508140000000  0.7093580000000  0.4520310000000 1.0
C      1  0.5491860000000  0.7093580000000  0.5479690000000 1.0
C      1  0.2908900000000  0.4675670000000  0.3869470000000 1.0
C      1  0.7091100000000  0.4675670000000  0.6130530000000 1.0
C      1  0.2908900000000  0.4675670000000  0.6130520000000 1.0
C      1  0.7091100000000  0.4675670000000  0.3869480000000 1.0
C      1  0.3918890000000  0.6553100000000  0.4021100000000 1.0
C      1  0.6081110000000  0.6553100000000  0.5978900000000 1.0
C      1  0.3918890000000  0.6553100000000  0.5978900000000 1.0
C      1  0.6081110000000  0.6553100000000  0.4021100000000 1.0
C      1  0.5502630000000  0.5344300000000  0.4476660000000 1.0
C      1  0.4497370000000  0.5344300000000  0.5523340000000 1.0
C      1  0.5502630000000  0.5344300000000  0.5523330000000 1.0
C      1  0.4497370000000  0.5344300000000  0.4476670000000 1.0
C      1  0.3151550000000  0.6270530000000  0.4522840000000 1.0
C      1  0.6848450000000  0.6270530000000  0.5477160000000 1.0
C      1  0.3151550000000  0.6270530000000  0.5477150000000 1.0
C      1  0.6848450000000  0.6270530000000  0.4522850000000 1.0
C      1  0.5467640000000  0.3069670000000  0.3704270000000 1.0
C      1  0.4532360000000  0.3069670000000  0.6295730000000 1.0
C      1  0.5467640000000  0.3069670000000  0.6295730000000 1.0
C      1  0.4532360000000  0.3069670000000  0.3704270000000 1.0
C      1  0.2824580000000  0.5328140000000  0.5508890000000 1.0
C      1  0.7175420000000  0.5328140000000  0.4491110000000 1.0
C      1  0.2824580000000  0.5328140000000  0.4491110000000 1.0
C      1  0.7175420000000  0.5328140000000  0.5508890000000 1.0
C      1  0.6660440000000  0.3886020000000  0.3755920000000 1.0
C      1  0.3339560000000  0.3886020000000  0.6244080000000 1.0
C      1  0.6660440000000  0.3886020000000  0.6244080000000 1.0
C      1  0.3339560000000  0.3886020000000  0.3755920000000 1.0
C      1  0.5487920000000  0.4340390000000  0.5496630000000 1.0
C      1  0.4512080000000  0.4340390000000  0.4503370000000 1.0
C      1  0.5487910000000  0.4340390000000  0.4503370000000 1.0
C      1  0.4512090000000  0.4340390000000  0.5496630000000 1.0
END
