TITL C-2159252-5904-450 -0.00247616006238364 3375 -406.766043667449 0 0 60 (C2v) n - 1
REM
REM in /scratch/bkarasulu/870
REM
REM
REM
REM
REM
REM ./C.cell (a2850807a9bf4ad07a5b6933b78d9264)
REM AIRSS Version 0.9.1 bugfix July 2018 build 013d7b7c2542+ Fri, 06 Jul 2018 19:26:36 +0100
REM compiler GCC version 9.2.1 20190827 (Red Hat 9.2.1-1)
REM options -cpp -mtune=generic -march=x86-64 -g -O0 -fpre-include=/usr/include/finclude/math-vector-fortran.h
REM seed 1637488811 -863417213 742810587 1141607788 -6725066 1592171829 666816807 1775166246 1727297956 1821737323 1312534097 -56139896 1315395100 -523755149 -404045818 1166753223 1771798868 1910802016 1032943320 -2046710678 -1850610117 1432787784 -1652471200 1133134802 -294065476 -934332047 232620200 53256698 -991760737 135449187 1843132849 1056966720 -812042902
REM
CELL 1.54180   15.00000   15.00000   15.00000   90.00000   90.00000   90.00000
LATT -1
SFAC C  
C      1  0.3204110000000  0.4083110000000  0.5976510000000 1.0
C      1  0.3204140000000  0.4934250000000  0.6337950000000 1.0
C      1  0.3136870000000  0.6189980000000  0.5505330000000 1.0
C      1  0.3204100000000  0.5916890000000  0.4023490000000 1.0
C      1  0.3204130000000  0.5065750000000  0.3662060000000 1.0
C      1  0.3136870000000  0.3810020000000  0.4494680000000 1.0
C      1  0.5400580000000  0.2980030000000  0.6492570000000 1.0
C      1  0.5400610000000  0.5328930000000  0.7490010000000 1.0
C      1  0.5308080000000  0.7266690000000  0.5962440000000 1.0
C      1  0.5400570000000  0.7019970000000  0.3507430000000 1.0
C      1  0.5400600000000  0.4671070000000  0.2509990000000 1.0
C      1  0.5308080000000  0.2733310000000  0.4037560000000 1.0
C      1  0.3336570000000  0.6546610000000  0.4723400000000 1.0
C      1  0.3448890000000  0.5789690000000  0.3140150000000 1.0
C      1  0.3336610000000  0.4124850000000  0.3695010000000 1.0
C      1  0.3336570000000  0.3453390000000  0.5276610000000 1.0
C      1  0.3448900000000  0.4210310000000  0.6859860000000 1.0
C      1  0.3336610000000  0.5875150000000  0.6304990000000 1.0
C      1  0.6520220000000  0.5619350000000  0.3541370000000 1.0
C      1  0.6502230000000  0.4042610000000  0.3735170000000 1.0
C      1  0.6502240000000  0.3425060000000  0.5189560000000 1.0
C      1  0.6520230000000  0.4380650000000  0.6458620000000 1.0
C      1  0.6502240000000  0.5957390000000  0.6264820000000 1.0
C      1  0.6502240000000  0.6574940000000  0.4810430000000 1.0
C      1  0.7208640000000  0.4415530000000  0.4231900000000 1.0
C      1  0.7208640000000  0.4041450000000  0.5112910000000 1.0
C      1  0.7214010000000  0.4626440000000  0.5879780000000 1.0
C      1  0.7208640000000  0.5584470000000  0.5768100000000 1.0
C      1  0.7208640000000  0.5958550000000  0.4887090000000 1.0
C      1  0.7214010000000  0.5373560000000  0.4120210000000 1.0
C      1  0.5190570000000  0.5848920000000  0.5360470000000 1.0
C      1  0.5193210000000  0.5741330000000  0.4437990000000 1.0
C      1  0.5193190000000  0.4889510000000  0.4076280000000 1.0
C      1  0.5190560000000  0.4151080000000  0.4639530000000 1.0
C      1  0.5193210000000  0.4258670000000  0.5562010000000 1.0
C      1  0.5193200000000  0.5110490000000  0.5923720000000 1.0
C      1  0.4045830000000  0.2770310000000  0.5339840000000 1.0
C      1  0.4217580000000  0.3983190000000  0.7394730000000 1.0
C      1  0.4045890000000  0.6304030000000  0.6840370000000 1.0
C      1  0.4045820000000  0.7229690000000  0.4660160000000 1.0
C      1  0.4217570000000  0.6016810000000  0.2605280000000 1.0
C      1  0.4045880000000  0.3695970000000  0.3159630000000 1.0
C      1  0.4521760000000  0.2739860000000  0.6183360000000 1.0
C      1  0.4630490000000  0.4821430000000  0.7681690000000 1.0
C      1  0.4464800000000  0.7059210000000  0.6377590000000 1.0
C      1  0.4521750000000  0.7260140000000  0.3816640000000 1.0
C      1  0.4630480000000  0.5178570000000  0.2318310000000 1.0
C      1  0.4464800000000  0.2940790000000  0.3622410000000 1.0
C      1  0.5961430000000  0.3431020000000  0.4333800000000 1.0
C      1  0.5992910000000  0.3628160000000  0.6027080000000 1.0
C      1  0.5992910000000  0.5213740000000  0.6700370000000 1.0
C      1  0.5961430000000  0.6568980000000  0.5666200000000 1.0
C      1  0.5992900000000  0.6371840000000  0.3972910000000 1.0
C      1  0.5992910000000  0.4786260000000  0.3299630000000 1.0
C      1  0.4464760000000  0.2578760000000  0.4475120000000 1.0
C      1  0.4630470000000  0.3194610000000  0.6990840000000 1.0
C      1  0.4521800000000  0.5718230000000  0.7448100000000 1.0
C      1  0.4464760000000  0.7421240000000  0.5524880000000 1.0
C      1  0.4630460000000  0.6805390000000  0.3009160000000 1.0
C      1  0.4521790000000  0.4281770000000  0.2551900000000 1.0
END
