TITL C-2158984-8299-590 -0.00200915223381125 3375 -404.010158939975 0 0 60 (C1) n - 1
REM
REM in /scratch/bkarasulu/869
REM
REM
REM
REM
REM
REM ./C.cell (a2850807a9bf4ad07a5b6933b78d9264)
REM AIRSS Version 0.9.1 bugfix July 2018 build 013d7b7c2542+ Fri, 06 Jul 2018 19:26:36 +0100
REM compiler GCC version 9.2.1 20190827 (Red Hat 9.2.1-1)
REM options -cpp -mtune=generic -march=x86-64 -g -O0 -fpre-include=/usr/include/finclude/math-vector-fortran.h
REM seed -625536580 -2017250807 2118841386 69334235 682605286 266699898 -1678346949 -1428711208 -722775485 -1075763678 1114698833 1156876027 570857795 -1099687032 -235277594 1677565854 36558766 -1848611251 -1747357472 -143669799 1999202129 430166033 -258199410 383085642 -1689393770 768303 -660889856 701620136 -2095207583 -1609093035 -1161099757 384737006 26026383
REM
CELL 1.54180   15.00000   15.00000   15.00000   90.00000   90.00000   90.00000
LATT -1
SFAC C  
C      1  0.4310360000000  0.6647470000000  0.6424030000000 1.0
C      1  0.5231870000000  0.6712860000000  0.6215930000000 1.0
C      1  0.6116870000000  0.6632660000000  0.4762020000000 1.0
C      1  0.5790440000000  0.6349190000000  0.3866250000000 1.0
C      1  0.4864680000000  0.6266940000000  0.3889530000000 1.0
C      1  0.4372040000000  0.6195400000000  0.4779290000000 1.0
C      1  0.3823630000000  0.6464680000000  0.5606390000000 1.0
C      1  0.6608390000000  0.4038520000000  0.3779760000000 1.0
C      1  0.5183210000000  0.3892730000000  0.3037860000000 1.0
C      1  0.3678040000000  0.3766120000000  0.3683850000000 1.0
C      1  0.2957740000000  0.3478390000000  0.5199190000000 1.0
C      1  0.3826260000000  0.3542270000000  0.6665750000000 1.0
C      1  0.5507380000000  0.4022440000000  0.6818780000000 1.0
C      1  0.6694050000000  0.4314620000000  0.5505070000000 1.0
C      1  0.5327680000000  0.4540630000000  0.2374000000000 1.0
C      1  0.3350830000000  0.4521650000000  0.3242930000000 1.0
C      1  0.2743170000000  0.4350350000000  0.5199810000000 1.0
C      1  0.3689430000000  0.4464630000000  0.6636060000000 1.0
C      1  0.5484840000000  0.4693160000000  0.7527190000000 1.0
C      1  0.6919630000000  0.4956550000000  0.6220320000000 1.0
C      1  0.7213490000000  0.4525790000000  0.3184830000000 1.0
C      1  0.4210270000000  0.5931090000000  0.7038650000000 1.0
C      1  0.5833960000000  0.6198760000000  0.6780140000000 1.0
C      1  0.6715680000000  0.5978040000000  0.5195850000000 1.0
C      1  0.6144320000000  0.5625680000000  0.3294220000000 1.0
C      1  0.4646690000000  0.5558350000000  0.3287410000000 1.0
C      1  0.3813840000000  0.5359790000000  0.4470690000000 1.0
C      1  0.3195550000000  0.5793570000000  0.5851450000000 1.0
C      1  0.4480710000000  0.4028030000000  0.5199060000000 1.0
C      1  0.4339830000000  0.4613710000000  0.5911810000000 1.0
C      1  0.5150060000000  0.4907300000000  0.6253340000000 1.0
C      1  0.6296210000000  0.5078810000000  0.4932370000000 1.0
C      1  0.6021610000000  0.4860000000000  0.4001490000000 1.0
C      1  0.5081730000000  0.4637140000000  0.3806580000000 1.0
C      1  0.4355550000000  0.4449520000000  0.4402050000000 1.0
C      1  0.5186240000000  0.5515770000000  0.7125510000000 1.0
C      1  0.6493880000000  0.5787750000000  0.6149840000000 1.0
C      1  0.7031130000000  0.5344070000000  0.2990660000000 1.0
C      1  0.5368590000000  0.5401960000000  0.2659310000000 1.0
C      1  0.3726000000000  0.5312530000000  0.3433570000000 1.0
C      1  0.3038580000000  0.5191730000000  0.5097450000000 1.0
C      1  0.3473200000000  0.5390990000000  0.6713290000000 1.0
C      1  0.5683080000000  0.2771340000000  0.4026800000000 1.0
C      1  0.4727410000000  0.2671160000000  0.3934470000000 1.0
C      1  0.4042580000000  0.2549980000000  0.4594940000000 1.0
C      1  0.4144340000000  0.2514760000000  0.5549820000000 1.0
C      1  0.4972730000000  0.2698640000000  0.6052340000000 1.0
C      1  0.5847510000000  0.2932080000000  0.5726580000000 1.0
C      1  0.6194060000000  0.2924650000000  0.4837480000000 1.0
C      1  0.4772170000000  0.3307160000000  0.6732770000000 1.0
C      1  0.6190020000000  0.3704800000000  0.6165890000000 1.0
C      1  0.6765980000000  0.3671530000000  0.4727810000000 1.0
C      1  0.5961870000000  0.3413420000000  0.3396620000000 1.0
C      1  0.4426890000000  0.3284160000000  0.3272230000000 1.0
C      1  0.3319360000000  0.3134290000000  0.4370820000000 1.0
C      1  0.3448980000000  0.3035200000000  0.5944250000000 1.0
C      1  0.5252630000000  0.6276240000000  0.5315400000000 1.0
C      1  0.5922970000000  0.8249120000000  0.5270460000000 1.0
C      1  0.5608950000000  0.5391440000000  0.5567850000000 1.0
C      1  0.6239080000000  0.7576060000000  0.4897990000000 1.0
END
