TITL C-2158988-7926-703 -0.00165498400451628 3375 -387.871050133154 0 0 60 (C4h) n - 1
REM
REM in /scratch/bkarasulu/868
REM
REM
REM
REM
REM
REM ./C.cell (a2850807a9bf4ad07a5b6933b78d9264)
REM AIRSS Version 0.9.1 bugfix July 2018 build 013d7b7c2542+ Fri, 06 Jul 2018 19:26:36 +0100
REM compiler GCC version 9.2.1 20190827 (Red Hat 9.2.1-1)
REM options -cpp -mtune=generic -march=x86-64 -g -O0 -fpre-include=/usr/include/finclude/math-vector-fortran.h
REM seed -1293271746 -916303656 388808809 -1342129248 -1574106393 807465456 720600881 140502311 -503322085 -2036301188 -905035274 -2083269180 -295769454 2136682656 -497250844 2083272039 -698387510 -1890965342 -891518348 -1156219956 652590612 272619693 870565336 159437224 -1605205331 -953317360 -1598363890 1825850703 95125924 854354177 -768611473 -1731126247 902897734
REM
CELL 1.54180   15.00000   15.00000   15.00000   90.00000   90.00000   90.00000
LATT -1
SFAC C  
C      1  0.4485740000000  0.5020380000000  0.3272760000000 1.0
C      1  0.6727240000000  0.5020380000000  0.4485730000000 1.0
C      1  0.5514260000000  0.5020380000000  0.6727240000000 1.0
C      1  0.3272760000000  0.5020380000000  0.5514270000000 1.0
C      1  0.5543750000000  0.5020380000000  0.3236830000000 1.0
C      1  0.3236830000000  0.5020380000000  0.4456250000000 1.0
C      1  0.4456250000000  0.5020380000000  0.6763170000000 1.0
C      1  0.6763170000000  0.5020380000000  0.5543750000000 1.0
C      1  0.7074970000000  0.5934160000000  0.5872320000000 1.0
C      1  0.4127680000000  0.5934160000000  0.7074970000000 1.0
C      1  0.2925030000000  0.5934160000000  0.4127680000000 1.0
C      1  0.5872320000000  0.5934160000000  0.2925030000000 1.0
C      1  0.2957380000000  0.4117140000000  0.5821100000000 1.0
C      1  0.5821090000000  0.4117140000000  0.7042620000000 1.0
C      1  0.7042620000000  0.4117140000000  0.4178900000000 1.0
C      1  0.4178910000000  0.4117140000000  0.2957380000000 1.0
C      1  0.6618640000000  0.3887230000000  0.6627450000000 1.0
C      1  0.3372550000000  0.3887230000000  0.6618650000000 1.0
C      1  0.3381360000000  0.3887230000000  0.3372550000000 1.0
C      1  0.6627450000000  0.3887230000000  0.3381350000000 1.0
C      1  0.3372550000000  0.6153520000000  0.6618640000000 1.0
C      1  0.6618640000000  0.6153520000000  0.6627450000000 1.0
C      1  0.6627450000000  0.6153520000000  0.3381360000000 1.0
C      1  0.3381360000000  0.6153520000000  0.3372550000000 1.0
C      1  0.5872320000000  0.4106600000000  0.2925030000000 1.0
C      1  0.7074970000000  0.4106600000000  0.5872310000000 1.0
C      1  0.4127680000000  0.4106600000000  0.7074970000000 1.0
C      1  0.2925030000000  0.4106600000000  0.4127690000000 1.0
C      1  0.4178910000000  0.5923620000000  0.2957380000000 1.0
C      1  0.2957380000000  0.5923620000000  0.5821090000000 1.0
C      1  0.5821090000000  0.5923620000000  0.7042620000000 1.0
C      1  0.7042620000000  0.5923620000000  0.4178910000000 1.0
C      1  0.5083900000000  0.3564840000000  0.6083030000000 1.0
C      1  0.3916970000000  0.3564840000000  0.5083900000000 1.0
C      1  0.4916100000000  0.3564840000000  0.3916970000000 1.0
C      1  0.6083030000000  0.3564840000000  0.4916100000000 1.0
C      1  0.5083890000000  0.6475920000000  0.6083040000000 1.0
C      1  0.6083030000000  0.6475920000000  0.4916110000000 1.0
C      1  0.4916110000000  0.6475920000000  0.3916960000000 1.0
C      1  0.3916970000000  0.6475920000000  0.5083890000000 1.0
C      1  0.4988330000000  0.3636980000000  0.6979830000000 1.0
C      1  0.3020180000000  0.3636980000000  0.4988340000000 1.0
C      1  0.5011670000000  0.3636980000000  0.3020170000000 1.0
C      1  0.6979820000000  0.3636980000000  0.5011660000000 1.0
C      1  0.4988330000000  0.6403770000000  0.6979830000000 1.0
C      1  0.6979830000000  0.6403770000000  0.5011670000000 1.0
C      1  0.5011670000000  0.6403770000000  0.3020170000000 1.0
C      1  0.3020170000000  0.6403770000000  0.4988330000000 1.0
C      1  0.5522680000000  0.4147170000000  0.5468900000000 1.0
C      1  0.4531090000000  0.4147170000000  0.5522680000000 1.0
C      1  0.4477320000000  0.4147170000000  0.4531100000000 1.0
C      1  0.5468910000000  0.4147170000000  0.4477320000000 1.0
C      1  0.4531090000000  0.5893590000000  0.5522680000000 1.0
C      1  0.5522680000000  0.5893590000000  0.5468910000000 1.0
C      1  0.5468910000000  0.5893590000000  0.4477320000000 1.0
C      1  0.4477320000000  0.5893590000000  0.4531090000000 1.0
C      1  0.4159210000000  0.5020380000000  0.4193170000000 1.0
C      1  0.4193170000000  0.5020380000000  0.5840800000000 1.0
C      1  0.5806830000000  0.5020380000000  0.4159200000000 1.0
C      1  0.5840790000000  0.5020380000000  0.5806830000000 1.0
END
