TITL C-2158988-7926-259 -0.00196908305472719 3375 -385.498536678391 0 0 60 (C4) n - 1
REM
REM in /scratch/bkarasulu/868
REM
REM
REM
REM
REM
REM ./C.cell (a2850807a9bf4ad07a5b6933b78d9264)
REM AIRSS Version 0.9.1 bugfix July 2018 build 013d7b7c2542+ Fri, 06 Jul 2018 19:26:36 +0100
REM compiler GCC version 9.2.1 20190827 (Red Hat 9.2.1-1)
REM options -cpp -mtune=generic -march=x86-64 -g -O0 -fpre-include=/usr/include/finclude/math-vector-fortran.h
REM seed 913895903 -353540455 1678641291 -1106180598 1008064136 -282205359 -18994760 1541180062 -757652481 1104917738 901022556 -990995535 1805075639 1171536856 -841193942 291569280 -1714775209 377987398 -1423334356 -1317382700 946715845 490134751 23957588 1532613209 1957164730 561899766 1716931589 2052743246 834420599 -619638404 -2085780908 -2083027991 1113015562
REM
CELL 1.54180   15.00000   15.00000   15.00000   90.00000   90.00000   90.00000
LATT -1
SFAC C  
C      1  0.6117380000000  0.4376310000000  0.3704350000000 1.0
C      1  0.6117380000000  0.3704340000000  0.5623700000000 1.0
C      1  0.6117380000000  0.5623690000000  0.6295650000000 1.0
C      1  0.6117380000000  0.6295660000000  0.4376310000000 1.0
C      1  0.3782570000000  0.4390400000000  0.6256980000000 1.0
C      1  0.3782570000000  0.3743020000000  0.4390390000000 1.0
C      1  0.3782570000000  0.5609600000000  0.3743020000000 1.0
C      1  0.3782570000000  0.6256980000000  0.5609600000000 1.0
C      1  0.5753950000000  0.4785510000000  0.6952280000000 1.0
C      1  0.5753960000000  0.6952280000000  0.5214350000000 1.0
C      1  0.5753950000000  0.5214500000000  0.3047740000000 1.0
C      1  0.5753960000000  0.3047720000000  0.4785620000000 1.0
C      1  0.4151980000000  0.4846020000000  0.3100580000000 1.0
C      1  0.4151960000000  0.6899410000000  0.4846010000000 1.0
C      1  0.4151980000000  0.5153980000000  0.6899430000000 1.0
C      1  0.4151960000000  0.3100580000000  0.5153990000000 1.0
C      1  0.7070550000000  0.6009550000000  0.4530070000000 1.0
C      1  0.7070540000000  0.4530080000000  0.3990440000000 1.0
C      1  0.7070540000000  0.3990450000000  0.5469940000000 1.0
C      1  0.7070540000000  0.5469920000000  0.6009570000000 1.0
C      1  0.2840620000000  0.5968500000000  0.5473550000000 1.0
C      1  0.2840620000000  0.4526500000000  0.5968520000000 1.0
C      1  0.2840620000000  0.4031490000000  0.4526450000000 1.0
C      1  0.2840620000000  0.5473500000000  0.4031480000000 1.0
C      1  0.4118490000000  0.3433460000000  0.6104080000000 1.0
C      1  0.4118520000000  0.6104080000000  0.6566550000000 1.0
C      1  0.4118490000000  0.6566540000000  0.3895920000000 1.0
C      1  0.4118520000000  0.3895930000000  0.3433450000000 1.0
C      1  0.5899680000000  0.3321620000000  0.3850090000000 1.0
C      1  0.5899660000000  0.6150040000000  0.3321670000000 1.0
C      1  0.5899670000000  0.6678390000000  0.6149890000000 1.0
C      1  0.5899660000000  0.3849970000000  0.6678340000000 1.0
C      1  0.5476880000000  0.6843640000000  0.2799580000000 1.0
C      1  0.5476890000000  0.2799540000000  0.3156490000000 1.0
C      1  0.5476870000000  0.3156370000000  0.7200430000000 1.0
C      1  0.5476880000000  0.7200480000000  0.6843480000000 1.0
C      1  0.4767640000000  0.6698520000000  0.6852120000000 1.0
C      1  0.4767610000000  0.3147820000000  0.6698480000000 1.0
C      1  0.4767640000000  0.3301490000000  0.3147870000000 1.0
C      1  0.4767610000000  0.6852180000000  0.3301520000000 1.0
C      1  0.7450030000000  0.3964640000000  0.4624820000000 1.0
C      1  0.7450010000000  0.4624790000000  0.6035440000000 1.0
C      1  0.7450030000000  0.6035360000000  0.5375190000000 1.0
C      1  0.7450020000000  0.5375210000000  0.3964570000000 1.0
C      1  0.2427170000000  0.3956060000000  0.5357530000000 1.0
C      1  0.2427230000000  0.4642410000000  0.3955880000000 1.0
C      1  0.2427170000000  0.6043940000000  0.4642470000000 1.0
C      1  0.2427230000000  0.5357590000000  0.6044120000000 1.0
C      1  0.5477820000000  0.5580180000000  0.4583500000000 1.0
C      1  0.5477820000000  0.4583500000000  0.4419810000000 1.0
C      1  0.5477820000000  0.4419810000000  0.5416500000000 1.0
C      1  0.5477820000000  0.5416500000000  0.5580190000000 1.0
C      1  0.4506780000000  0.5572790000000  0.5420710000000 1.0
C      1  0.4506780000000  0.4579290000000  0.5572790000000 1.0
C      1  0.4506780000000  0.4427210000000  0.4579290000000 1.0
C      1  0.4506780000000  0.5420710000000  0.4427220000000 1.0
C      1  0.4927230000000  0.7285430000000  0.5087840000000 1.0
C      1  0.4927220000000  0.2714570000000  0.4912140000000 1.0
C      1  0.4927230000000  0.5087960000000  0.2714590000000 1.0
C      1  0.4927230000000  0.4912050000000  0.7285420000000 1.0
END
