TITL C-2158988-7926-732 -0.00388039278197269 3375 -405.53882552239 0 0 60 (C1) n - 1
REM
REM in /scratch/bkarasulu/868
REM
REM
REM
REM
REM
REM ./C.cell (a2850807a9bf4ad07a5b6933b78d9264)
REM AIRSS Version 0.9.1 bugfix July 2018 build 013d7b7c2542+ Fri, 06 Jul 2018 19:26:36 +0100
REM compiler GCC version 9.2.1 20190827 (Red Hat 9.2.1-1)
REM options -cpp -mtune=generic -march=x86-64 -g -O0 -fpre-include=/usr/include/finclude/math-vector-fortran.h
REM seed 114914297 1207554444 -1072209743 235470789 -292826494 687190094 -1397825036 -1425343608 698686765 -504530598 1661354814 211800365 -809744264 221195364 2129357599 -1689414444 -2088934665 -203479330 -1566746533 -224398274 1817159710 -1259092559 952882028 93391712 -761457289 -605360317 -991023420 -1358085736 176614441 491541882 1785509116 -1293463911 1788864721
REM
CELL 1.54180   15.00000   15.00000   15.00000   90.00000   90.00000   90.00000
LATT -1
SFAC C  
C      1  0.5691050000000  0.7383100000000  0.6289800000000 1.0
C      1  0.4749350000000  0.7299540000000  0.6352320000000 1.0
C      1  0.3314280000000  0.6855900000000  0.6915040000000 1.0
C      1  0.2728120000000  0.5473480000000  0.6350880000000 1.0
C      1  0.2549800000000  0.4545120000000  0.6287640000000 1.0
C      1  0.3367510000000  0.2937920000000  0.6148390000000 1.0
C      1  0.4259880000000  0.2549810000000  0.6095960000000 1.0
C      1  0.6031970000000  0.3132070000000  0.6221270000000 1.0
C      1  0.6744040000000  0.3775470000000  0.6221280000000 1.0
C      1  0.7502150000000  0.5479230000000  0.6096820000000 1.0
C      1  0.7207490000000  0.6406610000000  0.6150740000000 1.0
C      1  0.4909000000000  0.6382060000000  0.1880850000000 1.0
C      1  0.4116030000000  0.6022180000000  0.1838230000000 1.0
C      1  0.3646890000000  0.5288070000000  0.1872530000000 1.0
C      1  0.3640720000000  0.4420960000000  0.1973320000000 1.0
C      1  0.4114160000000  0.3695000000000  0.2061080000000 1.0
C      1  0.4902520000000  0.3336050000000  0.2125730000000 1.0
C      1  0.5759420000000  0.3462700000000  0.2170270000000 1.0
C      1  0.6413730000000  0.4030750000000  0.2171290000000 1.0
C      1  0.6661540000000  0.4860410000000  0.2128370000000 1.0
C      1  0.6418780000000  0.5692130000000  0.2068490000000 1.0
C      1  0.5767670000000  0.6264260000000  0.1985340000000 1.0
C      1  0.7313860000000  0.4997710000000  0.5323540000000 1.0
C      1  0.6817120000000  0.6706620000000  0.5377410000000 1.0
C      1  0.6051930000000  0.7279820000000  0.5448170000000 1.0
C      1  0.4182890000000  0.7141370000000  0.5605170000000 1.0
C      1  0.3380930000000  0.6782810000000  0.5963800000000 1.0
C      1  0.2943310000000  0.6021490000000  0.5604290000000 1.0
C      1  0.2616550000000  0.4176040000000  0.5445890000000 1.0
C      1  0.3109170000000  0.3356790000000  0.5374860000000 1.0
C      1  0.4758640000000  0.2688800000000  0.5323330000000 1.0
C      1  0.5693770000000  0.2899800000000  0.5371780000000 1.0
C      1  0.7009270000000  0.4088900000000  0.5371760000000 1.0
C      1  0.4200310000000  0.5876710000000  0.4569290000000 1.0
C      1  0.3356990000000  0.5551240000000  0.4836930000000 1.0
C      1  0.3190410000000  0.4606290000000  0.4765150000000 1.0
C      1  0.3709660000000  0.3730210000000  0.4669730000000 1.0
C      1  0.4591010000000  0.3353420000000  0.4619100000000 1.0
C      1  0.5645830000000  0.3559570000000  0.4605020000000 1.0
C      1  0.6357990000000  0.4203130000000  0.4604500000000 1.0
C      1  0.6670280000000  0.5232120000000  0.4618190000000 1.0
C      1  0.6385130000000  0.6147010000000  0.4672750000000 1.0
C      1  0.5566280000000  0.6752550000000  0.4766940000000 1.0
C      1  0.4609270000000  0.6682590000000  0.4837860000000 1.0
C      1  0.6610560000000  0.6207710000000  0.6954600000000 1.0
C      1  0.5798440000000  0.6678270000000  0.7011170000000 1.0
C      1  0.4804640000000  0.6616350000000  0.7067060000000 1.0
C      1  0.3938670000000  0.6164530000000  0.7247680000000 1.0
C      1  0.3401670000000  0.5348920000000  0.7066100000000 1.0
C      1  0.3239420000000  0.4366550000000  0.7009520000000 1.0
C      1  0.3625220000000  0.3511030000000  0.6952840000000 1.0
C      1  0.4518810000000  0.3077210000000  0.6897770000000 1.0
C      1  0.5377840000000  0.3402830000000  0.6913940000000 1.0
C      1  0.6540640000000  0.4453080000000  0.6914260000000 1.0
C      1  0.6951440000000  0.5274720000000  0.6898540000000 1.0
C      1  0.4981230000000  0.5012310000000  0.3527650000000 1.0
C      1  0.5078170000000  0.4903850000000  0.6173570000000 1.0
C      1  0.4831320000000  0.5178150000000  0.4421800000000 1.0
C      1  0.5586550000000  0.4340530000000  0.7012470000000 1.0
C      1  0.5137480000000  0.4839190000000  0.5315540000000 1.0
END
