TITL C-2159255-4746-1096 -0.0013971813615835 3375 -399.519915014062 0 0 60 (C5) n - 1
REM
REM in /scratch/bkarasulu/871
REM
REM
REM
REM
REM
REM ./C.cell (a2850807a9bf4ad07a5b6933b78d9264)
REM AIRSS Version 0.9.1 bugfix July 2018 build 013d7b7c2542+ Fri, 06 Jul 2018 19:26:36 +0100
REM compiler GCC version 9.2.1 20190827 (Red Hat 9.2.1-1)
REM options -cpp -mtune=generic -march=x86-64 -g -O0 -fpre-include=/usr/include/finclude/math-vector-fortran.h
REM seed 1918636430 -1605789414 -548689469 86329052 860653171 2146744579 -1593115210 199015469 -1699518315 -815286710 -1764194863 -289787366 580804707 597017519 1285954855 174331944 -1677840219 862608972 -1025921588 1371678724 -1482562433 -898706292 1859679484 204692687 -1565067088 -909420179 1780967437 -701878252 -1770907219 -305282201 105688795 -342578696 2098330656
REM
CELL 1.54180   15.00000   15.00000   15.00000   90.00000   90.00000   90.00000
LATT -1
SFAC C  
C      1  0.5910820000000  0.4195380000000  0.4838850000000 1.0
C      1  0.5910820000000  0.4598090000000  0.5715450000000 1.0
C      1  0.5910820000000  0.5556230000000  0.5603320000000 1.0
C      1  0.5910820000000  0.5745680000000  0.4657430000000 1.0
C      1  0.5910820000000  0.4904620000000  0.4184960000000 1.0
C      1  0.4089180000000  0.4195380000000  0.4838850000000 1.0
C      1  0.4089180000000  0.4598090000000  0.5715450000000 1.0
C      1  0.4089180000000  0.5556230000000  0.5603320000000 1.0
C      1  0.4089180000000  0.5745680000000  0.4657430000000 1.0
C      1  0.4089180000000  0.4904620000000  0.4184960000000 1.0
C      1  0.3080000000000  0.6548320000000  0.5414640000000 1.0
C      1  0.3080000000000  0.5872810000000  0.3655590000000 1.0
C      1  0.3080000000000  0.3991110000000  0.3754470000000 1.0
C      1  0.3080000000000  0.3503660000000  0.5574630000000 1.0
C      1  0.3080000000000  0.5084100000000  0.6600680000000 1.0
C      1  0.6920000000000  0.6548320000000  0.5414640000000 1.0
C      1  0.6920000000000  0.5872810000000  0.3655590000000 1.0
C      1  0.6920000000000  0.3991110000000  0.3754470000000 1.0
C      1  0.6920000000000  0.3503660000000  0.5574630000000 1.0
C      1  0.6920000000000  0.5084100000000  0.6600680000000 1.0
C      1  0.5503830000000  0.3278220000000  0.4810390000000 1.0
C      1  0.5503830000000  0.4287610000000  0.6578920000000 1.0
C      1  0.5503830000000  0.6281490000000  0.6165440000000 1.0
C      1  0.5503830000000  0.6504400000000  0.4141370000000 1.0
C      1  0.5503830000000  0.4648280000000  0.3303890000000 1.0
C      1  0.4496170000000  0.3278220000000  0.4810390000000 1.0
C      1  0.4496170000000  0.4287610000000  0.6578920000000 1.0
C      1  0.4496170000000  0.6281490000000  0.6165440000000 1.0
C      1  0.4496170000000  0.6504400000000  0.4141370000000 1.0
C      1  0.4496170000000  0.4648280000000  0.3303890000000 1.0
C      1  0.6896530000000  0.4941010000000  0.3704060000000 1.0
C      1  0.6896520000000  0.3749270000000  0.4655640000000 1.0
C      1  0.6896530000000  0.4285990000000  0.6083110000000 1.0
C      1  0.6896520000000  0.5809450000000  0.6013760000000 1.0
C      1  0.6896520000000  0.6214280000000  0.4543430000000 1.0
C      1  0.3103470000000  0.4941010000000  0.3704060000000 1.0
C      1  0.3103480000000  0.3749270000000  0.4655640000000 1.0
C      1  0.3103470000000  0.4285990000000  0.6083110000000 1.0
C      1  0.3103480000000  0.5809450000000  0.6013760000000 1.0
C      1  0.3103480000000  0.6214280000000  0.4543430000000 1.0
C      1  0.5480710000000  0.7210190000000  0.4885480000000 1.0
C      1  0.5480710000000  0.5574070000000  0.2862590000000 1.0
C      1  0.5480710000000  0.3144610000000  0.3793540000000 1.0
C      1  0.5480710000000  0.3279230000000  0.6391760000000 1.0
C      1  0.5480710000000  0.5791890000000  0.7066630000000 1.0
C      1  0.4519290000000  0.7210190000000  0.4885480000000 1.0
C      1  0.4519290000000  0.5574070000000  0.2862590000000 1.0
C      1  0.4519290000000  0.3144610000000  0.3793540000000 1.0
C      1  0.4519290000000  0.3279230000000  0.6391760000000 1.0
C      1  0.4519290000000  0.5791890000000  0.7066630000000 1.0
C      1  0.6021610000000  0.5016430000000  0.7096660000000 1.0
C      1  0.6021600000000  0.6999120000000  0.5632270000000 1.0
C      1  0.6021600000000  0.6219080000000  0.3294110000000 1.0
C      1  0.6021610000000  0.3754330000000  0.3313430000000 1.0
C      1  0.6021610000000  0.3011040000000  0.5663520000000 1.0
C      1  0.3978390000000  0.5016430000000  0.7096660000000 1.0
C      1  0.3978400000000  0.6999120000000  0.5632270000000 1.0
C      1  0.3978400000000  0.6219080000000  0.3294110000000 1.0
C      1  0.3978390000000  0.3754330000000  0.3313430000000 1.0
C      1  0.3978390000000  0.3011040000000  0.5663520000000 1.0
END
