TITL C-2158988-7926-513 -0.00261191227144739 3375 -387.137435187229 0 0 60 (C4v) n - 1
REM
REM in /scratch/bkarasulu/868
REM
REM
REM
REM
REM
REM ./C.cell (a2850807a9bf4ad07a5b6933b78d9264)
REM AIRSS Version 0.9.1 bugfix July 2018 build 013d7b7c2542+ Fri, 06 Jul 2018 19:26:36 +0100
REM compiler GCC version 9.2.1 20190827 (Red Hat 9.2.1-1)
REM options -cpp -mtune=generic -march=x86-64 -g -O0 -fpre-include=/usr/include/finclude/math-vector-fortran.h
REM seed 1088753321 1439191584 137276547 1504323226 -1976922804 1607721791 1969521799 289197329 1689770075 -1118357550 -6525256 -1209860710 -228287336 650536843 887335698 -1526721818 -315593856 466265881 116688390 1629283104 -267591643 -1443312835 -1224401946 -120487880 -1976353573 -1252701056 1207904403 -1677455094 -1515840338 -1908153855 1190957032 1169283603 -2142272216
REM
CELL 1.54180   15.00000   15.00000   15.00000   90.00000   90.00000   90.00000
LATT -1
SFAC C  
C      1  0.5523970000000  0.3782950000000  0.5511500000000 1.0
C      1  0.5523970000000  0.5511500000000  0.6217050000000 1.0
C      1  0.5523970000000  0.6217050000000  0.4488500000000 1.0
C      1  0.5523970000000  0.4488500000000  0.3782950000000 1.0
C      1  0.5523970000000  0.6217050000000  0.5511500000000 1.0
C      1  0.5523970000000  0.4488500000000  0.6217050000000 1.0
C      1  0.5523970000000  0.3782950000000  0.4488500000000 1.0
C      1  0.5523970000000  0.5511500000000  0.3782950000000 1.0
C      1  0.2978510000000  0.4578100000000  0.3203220000000 1.0
C      1  0.2978510000000  0.3203220000000  0.5421900000000 1.0
C      1  0.2978510000000  0.5421900000000  0.6796780000000 1.0
C      1  0.2978510000000  0.6796780000000  0.4578100000000 1.0
C      1  0.2978510000000  0.5421900000000  0.3203220000000 1.0
C      1  0.2978510000000  0.6796780000000  0.5421900000000 1.0
C      1  0.2978510000000  0.4578100000000  0.6796780000000 1.0
C      1  0.2978510000000  0.3203220000000  0.4578100000000 1.0
C      1  0.4685250000000  0.6647520000000  0.5920620000000 1.0
C      1  0.4685250000000  0.5920620000000  0.3352480000000 1.0
C      1  0.4685250000000  0.3352480000000  0.4079380000000 1.0
C      1  0.4685250000000  0.4079380000000  0.6647520000000 1.0
C      1  0.4685250000000  0.3352480000000  0.5920620000000 1.0
C      1  0.4685250000000  0.4079380000000  0.3352480000000 1.0
C      1  0.4685250000000  0.6647520000000  0.4079380000000 1.0
C      1  0.4685250000000  0.5920620000000  0.6647520000000 1.0
C      1  0.7149450000000  0.4498410000000  0.6159550000000 1.0
C      1  0.7149450000000  0.6159550000000  0.5501590000000 1.0
C      1  0.7149450000000  0.5501590000000  0.3840450000000 1.0
C      1  0.7149450000000  0.3840450000000  0.4498410000000 1.0
C      1  0.7149450000000  0.5501590000000  0.6159550000000 1.0
C      1  0.7149450000000  0.3840450000000  0.5501590000000 1.0
C      1  0.7149450000000  0.4498410000000  0.3840450000000 1.0
C      1  0.7149450000000  0.6159550000000  0.4498410000000 1.0
C      1  0.6382510000000  0.3267410000000  0.4513710000000 1.0
C      1  0.6382510000000  0.4513710000000  0.6732590000000 1.0
C      1  0.6382510000000  0.6732590000000  0.5486290000000 1.0
C      1  0.6382510000000  0.5486290000000  0.3267410000000 1.0
C      1  0.6382510000000  0.6732590000000  0.4513710000000 1.0
C      1  0.6382510000000  0.5486290000000  0.6732590000000 1.0
C      1  0.6382510000000  0.3267410000000  0.5486290000000 1.0
C      1  0.6382510000000  0.4513710000000  0.3267410000000 1.0
C      1  0.3852750000000  0.3797750000000  0.5505410000000 1.0
C      1  0.3852750000000  0.5505410000000  0.6202250000000 1.0
C      1  0.3852750000000  0.6202250000000  0.4494590000000 1.0
C      1  0.3852750000000  0.4494590000000  0.3797750000000 1.0
C      1  0.3852750000000  0.6202250000000  0.5505410000000 1.0
C      1  0.3852750000000  0.4494590000000  0.6202250000000 1.0
C      1  0.3852750000000  0.3797750000000  0.4494590000000 1.0
C      1  0.3852750000000  0.5505410000000  0.3797750000000 1.0
C      1  0.4725290000000  0.4153220000000  0.2392730000000 1.0
C      1  0.4725290000000  0.2392730000000  0.5846780000000 1.0
C      1  0.4725290000000  0.5846780000000  0.7607270000000 1.0
C      1  0.4725290000000  0.7607270000000  0.4153220000000 1.0
C      1  0.4725290000000  0.5846780000000  0.2392730000000 1.0
C      1  0.4725290000000  0.7607270000000  0.5846780000000 1.0
C      1  0.4725290000000  0.4153220000000  0.7607270000000 1.0
C      1  0.4725290000000  0.2392730000000  0.4153220000000 1.0
C      1  0.4704380000000  0.5000000000000  0.2168610000000 1.0
C      1  0.4704380000000  0.2168610000000  0.5000000000000 1.0
C      1  0.4704380000000  0.5000000000000  0.7831390000000 1.0
C      1  0.4704380000000  0.7831390000000  0.5000000000000 1.0
END
