TITL C-2158984-8299-774 -0.00309715968909678 3375 -407.983728890852 0 0 60 (C2) n - 1
REM
REM in /scratch/bkarasulu/869
REM
REM
REM
REM
REM
REM ./C.cell (a2850807a9bf4ad07a5b6933b78d9264)
REM AIRSS Version 0.9.1 bugfix July 2018 build 013d7b7c2542+ Fri, 06 Jul 2018 19:26:36 +0100
REM compiler GCC version 9.2.1 20190827 (Red Hat 9.2.1-1)
REM options -cpp -mtune=generic -march=x86-64 -g -O0 -fpre-include=/usr/include/finclude/math-vector-fortran.h
REM seed 837234715 534264191 -77144221 2046761934 1638029296 -1531352735 1727952914 37479175 -1033124163 -710106630 2045662562 -173646946 -1511632067 1064644338 2085643742 390016859 -2031073002 630437213 -1463588348 -2049367275 1037699026 -1199749688 188616084 -827235898 -709850015 -850204501 833558135 -1309659975 -1781854321 1738720743 -129829430 806006446 391407789
REM
CELL 1.54180   15.00000   15.00000   15.00000   90.00000   90.00000   90.00000
LATT -1
SFAC C  
C      1  0.3560550000000  0.5033050000000  0.6154630000000 1.0
C      1  0.3560550000000  0.4966950000000  0.3845370000000 1.0
C      1  0.5088650000000  0.3639890000000  0.6296330000000 1.0
C      1  0.5088650000000  0.6360110000000  0.3703670000000 1.0
C      1  0.6122440000000  0.2577610000000  0.4828490000000 1.0
C      1  0.6122440000000  0.7422390000000  0.5171510000000 1.0
C      1  0.6630630000000  0.4121610000000  0.5349490000000 1.0
C      1  0.6630630000000  0.5878390000000  0.4650510000000 1.0
C      1  0.4226830000000  0.3388590000000  0.2948260000000 1.0
C      1  0.4226830000000  0.6611410000000  0.7051740000000 1.0
C      1  0.4792860000000  0.4254100000000  0.5591210000000 1.0
C      1  0.4792860000000  0.5745900000000  0.4408790000000 1.0
C      1  0.3623790000000  0.4789990000000  0.7068730000000 1.0
C      1  0.3623790000000  0.5210010000000  0.2931270000000 1.0
C      1  0.4860750000000  0.7523210000000  0.5975980000000 1.0
C      1  0.4860750000000  0.2476790000000  0.4024020000000 1.0
C      1  0.4798020000000  0.4003340000000  0.2608430000000 1.0
C      1  0.4798020000000  0.5996660000000  0.7391570000000 1.0
C      1  0.4253940000000  0.5266410000000  0.7657150000000 1.0
C      1  0.4253940000000  0.4733590000000  0.2342850000000 1.0
C      1  0.7019340000000  0.3688810000000  0.3754480000000 1.0
C      1  0.7019340000000  0.6311190000000  0.6245520000000 1.0
C      1  0.2937400000000  0.4712060000000  0.4590410000000 1.0
C      1  0.2937400000000  0.5287940000000  0.5409590000000 1.0
C      1  0.5701950000000  0.5827320000000  0.7043080000000 1.0
C      1  0.5701950000000  0.4172680000000  0.2956920000000 1.0
C      1  0.5299530000000  0.5776690000000  0.2978050000000 1.0
C      1  0.5299530000000  0.4223310000000  0.7021950000000 1.0
C      1  0.4479590000000  0.4446460000000  0.7406590000000 1.0
C      1  0.4479590000000  0.5553540000000  0.2593410000000 1.0
C      1  0.3438280000000  0.6963290000000  0.5521740000000 1.0
C      1  0.3438280000000  0.3036710000000  0.4478260000000 1.0
C      1  0.5405090000000  0.7759420000000  0.4567480000000 1.0
C      1  0.5405090000000  0.2240580000000  0.5432520000000 1.0
C      1  0.5769120000000  0.7270700000000  0.6042640000000 1.0
C      1  0.5769120000000  0.2729300000000  0.3957360000000 1.0
C      1  0.6419830000000  0.6788210000000  0.4510100000000 1.0
C      1  0.6419830000000  0.3211790000000  0.5489900000000 1.0
C      1  0.6161780000000  0.3472920000000  0.3451340000000 1.0
C      1  0.6161780000000  0.6527080000000  0.6548660000000 1.0
C      1  0.4107600000000  0.7086370000000  0.6325200000000 1.0
C      1  0.4107600000000  0.2913630000000  0.3674800000000 1.0
C      1  0.4632690000000  0.7819550000000  0.5082930000000 1.0
C      1  0.4632690000000  0.2180450000000  0.4917070000000 1.0
C      1  0.3752730000000  0.2413280000000  0.5108320000000 1.0
C      1  0.3752730000000  0.7586720000000  0.4891680000000 1.0
C      1  0.6764080000000  0.5684310000000  0.5616530000000 1.0
C      1  0.6764080000000  0.4315690000000  0.4383470000000 1.0
C      1  0.4645580000000  0.5874650000000  0.5295340000000 1.0
C      1  0.4645580000000  0.4125350000000  0.4704660000000 1.0
C      1  0.6493020000000  0.5169180000000  0.4019590000000 1.0
C      1  0.6493020000000  0.4830820000000  0.5980410000000 1.0
C      1  0.5642800000000  0.2913740000000  0.6054350000000 1.0
C      1  0.5642800000000  0.7086260000000  0.3945650000000 1.0
C      1  0.2979580000000  0.6190890000000  0.5370160000000 1.0
C      1  0.2979580000000  0.3809110000000  0.4629840000000 1.0
C      1  0.5931700000000  0.4927250000000  0.6783950000000 1.0
C      1  0.5931700000000  0.5072750000000  0.3216050000000 1.0
C      1  0.4459840000000  0.4852480000000  0.4150930000000 1.0
C      1  0.4459840000000  0.5147520000000  0.5849070000000 1.0
END
