TITL C-2158988-7926-27 -0.00160049431173757 3375 -409.021685936667 0 0 60 (C1) n - 1
REM
REM in /scratch/bkarasulu/868
REM
REM
REM
REM
REM
REM ./C.cell (a2850807a9bf4ad07a5b6933b78d9264)
REM AIRSS Version 0.9.1 bugfix July 2018 build 013d7b7c2542+ Fri, 06 Jul 2018 19:26:36 +0100
REM compiler GCC version 9.2.1 20190827 (Red Hat 9.2.1-1)
REM options -cpp -mtune=generic -march=x86-64 -g -O0 -fpre-include=/usr/include/finclude/math-vector-fortran.h
REM seed 1350857798 2098790913 268992586 -869380462 1352666589 1499665403 -1171288160 -981460368 -1154483657 -995411082 1367805408 -39112858 -1187399925 -1360259536 321204605 -1098932836 -861454230 -2033423386 79979557 -247317601 -1952131263 -66892025 514410889 1620480808 331080887 -1817730634 -152556018 1797411986 598229229 1247065124 -1677519526 -561959021 -1093834821
REM
CELL 1.54180   15.00000   15.00000   15.00000   90.00000   90.00000   90.00000
LATT -1
SFAC C  
C      1  0.4494140000000  0.5684840000000  0.4898700000000 1.0
C      1  0.4510200000000  0.4315700000000  0.5098090000000 1.0
C      1  0.5503210000000  0.4316000000000  0.4901030000000 1.0
C      1  0.5505370000000  0.5710200000000  0.5000170000000 1.0
C      1  0.4534380000000  0.5090230000000  0.5691800000000 1.0
C      1  0.4479980000000  0.4908070000000  0.4305280000000 1.0
C      1  0.5473980000000  0.5066340000000  0.4273860000000 1.0
C      1  0.5544480000000  0.4957280000000  0.5658400000000 1.0
C      1  0.5742040000000  0.3387230000000  0.4500930000000 1.0
C      1  0.5697950000000  0.6976310000000  0.5555530000000 1.0
C      1  0.4206140000000  0.6601280000000  0.4504140000000 1.0
C      1  0.4244100000000  0.3395720000000  0.5474840000000 1.0
C      1  0.5761470000000  0.4377940000000  0.3099590000000 1.0
C      1  0.5829340000000  0.5616150000000  0.6777530000000 1.0
C      1  0.4279050000000  0.4392090000000  0.6891680000000 1.0
C      1  0.4248660000000  0.5622380000000  0.3099050000000 1.0
C      1  0.6666000000000  0.4186680000000  0.6495600000000 1.0
C      1  0.6676520000000  0.5696190000000  0.3644060000000 1.0
C      1  0.3352570000000  0.5690570000000  0.6469510000000 1.0
C      1  0.3320670000000  0.4306160000000  0.3524930000000 1.0
C      1  0.6667080000000  0.6387600000000  0.4311610000000 1.0
C      1  0.6646380000000  0.3486470000000  0.5830950000000 1.0
C      1  0.3322910000000  0.6406270000000  0.5834510000000 1.0
C      1  0.3334600000000  0.3588280000000  0.4159870000000 1.0
C      1  0.2748300000000  0.4849550000000  0.4084610000000 1.0
C      1  0.2774480000000  0.5134110000000  0.5926390000000 1.0
C      1  0.7227410000000  0.5139160000000  0.4197410000000 1.0
C      1  0.7290580000000  0.4700240000000  0.5981840000000 1.0
C      1  0.2764460000000  0.4120260000000  0.4711150000000 1.0
C      1  0.2754870000000  0.5860950000000  0.5297090000000 1.0
C      1  0.7254330000000  0.4012720000000  0.5306950000000 1.0
C      1  0.7205480000000  0.5824300000000  0.4879640000000 1.0
C      1  0.5054900000000  0.6676770000000  0.4003980000000 1.0
C      1  0.5079620000000  0.3320680000000  0.5981850000000 1.0
C      1  0.4905400000000  0.3331180000000  0.3987920000000 1.0
C      1  0.4884400000000  0.6721330000000  0.6004830000000 1.0
C      1  0.5105290000000  0.4005380000000  0.6665470000000 1.0
C      1  0.5083970000000  0.6008920000000  0.3332110000000 1.0
C      1  0.4909750000000  0.3987240000000  0.3284290000000 1.0
C      1  0.4969230000000  0.6025570000000  0.6675840000000 1.0
C      1  0.6568040000000  0.6066170000000  0.6371470000000 1.0
C      1  0.6479610000000  0.3829190000000  0.3050910000000 1.0
C      1  0.3561720000000  0.3842280000000  0.6937840000000 1.0
C      1  0.3526040000000  0.6161970000000  0.3056060000000 1.0
C      1  0.6428640000000  0.6896500000000  0.6078990000000 1.0
C      1  0.6528220000000  0.3672810000000  0.3937050000000 1.0
C      1  0.3442410000000  0.6311820000000  0.3939530000000 1.0
C      1  0.3473910000000  0.3675710000000  0.6058010000000 1.0
C      1  0.4093170000000  0.6788990000000  0.5475230000000 1.0
C      1  0.4115240000000  0.3214830000000  0.4502210000000 1.0
C      1  0.5857870000000  0.3171910000000  0.5461500000000 1.0
C      1  0.5802650000000  0.6667750000000  0.4613120000000 1.0
C      1  0.4238660000000  0.5359700000000  0.6621660000000 1.0
C      1  0.4190040000000  0.4654400000000  0.3357220000000 1.0
C      1  0.5811330000000  0.5359350000000  0.3386660000000 1.0
C      1  0.5835700000000  0.4640900000000  0.6620530000000 1.0
C      1  0.2818620000000  0.5732890000000  0.4381110000000 1.0
C      1  0.2846470000000  0.4250850000000  0.5625030000000 1.0
C      1  0.7154510000000  0.4225510000000  0.4412020000000 1.0
C      1  0.7173460000000  0.5592120000000  0.5790840000000 1.0
END
