TITL C-2158984-8299-453 -0.00171168992352109 3375 -413.837923705033 0 0 60 (C1) n - 1
REM
REM in /scratch/bkarasulu/869
REM
REM
REM
REM
REM
REM ./C.cell (a2850807a9bf4ad07a5b6933b78d9264)
REM AIRSS Version 0.9.1 bugfix July 2018 build 013d7b7c2542+ Fri, 06 Jul 2018 19:26:36 +0100
REM compiler GCC version 9.2.1 20190827 (Red Hat 9.2.1-1)
REM options -cpp -mtune=generic -march=x86-64 -g -O0 -fpre-include=/usr/include/finclude/math-vector-fortran.h
REM seed 1002842043 410606377 284443005 -928047380 72592698 1626782428 -903582000 1053445700 837017170 2017993658 -726869842 -1637027657 2051853608 1704710247 169231009 507535203 -519986172 1213837698 -2006865153 158666912 -1141879822 1581587800 -1559509196 -1800882053 1937864438 271643933 1101679066 769405673 1588941674 -971803348 -851986916 -705672109 678132457
REM
CELL 1.54180   15.00000   15.00000   15.00000   90.00000   90.00000   90.00000
LATT -1
SFAC C  
C      1  0.4665310000000  0.5133920000000  0.2737690000000 1.0
C      1  0.4268800000000  0.7061070000000  0.6187150000000 1.0
C      1  0.7139220000000  0.5497650000000  0.4486360000000 1.0
C      1  0.6758580000000  0.3283440000000  0.3920520000000 1.0
C      1  0.4677390000000  0.3775150000000  0.6708290000000 1.0
C      1  0.5612180000000  0.5094950000000  0.2743570000000 1.0
C      1  0.7247970000000  0.5206590000000  0.5429380000000 1.0
C      1  0.3206920000000  0.3794040000000  0.4444050000000 1.0
C      1  0.5099510000000  0.5563620000000  0.5806250000000 1.0
C      1  0.4214520000000  0.5593280000000  0.5556370000000 1.0
C      1  0.4684270000000  0.6683690000000  0.3071350000000 1.0
C      1  0.3162580000000  0.4994610000000  0.4021190000000 1.0
C      1  0.6678350000000  0.6350100000000  0.4499470000000 1.0
C      1  0.5192410000000  0.6796490000000  0.3833450000000 1.0
C      1  0.6676900000000  0.4137770000000  0.3391590000000 1.0
C      1  0.6965200000000  0.4393380000000  0.5915990000000 1.0
C      1  0.6790690000000  0.3513410000000  0.5546440000000 1.0
C      1  0.4275430000000  0.5893460000000  0.3126290000000 1.0
C      1  0.3335350000000  0.6858590000000  0.6063330000000 1.0
C      1  0.5658860000000  0.3884820000000  0.6618530000000 1.0
C      1  0.7138330000000  0.3209640000000  0.4761280000000 1.0
C      1  0.5428380000000  0.4912970000000  0.5235960000000 1.0
C      1  0.6245290000000  0.5645300000000  0.3193530000000 1.0
C      1  0.6534910000000  0.6609490000000  0.5413740000000 1.0
C      1  0.3896620000000  0.5584240000000  0.3993460000000 1.0
C      1  0.3946320000000  0.6194820000000  0.4739890000000 1.0
C      1  0.4773610000000  0.3241320000000  0.4743280000000 1.0
C      1  0.5945960000000  0.3257910000000  0.5958300000000 1.0
C      1  0.5458640000000  0.5219450000000  0.4373280000000 1.0
C      1  0.4460990000000  0.2983500000000  0.6210020000000 1.0
C      1  0.5177700000000  0.2858180000000  0.5576000000000 1.0
C      1  0.4625330000000  0.4835860000000  0.4112790000000 1.0
C      1  0.6314010000000  0.4607340000000  0.6599760000000 1.0
C      1  0.4665040000000  0.4291480000000  0.4974490000000 1.0
C      1  0.4911080000000  0.7182650000000  0.5495580000000 1.0
C      1  0.4363200000000  0.4309960000000  0.3217130000000 1.0
C      1  0.6077000000000  0.2636410000000  0.3771210000000 1.0
C      1  0.3651820000000  0.2903560000000  0.5761830000000 1.0
C      1  0.6291600000000  0.5584330000000  0.6658440000000 1.0
C      1  0.5243240000000  0.3043870000000  0.3863180000000 1.0
C      1  0.2687580000000  0.5461720000000  0.5561800000000 1.0
C      1  0.3736130000000  0.3133540000000  0.4885300000000 1.0
C      1  0.3865460000000  0.5990400000000  0.7200910000000 1.0
C      1  0.5102030000000  0.3670590000000  0.3148030000000 1.0
C      1  0.3551710000000  0.5075700000000  0.7018390000000 1.0
C      1  0.3040750000000  0.4691230000000  0.4976340000000 1.0
C      1  0.3054750000000  0.6347170000000  0.6800670000000 1.0
C      1  0.3120750000000  0.6329940000000  0.5299720000000 1.0
C      1  0.3437100000000  0.4166230000000  0.3607940000000 1.0
C      1  0.5485470000000  0.6145900000000  0.6516880000000 1.0
C      1  0.5751240000000  0.6892890000000  0.5857020000000 1.0
C      1  0.6893790000000  0.5901770000000  0.5974280000000 1.0
C      1  0.2779780000000  0.5462800000000  0.6502990000000 1.0
C      1  0.4615020000000  0.6483740000000  0.6888640000000 1.0
C      1  0.5859940000000  0.4194150000000  0.2908370000000 1.0
C      1  0.3997060000000  0.4422610000000  0.6540450000000 1.0
C      1  0.3921840000000  0.4658960000000  0.5504500000000 1.0
C      1  0.4668070000000  0.6862660000000  0.4646210000000 1.0
C      1  0.6091520000000  0.6428210000000  0.3751590000000 1.0
C      1  0.6880540000000  0.5057480000000  0.3649550000000 1.0
END
