TITL C-2159255-4746-106 -0.00159033496141915 3375 -406.612480097784 0 0 60 (C1) n - 1
REM
REM in /scratch/bkarasulu/871
REM
REM
REM
REM
REM
REM ./C.cell (a2850807a9bf4ad07a5b6933b78d9264)
REM AIRSS Version 0.9.1 bugfix July 2018 build 013d7b7c2542+ Fri, 06 Jul 2018 19:26:36 +0100
REM compiler GCC version 9.2.1 20190827 (Red Hat 9.2.1-1)
REM options -cpp -mtune=generic -march=x86-64 -g -O0 -fpre-include=/usr/include/finclude/math-vector-fortran.h
REM seed 2002651638 201953662 185153935 366515899 828564828 -785361963 1134548298 1655600586 -305266458 -914876652 -1043899715 -693283316 798379185 585258373 1929486320 1271121281 -1807515077 -1240313425 -925988069 1761539276 -1199862768 1548339780 953069281 -1846133216 576061856 -1397658792 -77184278 1653756800 2023827885 2122214915 199338122 -170908414 1309521396
REM
CELL 1.54180   15.00000   15.00000   15.00000   90.00000   90.00000   90.00000
LATT -1
SFAC C  
C      1  0.6878560000000  0.5281700000000  0.3851870000000 1.0
C      1  0.6176780000000  0.7414820000000  0.5497770000000 1.0
C      1  0.5267810000000  0.7134550000000  0.4192740000000 1.0
C      1  0.2395180000000  0.5949120000000  0.3965830000000 1.0
C      1  0.6167610000000  0.6793400000000  0.3978550000000 1.0
C      1  0.4298520000000  0.3547910000000  0.5790270000000 1.0
C      1  0.4863210000000  0.2931170000000  0.6319310000000 1.0
C      1  0.3045040000000  0.5353480000000  0.5542000000000 1.0
C      1  0.4558960000000  0.5870860000000  0.7163450000000 1.0
C      1  0.4281510000000  0.6565870000000  0.6553130000000 1.0
C      1  0.5631050000000  0.5668800000000  0.3017940000000 1.0
C      1  0.5288820000000  0.7337920000000  0.5163720000000 1.0
C      1  0.3219980000000  0.3981530000000  0.4502660000000 1.0
C      1  0.5091300000000  0.4272870000000  0.5839900000000 1.0
C      1  0.6382260000000  0.6043720000000  0.3417420000000 1.0
C      1  0.2940040000000  0.6521780000000  0.4491200000000 1.0
C      1  0.6464430000000  0.6259170000000  0.6640560000000 1.0
C      1  0.4408010000000  0.3556390000000  0.3187590000000 1.0
C      1  0.6781070000000  0.3900860000000  0.5665070000000 1.0
C      1  0.4759490000000  0.6013780000000  0.3110880000000 1.0
C      1  0.3711500000000  0.4965790000000  0.6046940000000 1.0
C      1  0.5726560000000  0.2810240000000  0.5907570000000 1.0
C      1  0.4695130000000  0.5101080000000  0.5621740000000 1.0
C      1  0.5876990000000  0.3844320000000  0.7061930000000 1.0
C      1  0.5519850000000  0.4622630000000  0.4293440000000 1.0
C      1  0.6522020000000  0.6783690000000  0.4877970000000 1.0
C      1  0.6731400000000  0.3656510000000  0.3890020000000 1.0
C      1  0.4650950000000  0.4712200000000  0.4731500000000 1.0
C      1  0.5948730000000  0.3270870000000  0.3459100000000 1.0
C      1  0.6333370000000  0.3414680000000  0.6347490000000 1.0
C      1  0.3831170000000  0.6327040000000  0.4234860000000 1.0
C      1  0.5095420000000  0.6725840000000  0.5971920000000 1.0
C      1  0.4107450000000  0.3690460000000  0.4802220000000 1.0
C      1  0.6331370000000  0.5133540000000  0.4707050000000 1.0
C      1  0.7067650000000  0.4456130000000  0.3575590000000 1.0
C      1  0.6191020000000  0.5364320000000  0.6354880000000 1.0
C      1  0.4869840000000  0.5036430000000  0.7311060000000 1.0
C      1  0.5003140000000  0.3454460000000  0.7137040000000 1.0
C      1  0.6646150000000  0.3431520000000  0.4827550000000 1.0
C      1  0.3475000000000  0.6722970000000  0.6133520000000 1.0
C      1  0.3083040000000  0.4928990000000  0.4704890000000 1.0
C      1  0.4306750000000  0.5117580000000  0.3284950000000 1.0
C      1  0.5917600000000  0.2852540000000  0.4967840000000 1.0
C      1  0.3761580000000  0.4281800000000  0.3090330000000 1.0
C      1  0.4384670000000  0.4168180000000  0.7203110000000 1.0
C      1  0.3014400000000  0.6308040000000  0.5469570000000 1.0
C      1  0.3981390000000  0.5359280000000  0.4221310000000 1.0
C      1  0.2963350000000  0.4199030000000  0.3587550000000 1.0
C      1  0.4556900000000  0.6687840000000  0.3755350000000 1.0
C      1  0.3807070000000  0.4124490000000  0.6439250000000 1.0
C      1  0.5397930000000  0.5803570000000  0.5737420000000 1.0
C      1  0.6029800000000  0.6996430000000  0.6356890000000 1.0
C      1  0.6018800000000  0.5957560000000  0.4990090000000 1.0
C      1  0.5334710000000  0.3823390000000  0.2944900000000 1.0
C      1  0.5426470000000  0.2874290000000  0.4149060000000 1.0
C      1  0.6637180000000  0.4813780000000  0.5593110000000 1.0
C      1  0.2506370000000  0.5075280000000  0.3915070000000 1.0
C      1  0.5793450000000  0.4787770000000  0.7061880000000 1.0
C      1  0.4518990000000  0.3168010000000  0.4064850000000 1.0
C      1  0.5325210000000  0.4747760000000  0.3277290000000 1.0
END
