TITL C-2158988-7926-323 -0.00254120654629979 3375 -402.604233098857 0 0 60 (C1) n - 1
REM
REM in /scratch/bkarasulu/868
REM
REM
REM
REM
REM
REM ./C.cell (a2850807a9bf4ad07a5b6933b78d9264)
REM AIRSS Version 0.9.1 bugfix July 2018 build 013d7b7c2542+ Fri, 06 Jul 2018 19:26:36 +0100
REM compiler GCC version 9.2.1 20190827 (Red Hat 9.2.1-1)
REM options -cpp -mtune=generic -march=x86-64 -g -O0 -fpre-include=/usr/include/finclude/math-vector-fortran.h
REM seed -1494518762 -1594782418 1492766239 749890469 129528364 1081265020 479986251 245189759 -1734622533 1580956710 171341792 1938023787 -2041531421 -331923314 1116946773 869061830 1258001645 1710901869 18439537 -1044749122 -1847631454 301582199 -356782001 -144259217 1036715737 -82859737 415574279 1417534616 -560700063 -937842102 -484067892 -1055261719 705312122
REM
CELL 1.54180   15.00000   15.00000   15.00000   90.00000   90.00000   90.00000
LATT -1
SFAC C  
C      1  0.7108370000000  0.4672100000000  0.6021750000000 1.0
C      1  0.6595210000000  0.5908080000000  0.4447800000000 1.0
C      1  0.7043970000000  0.4162190000000  0.4418420000000 1.0
C      1  0.6390420000000  0.3365000000000  0.6415890000000 1.0
C      1  0.6382640000000  0.6838140000000  0.5846830000000 1.0
C      1  0.6368560000000  0.4916220000000  0.2908490000000 1.0
C      1  0.5211890000000  0.5447380000000  0.4845680000000 1.0
C      1  0.4940660000000  0.4809430000000  0.4225730000000 1.0
C      1  0.4931660000000  0.4237470000000  0.5748030000000 1.0
C      1  0.4683660000000  0.5377380000000  0.6744760000000 1.0
C      1  0.4544130000000  0.6432390000000  0.3446510000000 1.0
C      1  0.4688200000000  0.3272200000000  0.4600390000000 1.0
C      1  0.3802710000000  0.6756450000000  0.4821400000000 1.0
C      1  0.3833280000000  0.3906830000000  0.3482680000000 1.0
C      1  0.3674080000000  0.4192950000000  0.6724010000000 1.0
C      1  0.3825740000000  0.3508750000000  0.4317320000000 1.0
C      1  0.3779060000000  0.5109530000000  0.6626180000000 1.0
C      1  0.3787590000000  0.6310370000000  0.4009090000000 1.0
C      1  0.5917700000000  0.3266920000000  0.7213210000000 1.0
C      1  0.6218330000000  0.7360120000000  0.5086700000000 1.0
C      1  0.6290940000000  0.4000810000000  0.2927890000000 1.0
C      1  0.3563070000000  0.4820760000000  0.3362940000000 1.0
C      1  0.3462080000000  0.3649470000000  0.5948700000000 1.0
C      1  0.3614340000000  0.6392870000000  0.5687590000000 1.0
C      1  0.3231900000000  0.5495490000000  0.5846900000000 1.0
C      1  0.3286030000000  0.5418140000000  0.4106390000000 1.0
C      1  0.3226010000000  0.3989600000000  0.5042700000000 1.0
C      1  0.5432870000000  0.3732520000000  0.3209160000000 1.0
C      1  0.5254270000000  0.3876930000000  0.7168980000000 1.0
C      1  0.5351520000000  0.7322580000000  0.4649740000000 1.0
C      1  0.4235690000000  0.3099850000000  0.6178040000000 1.0
C      1  0.4435530000000  0.6753150000000  0.6031430000000 1.0
C      1  0.4337640000000  0.4964610000000  0.2784980000000 1.0
C      1  0.2323650000000  0.5445660000000  0.4230760000000 1.0
C      1  0.2282670000000  0.4110720000000  0.4937070000000 1.0
C      1  0.2292050000000  0.5433340000000  0.5756060000000 1.0
C      1  0.4379710000000  0.3604850000000  0.7004440000000 1.0
C      1  0.4609740000000  0.7164000000000  0.5165370000000 1.0
C      1  0.4605300000000  0.4037750000000  0.2910600000000 1.0
C      1  0.6220820000000  0.5179560000000  0.6092430000000 1.0
C      1  0.6075620000000  0.6240420000000  0.3684950000000 1.0
C      1  0.6159650000000  0.4024720000000  0.4818470000000 1.0
C      1  0.5983170000000  0.6142460000000  0.6329530000000 1.0
C      1  0.5818520000000  0.5659390000000  0.3001380000000 1.0
C      1  0.5911400000000  0.3425260000000  0.5581230000000 1.0
C      1  0.4862960000000  0.5720550000000  0.2882320000000 1.0
C      1  0.4945480000000  0.3221730000000  0.5525330000000 1.0
C      1  0.5038930000000  0.6199810000000  0.6509960000000 1.0
C      1  0.5377670000000  0.3862010000000  0.4190180000000 1.0
C      1  0.5368520000000  0.4676650000000  0.6523700000000 1.0
C      1  0.5346010000000  0.6836400000000  0.3833460000000 1.0
C      1  0.6941160000000  0.4399170000000  0.3509980000000 1.0
C      1  0.7163250000000  0.3881650000000  0.6440530000000 1.0
C      1  0.6790690000000  0.6647120000000  0.4988140000000 1.0
C      1  0.7571930000000  0.4659490000000  0.5086660000000 1.0
C      1  0.4534500000000  0.4881540000000  0.5127960000000 1.0
C      1  0.8275370000000  0.5137250000000  0.4846700000000 1.0
C      1  0.3572640000000  0.4959050000000  0.5020960000000 1.0
C      1  0.6103830000000  0.5160000000000  0.5036880000000 1.0
C      1  0.2013990000000  0.4999060000000  0.4973440000000 1.0
END
