TITL C-2159255-4746-940 -0.00156028928406704 3375 -400.385384738565 0 0 60 (Cs) n - 1
REM
REM in /scratch/bkarasulu/871
REM
REM
REM
REM
REM
REM ./C.cell (a2850807a9bf4ad07a5b6933b78d9264)
REM AIRSS Version 0.9.1 bugfix July 2018 build 013d7b7c2542+ Fri, 06 Jul 2018 19:26:36 +0100
REM compiler GCC version 9.2.1 20190827 (Red Hat 9.2.1-1)
REM options -cpp -mtune=generic -march=x86-64 -g -O0 -fpre-include=/usr/include/finclude/math-vector-fortran.h
REM seed 391938185 -208100602 -1617899717 1456513312 -616827664 -2015732047 -469783243 1427797089 -1114291091 -129831779 165424576 1254245122 -735422529 -2013540093 625932303 -1643784150 946341965 -1374732789 -987008451 1533591567 -892113355 -1201519172 -119695241 906206718 -1358474114 1350698782 -466114032 1007365058 528435658 -1670154580 -1895436221 1573242238 -813214875
REM
CELL 1.54180   15.00000   15.00000   15.00000   90.00000   90.00000   90.00000
LATT -1
SFAC C  
C      1  0.4517000000000  0.6461330000000  0.3174600000000 1.0
C      1  0.5483000000000  0.6461330000000  0.3174600000000 1.0
C      1  0.4482450000000  0.6592240000000  0.4791510000000 1.0
C      1  0.5517550000000  0.6592240000000  0.4791510000000 1.0
C      1  0.4452290000000  0.5946260000000  0.6269440000000 1.0
C      1  0.5547710000000  0.5946260000000  0.6269440000000 1.0
C      1  0.5472370000000  0.3490750000000  0.7246980000000 1.0
C      1  0.4527630000000  0.3490750000000  0.7246980000000 1.0
C      1  0.5472180000000  0.3178870000000  0.3540850000000 1.0
C      1  0.4527820000000  0.3178870000000  0.3540850000000 1.0
C      1  0.2565230000000  0.5372400000000  0.5833120000000 1.0
C      1  0.7434770000000  0.5372400000000  0.5833120000000 1.0
C      1  0.6797630000000  0.5735580000000  0.5077210000000 1.0
C      1  0.3202370000000  0.5735580000000  0.5077210000000 1.0
C      1  0.5522070000000  0.4166980000000  0.4643130000000 1.0
C      1  0.4477930000000  0.4166980000000  0.4643130000000 1.0
C      1  0.6991090000000  0.5325470000000  0.6611300000000 1.0
C      1  0.3008910000000  0.5325470000000  0.6611300000000 1.0
C      1  0.2852890000000  0.4407840000000  0.4273410000000 1.0
C      1  0.7147110000000  0.4407840000000  0.4273410000000 1.0
C      1  0.3190870000000  0.5063660000000  0.3675020000000 1.0
C      1  0.6809130000000  0.5063660000000  0.3675020000000 1.0
C      1  0.5848470000000  0.4365980000000  0.6072720000000 1.0
C      1  0.4151530000000  0.4365980000000  0.6072720000000 1.0
C      1  0.3067420000000  0.6726290000000  0.3743830000000 1.0
C      1  0.6932580000000  0.6726290000000  0.3743830000000 1.0
C      1  0.4152540000000  0.5814920000000  0.5317980000000 1.0
C      1  0.5847460000000  0.5814920000000  0.5317980000000 1.0
C      1  0.6935720000000  0.5901290000000  0.4119060000000 1.0
C      1  0.3064280000000  0.5901290000000  0.4119060000000 1.0
C      1  0.5491980000000  0.4525660000000  0.6989310000000 1.0
C      1  0.4508020000000  0.4525660000000  0.6989310000000 1.0
C      1  0.5482100000000  0.7353610000000  0.5493310000000 1.0
C      1  0.4517900000000  0.7353610000000  0.5493310000000 1.0
C      1  0.4504860000000  0.5574700000000  0.2827330000000 1.0
C      1  0.5495140000000  0.5574700000000  0.2827330000000 1.0
C      1  0.6200520000000  0.2891870000000  0.4097480000000 1.0
C      1  0.3799480000000  0.2891870000000  0.4097480000000 1.0
C      1  0.4497100000000  0.4208800000000  0.3611610000000 1.0
C      1  0.5502900000000  0.4208800000000  0.3611610000000 1.0
C      1  0.4010670000000  0.2965330000000  0.6688760000000 1.0
C      1  0.5989330000000  0.2965330000000  0.6688760000000 1.0
C      1  0.6110670000000  0.3409880000000  0.4957510000000 1.0
C      1  0.3889330000000  0.3409880000000  0.4957510000000 1.0
C      1  0.6096060000000  0.5299000000000  0.6817390000000 1.0
C      1  0.3903940000000  0.5299000000000  0.6817390000000 1.0
C      1  0.5486610000000  0.6943140000000  0.6377110000000 1.0
C      1  0.4513390000000  0.6943140000000  0.6377110000000 1.0
C      1  0.6012220000000  0.6696950000000  0.3917330000000 1.0
C      1  0.3987780000000  0.6696950000000  0.3917330000000 1.0
C      1  0.6104570000000  0.3459260000000  0.5922170000000 1.0
C      1  0.3895430000000  0.3459260000000  0.5922170000000 1.0
C      1  0.6014720000000  0.4893870000000  0.3183540000000 1.0
C      1  0.3985280000000  0.4893870000000  0.3183540000000 1.0
C      1  0.3110890000000  0.3495500000000  0.4315870000000 1.0
C      1  0.6889110000000  0.3495500000000  0.4315870000000 1.0
C      1  0.4506160000000  0.4871700000000  0.5323760000000 1.0
C      1  0.5493840000000  0.4871700000000  0.5323760000000 1.0
C      1  0.7241290000000  0.4860840000000  0.5087350000000 1.0
C      1  0.2758710000000  0.4860840000000  0.5087350000000 1.0
END
