TITL C-2159252-5904-364 -0.00151013460527388 3375 -355.634857931931 0 0 60 (Th) n - 1
REM
REM in /scratch/bkarasulu/870
REM
REM
REM
REM
REM
REM ./C.cell (a2850807a9bf4ad07a5b6933b78d9264)
REM AIRSS Version 0.9.1 bugfix July 2018 build 013d7b7c2542+ Fri, 06 Jul 2018 19:26:36 +0100
REM compiler GCC version 9.2.1 20190827 (Red Hat 9.2.1-1)
REM options -cpp -mtune=generic -march=x86-64 -g -O0 -fpre-include=/usr/include/finclude/math-vector-fortran.h
REM seed 1873704115 -1511317425 1374522051 1546300694 928861650 -1246139320 972756853 -736934949 -348976214 -1829881100 790521747 1172845528 490363510 -285048151 -379981726 1648392803 186340289 1270125148 2126989285 1883466156 874220859 693913127 1849921838 -436365690 -1880704927 1226774253 1917340081 -370713928 -2075846993 -1308301365 -1223804631 417363451 2028699627
REM
CELL 1.54180   15.00000   15.00000   15.00000   90.00000   90.00000   90.00000
LATT -1
SFAC C  
C      1  0.4481960000000  0.7035570000000  0.5993690000000 1.0
C      1  0.5993690000000  0.4481960000000  0.7035570000000 1.0
C      1  0.7035570000000  0.5993690000000  0.4481960000000 1.0
C      1  0.5518040000000  0.2964430000000  0.5993690000000 1.0
C      1  0.5518040000000  0.7035570000000  0.4006310000000 1.0
C      1  0.4481960000000  0.2964430000000  0.4006310000000 1.0
C      1  0.4006310000000  0.5518040000000  0.7035570000000 1.0
C      1  0.4006310000000  0.4481960000000  0.2964430000000 1.0
C      1  0.5993690000000  0.5518040000000  0.2964430000000 1.0
C      1  0.2964430000000  0.4006310000000  0.4481960000000 1.0
C      1  0.2964430000000  0.5993690000000  0.5518040000000 1.0
C      1  0.7035570000000  0.4006310000000  0.5518040000000 1.0
C      1  0.4481960000000  0.7035570000000  0.4006310000000 1.0
C      1  0.5993690000000  0.4481960000000  0.2964430000000 1.0
C      1  0.7035570000000  0.5993690000000  0.5518040000000 1.0
C      1  0.5518040000000  0.2964430000000  0.4006310000000 1.0
C      1  0.5518040000000  0.7035570000000  0.5993690000000 1.0
C      1  0.4481960000000  0.2964430000000  0.5993690000000 1.0
C      1  0.4006310000000  0.5518040000000  0.2964430000000 1.0
C      1  0.4006310000000  0.4481960000000  0.7035570000000 1.0
C      1  0.5993690000000  0.5518040000000  0.7035570000000 1.0
C      1  0.2964430000000  0.4006310000000  0.5518040000000 1.0
C      1  0.2964430000000  0.5993690000000  0.4481960000000 1.0
C      1  0.7035570000000  0.4006310000000  0.4481960000000 1.0
C      1  0.3801080000000  0.4509540000000  0.5517240000000 1.0
C      1  0.5517240000000  0.3801080000000  0.4509540000000 1.0
C      1  0.4509540000000  0.5517240000000  0.3801080000000 1.0
C      1  0.6198920000000  0.5490460000000  0.5517240000000 1.0
C      1  0.6198920000000  0.4509540000000  0.4482760000000 1.0
C      1  0.3801080000000  0.5490460000000  0.4482760000000 1.0
C      1  0.4482760000000  0.6198920000000  0.4509540000000 1.0
C      1  0.4482760000000  0.3801080000000  0.5490460000000 1.0
C      1  0.5517240000000  0.6198920000000  0.5490460000000 1.0
C      1  0.5490460000000  0.4482760000000  0.3801080000000 1.0
C      1  0.5490460000000  0.5517240000000  0.6198920000000 1.0
C      1  0.4509540000000  0.4482760000000  0.6198920000000 1.0
C      1  0.3801080000000  0.4509540000000  0.4482760000000 1.0
C      1  0.5517240000000  0.3801080000000  0.5490460000000 1.0
C      1  0.4509540000000  0.5517240000000  0.6198920000000 1.0
C      1  0.6198920000000  0.5490460000000  0.4482760000000 1.0
C      1  0.6198920000000  0.4509540000000  0.5517240000000 1.0
C      1  0.3801080000000  0.5490460000000  0.5517240000000 1.0
C      1  0.4482760000000  0.6198920000000  0.5490460000000 1.0
C      1  0.4482760000000  0.3801080000000  0.4509540000000 1.0
C      1  0.5517240000000  0.6198920000000  0.4509540000000 1.0
C      1  0.5490460000000  0.4482760000000  0.6198920000000 1.0
C      1  0.5490460000000  0.5517240000000  0.3801080000000 1.0
C      1  0.4509540000000  0.4482760000000  0.3801080000000 1.0
C      1  0.5000000000000  0.2393110000000  0.3609480000000 1.0
C      1  0.3609480000000  0.5000000000000  0.2393110000000 1.0
C      1  0.2393110000000  0.3609480000000  0.5000000000000 1.0
C      1  0.5000000000000  0.7606890000000  0.3609480000000 1.0
C      1  0.5000000000000  0.2393110000000  0.6390520000000 1.0
C      1  0.5000000000000  0.7606890000000  0.6390520000000 1.0
C      1  0.6390520000000  0.5000000000000  0.2393110000000 1.0
C      1  0.3609480000000  0.5000000000000  0.7606890000000 1.0
C      1  0.7606890000000  0.6390520000000  0.5000000000000 1.0
C      1  0.7606890000000  0.3609480000000  0.5000000000000 1.0
C      1  0.2393110000000  0.6390520000000  0.5000000000000 1.0
C      1  0.6390520000000  0.5000000000000  0.7606890000000 1.0
END
