TITL C-2158984-8299-1149 -0.0036253246338084 3375 -403.736195333087 0 0 60 (C1) n - 1
REM
REM in /scratch/bkarasulu/869
REM
REM
REM
REM
REM
REM ./C.cell (a2850807a9bf4ad07a5b6933b78d9264)
REM AIRSS Version 0.9.1 bugfix July 2018 build 013d7b7c2542+ Fri, 06 Jul 2018 19:26:36 +0100
REM compiler GCC version 9.2.1 20190827 (Red Hat 9.2.1-1)
REM options -cpp -mtune=generic -march=x86-64 -g -O0 -fpre-include=/usr/include/finclude/math-vector-fortran.h
REM seed -511205774 -1503406939 637633190 -318186068 1093364643 1075771583 -1494565374 792439841 -2090453058 1760520872 -5065027 -1377026206 -30833389 -1661568252 1302564604 -1832619131 416788563 266556282 910790556 73608022 -1238555355 282141466 -832895718 -1657830255 -1259544921 408932353 -573656683 2063696649 -1611145233 1185799815 -467942259 -1242632126 -435823251
REM
CELL 1.54180   15.00000   15.00000   15.00000   90.00000   90.00000   90.00000
LATT -1
SFAC C  
C      1  0.4577380000000  0.2942820000000  0.4184140000000 1.0
C      1  0.7167620000000  0.4731400000000  0.4052180000000 1.0
C      1  0.5278510000000  0.6896310000000  0.3872770000000 1.0
C      1  0.2969230000000  0.5525980000000  0.3268590000000 1.0
C      1  0.5127850000000  0.3075250000000  0.5914150000000 1.0
C      1  0.2776920000000  0.4819410000000  0.6043470000000 1.0
C      1  0.4914740000000  0.7036740000000  0.5770570000000 1.0
C      1  0.7123720000000  0.5166450000000  0.5953280000000 1.0
C      1  0.6387130000000  0.2921150000000  0.5654970000000 1.0
C      1  0.8795690000000  0.5479350000000  0.6346630000000 1.0
C      1  0.4818780000000  0.8766710000000  0.5969690000000 1.0
C      1  0.1390400000000  0.4026630000000  0.6735260000000 1.0
C      1  0.2950940000000  0.3202990000000  0.4208560000000 1.0
C      1  0.3135270000000  0.6687880000000  0.4215530000000 1.0
C      1  0.6611490000000  0.6828670000000  0.4563730000000 1.0
C      1  0.7492700000000  0.3714960000000  0.4749860000000 1.0
C      1  0.4997390000000  0.5841110000000  0.7174770000000 1.0
C      1  0.4316690000000  0.5085490000000  0.7233380000000 1.0
C      1  0.5060800000000  0.4433860000000  0.7232140000000 1.0
C      1  0.5769020000000  0.5127430000000  0.7224530000000 1.0
C      1  0.5290070000000  0.5515880000000  0.2666210000000 1.0
C      1  0.5855440000000  0.4660300000000  0.2787700000000 1.0
C      1  0.5011240000000  0.4155010000000  0.2835180000000 1.0
C      1  0.4481100000000  0.4939820000000  0.2627070000000 1.0
C      1  0.5621210000000  0.4430350000000  0.4190630000000 1.0
C      1  0.5149000000000  0.5337640000000  0.4150090000000 1.0
C      1  0.4204490000000  0.5212220000000  0.4156450000000 1.0
C      1  0.3984460000000  0.4313570000000  0.3996680000000 1.0
C      1  0.4167020000000  0.4233830000000  0.5965930000000 1.0
C      1  0.4203040000000  0.5212160000000  0.5691970000000 1.0
C      1  0.5105740000000  0.5476330000000  0.5729890000000 1.0
C      1  0.5655190000000  0.4653350000000  0.5882220000000 1.0
C      1  0.7968570000000  0.5381790000000  0.6192550000000 1.0
C      1  0.4826290000000  0.7922270000000  0.5930680000000 1.0
C      1  0.2058660000000  0.4410010000000  0.6375980000000 1.0
C      1  0.5795430000000  0.2451030000000  0.6062880000000 1.0
C      1  0.2673410000000  0.6291110000000  0.3570520000000 1.0
C      1  0.6064520000000  0.7296500000000  0.4083630000000 1.0
C      1  0.7887770000000  0.4132230000000  0.4093840000000 1.0
C      1  0.3659260000000  0.2762380000000  0.3992500000000 1.0
C      1  0.4831150000000  0.3849960000000  0.3801220000000 1.0
C      1  0.6364780000000  0.4521850000000  0.3568620000000 1.0
C      1  0.5324560000000  0.6036170000000  0.3447310000000 1.0
C      1  0.3761280000000  0.5055240000000  0.3268770000000 1.0
C      1  0.5029230000000  0.3993810000000  0.6296840000000 1.0
C      1  0.3705310000000  0.4929560000000  0.6474720000000 1.0
C      1  0.5051960000000  0.6266240000000  0.6332720000000 1.0
C      1  0.6354780000000  0.4975380000000  0.6478570000000 1.0
C      1  0.3834070000000  0.3657320000000  0.5363850000000 1.0
C      1  0.6098940000000  0.4402320000000  0.5058260000000 1.0
C      1  0.5379930000000  0.5881470000000  0.4911580000000 1.0
C      1  0.3714040000000  0.5470440000000  0.4941410000000 1.0
C      1  0.6702130000000  0.3618990000000  0.5186660000000 1.0
C      1  0.3287760000000  0.4033970000000  0.4644020000000 1.0
C      1  0.3833730000000  0.6412470000000  0.4719380000000 1.0
C      1  0.6350040000000  0.6015010000000  0.4889800000000 1.0
C      1  0.2970300000000  0.4868250000000  0.5095510000000 1.0
C      1  0.4533910000000  0.3077360000000  0.5155350000000 1.0
C      1  0.6768220000000  0.5162060000000  0.4974790000000 1.0
C      1  0.4779720000000  0.6673760000000  0.4820710000000 1.0
END
