TITL C-2159255-4746-183 0.144461825560893 3375 -399.51677496812 0 0 60 (C1) n - 1
REM
REM in /scratch/bkarasulu/871
REM
REM
REM
REM
REM
REM ./C.cell (a2850807a9bf4ad07a5b6933b78d9264)
REM AIRSS Version 0.9.1 bugfix July 2018 build 013d7b7c2542+ Fri, 06 Jul 2018 19:26:36 +0100
REM compiler GCC version 9.2.1 20190827 (Red Hat 9.2.1-1)
REM options -cpp -mtune=generic -march=x86-64 -g -O0 -fpre-include=/usr/include/finclude/math-vector-fortran.h
REM seed -1849726775 -849252062 866129802 235451979 -514655672 -881352902 -650532306 2099082181 836833412 -127682874 128878207 1157321136 993007456 -1275329665 -787978084 1867869571 1948662947 -2138969233 232769142 998566544 -1522384537 2041352878 -432114241 -2115311655 1756955120 -985537346 899217547 -1630897995 2036401526 -1538236332 862440585 -179360370 162260031
REM
CELL 1.54180   15.00000   15.00000   15.00000   90.00000   90.00000   90.00000
LATT -1
SFAC C  
C      1  0.3048080000000  0.4035790000000  0.5336590000000 1.0
C      1  0.3066290000000  0.4879990000000  0.3873080000000 1.0
C      1  0.3222630000000  0.5866690000000  0.4079240000000 1.0
C      1  0.3404860000000  0.6224930000000  0.5737410000000 1.0
C      1  0.3209700000000  0.4631390000000  0.6115740000000 1.0
C      1  0.5718100000000  0.3091730000000  0.3639530000000 1.0
C      1  0.6094080000000  0.5398270000000  0.3267740000000 1.0
C      1  0.6310720000000  0.6977890000000  0.4880860000000 1.0
C      1  0.6774200000000  0.5321850000000  0.6657080000000 1.0
C      1  0.6210320000000  0.3011350000000  0.6163920000000 1.0
C      1  0.6206970000000  0.4598220000000  0.6926760000000 1.0
C      1  0.5992150000000  0.2756110000000  0.5352090000000 1.0
C      1  0.5804020000000  0.3790790000000  0.3013560000000 1.0
C      1  0.6364260000000  0.6232190000000  0.3410500000000 1.0
C      1  0.6379800000000  0.6757430000000  0.5788380000000 1.0
C      1  0.3691660000000  0.3347840000000  0.5182320000000 1.0
C      1  0.3703410000000  0.4419250000000  0.3322760000000 1.0
C      1  0.3987170000000  0.6387760000000  0.3815700000000 1.0
C      1  0.4220370000000  0.6629610000000  0.6029080000000 1.0
C      1  0.3999090000000  0.4535940000000  0.6639410000000 1.0
C      1  0.5367660000000  0.5500350000000  0.3907510000000 1.0
C      1  0.5613380000000  0.7197110000000  0.5456060000000 1.0
C      1  0.5539750000000  0.4805250000000  0.6312680000000 1.0
C      1  0.5340710000000  0.3507180000000  0.5363150000000 1.0
C      1  0.4963860000000  0.3386130000000  0.3158600000000 1.0
C      1  0.6104000000000  0.6956360000000  0.3939170000000 1.0
C      1  0.6347510000000  0.6203880000000  0.6590370000000 1.0
C      1  0.6000120000000  0.3658590000000  0.6859680000000 1.0
C      1  0.5496160000000  0.2691300000000  0.4498120000000 1.0
C      1  0.5822140000000  0.4693690000000  0.2661800000000 1.0
C      1  0.5568070000000  0.6433900000000  0.7039970000000 1.0
C      1  0.5143060000000  0.3481060000000  0.7170560000000 1.0
C      1  0.4611710000000  0.2335000000000  0.4427550000000 1.0
C      1  0.4977620000000  0.4813630000000  0.2205190000000 1.0
C      1  0.5260630000000  0.7369480000000  0.3811530000000 1.0
C      1  0.4690010000000  0.7115490000000  0.5319130000000 1.0
C      1  0.4704500000000  0.5165950000000  0.6692320000000 1.0
C      1  0.4443490000000  0.3320920000000  0.5766760000000 1.0
C      1  0.4093430000000  0.3558480000000  0.3518260000000 1.0
C      1  0.4576950000000  0.5815910000000  0.3359390000000 1.0
C      1  0.4516050000000  0.7077920000000  0.4313490000000 1.0
C      1  0.4759730000000  0.6119730000000  0.6678570000000 1.0
C      1  0.4414120000000  0.3642920000000  0.6653660000000 1.0
C      1  0.3973030000000  0.3029040000000  0.4316110000000 1.0
C      1  0.4318640000000  0.5042690000000  0.2831370000000 1.0
C      1  0.2143790000000  0.5252780000000  0.5205060000000 1.0
C      1  0.2592880000000  0.4539350000000  0.4655890000000 1.0
C      1  0.8736040000000  0.5579800000000  0.5209180000000 1.0
C      1  0.1268110000000  0.5461920000000  0.5205220000000 1.0
C      1  0.3636430000000  0.5773490000000  0.4935500000000 1.0
C      1  0.7214920000000  0.5049390000000  0.5869540000000 1.0
C      1  0.6672310000000  0.4555180000000  0.5246400000000 1.0
C      1  0.5164950000000  0.5025230000000  0.4745880000000 1.0
C      1  0.9568880000000  0.5625820000000  0.5206060000000 1.0
C      1  0.5699960000000  0.4455900000000  0.5354470000000 1.0
C      1  0.2824120000000  0.5486090000000  0.5891790000000 1.0
C      1  0.0437541000000  0.5571640000000  0.5200350000000 1.0
C      1  0.7337610000000  0.4700950000000  0.4624480000000 1.0
C      1  0.4294250000000  0.5042600000000  0.4975130000000 1.0
C      1  0.7926860000000  0.5185580000000  0.5226210000000 1.0
END
