TITL C-2158984-8299-1137 -0.00165707880226175 3375 -404.277233257667 0 0 60 (C4) n - 1
REM
REM in /scratch/bkarasulu/869
REM
REM
REM
REM
REM
REM ./C.cell (a2850807a9bf4ad07a5b6933b78d9264)
REM AIRSS Version 0.9.1 bugfix July 2018 build 013d7b7c2542+ Fri, 06 Jul 2018 19:26:36 +0100
REM compiler GCC version 9.2.1 20190827 (Red Hat 9.2.1-1)
REM options -cpp -mtune=generic -march=x86-64 -g -O0 -fpre-include=/usr/include/finclude/math-vector-fortran.h
REM seed -1878017030 996911437 -1061641408 -1374580515 204285782 -696852448 -1506719424 -2034892137 1392508840 -1556596280 -1699519693 -2034387777 -1347571738 -65684114 -2043248951 1506927232 91766088 765913622 -730963992 -731639391 -282166747 1580566069 1482606460 -1803128401 -1110260779 -1195023896 -768869094 -1719397962 -1776989028 1067121168 1675275553 1402698108 235207434
REM
CELL 1.54180   15.00000   15.00000   15.00000   90.00000   90.00000   90.00000
LATT -1
SFAC C  
C      1  0.4556720000000  0.5902990000000  0.5573950000000 1.0
C      1  0.4426050000000  0.5902990000000  0.4556720000000 1.0
C      1  0.5443280000000  0.5902990000000  0.4426050000000 1.0
C      1  0.5573950000000  0.5902990000000  0.5443280000000 1.0
C      1  0.5551550000000  0.2854290000000  0.4588600000000 1.0
C      1  0.5411400000000  0.2854290000000  0.5551550000000 1.0
C      1  0.4448450000000  0.2854290000000  0.5411400000000 1.0
C      1  0.4588600000000  0.2854290000000  0.4448450000000 1.0
C      1  0.4373660000000  0.4088560000000  0.3100140000000 1.0
C      1  0.6899860000000  0.4088560000000  0.4373660000000 1.0
C      1  0.5626340000000  0.4088560000000  0.6899860000000 1.0
C      1  0.3100140000000  0.4088560000000  0.5626340000000 1.0
C      1  0.3946340000000  0.3536860000000  0.5928580000000 1.0
C      1  0.4071420000000  0.3536860000000  0.3946340000000 1.0
C      1  0.6053660000000  0.3536860000000  0.4071420000000 1.0
C      1  0.5928580000000  0.3536860000000  0.6053660000000 1.0
C      1  0.4392290000000  0.5049790000000  0.6991510000000 1.0
C      1  0.3008490000000  0.5049790000000  0.4392290000000 1.0
C      1  0.5607710000000  0.5049790000000  0.3008490000000 1.0
C      1  0.6991510000000  0.5049790000000  0.5607710000000 1.0
C      1  0.5180570000000  0.5810180000000  0.2667480000000 1.0
C      1  0.7332520000000  0.5810180000000  0.5180570000000 1.0
C      1  0.4819430000000  0.5810180000000  0.7332520000000 1.0
C      1  0.2667480000000  0.5810180000000  0.4819430000000 1.0
C      1  0.3182720000000  0.6671380000000  0.4752100000000 1.0
C      1  0.5247900000000  0.6671380000000  0.3182720000000 1.0
C      1  0.6817280000000  0.6671380000000  0.5247900000000 1.0
C      1  0.4752100000000  0.6671380000000  0.6817280000000 1.0
C      1  0.4543310000000  0.4294710000000  0.5561470000000 1.0
C      1  0.4438530000000  0.4294710000000  0.4543310000000 1.0
C      1  0.5456690000000  0.4294710000000  0.4438530000000 1.0
C      1  0.5561470000000  0.4294710000000  0.5456690000000 1.0
C      1  0.4182490000000  0.5092530000000  0.6055280000000 1.0
C      1  0.3944720000000  0.5092530000000  0.4182490000000 1.0
C      1  0.5817510000000  0.5092530000000  0.3944720000000 1.0
C      1  0.6055280000000  0.5092530000000  0.5817510000000 1.0
C      1  0.4179170000000  0.6660040000000  0.6074810000000 1.0
C      1  0.3925190000000  0.6660040000000  0.4179170000000 1.0
C      1  0.5820830000000  0.6660040000000  0.3925190000000 1.0
C      1  0.6074810000000  0.6660040000000  0.5820830000000 1.0
C      1  0.3318150000000  0.6653820000000  0.5724740000000 1.0
C      1  0.4275260000000  0.6653820000000  0.3318150000000 1.0
C      1  0.6681850000000  0.6653820000000  0.4275260000000 1.0
C      1  0.5724740000000  0.6653820000000  0.6681850000000 1.0
C      1  0.4004130000000  0.4961010000000  0.3227900000000 1.0
C      1  0.6772100000000  0.4961010000000  0.4004130000000 1.0
C      1  0.5995870000000  0.4961010000000  0.6772100000000 1.0
C      1  0.3227900000000  0.4961010000000  0.5995870000000 1.0
C      1  0.4728030000000  0.4134370000000  0.7157740000000 1.0
C      1  0.2842260000000  0.4134370000000  0.4728030000000 1.0
C      1  0.5271970000000  0.4134370000000  0.2842260000000 1.0
C      1  0.7157740000000  0.4134370000000  0.5271970000000 1.0
C      1  0.6858600000000  0.3519560000000  0.5873140000000 1.0
C      1  0.4126860000000  0.3519560000000  0.6858600000000 1.0
C      1  0.3141400000000  0.3519560000000  0.4126860000000 1.0
C      1  0.5873140000000  0.3519560000000  0.3141400000000 1.0
C      1  0.7194730000000  0.5769910000000  0.4231910000000 1.0
C      1  0.5768090000000  0.5769910000000  0.7194730000000 1.0
C      1  0.2805270000000  0.5769910000000  0.5768090000000 1.0
C      1  0.4231910000000  0.5769910000000  0.2805270000000 1.0
END
