TITL C-2158984-8299-948 -0.00177877280934825 3375 -402.174657517353 0 0 60 (C2) n - 1
REM
REM in /scratch/bkarasulu/869
REM
REM
REM
REM
REM
REM ./C.cell (a2850807a9bf4ad07a5b6933b78d9264)
REM AIRSS Version 0.9.1 bugfix July 2018 build 013d7b7c2542+ Fri, 06 Jul 2018 19:26:36 +0100
REM compiler GCC version 9.2.1 20190827 (Red Hat 9.2.1-1)
REM options -cpp -mtune=generic -march=x86-64 -g -O0 -fpre-include=/usr/include/finclude/math-vector-fortran.h
REM seed -949960254 446971311 -173509663 -1138598624 -1491807497 1030153020 322415939 -479089106 -866033323 -2143802243 -1139833395 -1954898810 1497729656 -51339724 -791165575 -212415678 -1204578411 -298502099 -2088498842 1391200997 1662314253 -1265339344 1751545582 1030171963 1986527140 1366906161 -1378786523 -1152455865 23397985 -1760498086 1176246620 -585083145 -1515258209
REM
CELL 1.54180   15.00000   15.00000   15.00000   90.00000   90.00000   90.00000
LATT -1
SFAC C  
C      1  0.4232190000000  0.6228490000000  0.3114430000000 1.0
C      1  0.5767810000000  0.3771510000000  0.3114430000000 1.0
C      1  0.3652050000000  0.4758390000000  0.6977350000000 1.0
C      1  0.6347950000000  0.5241610000000  0.6977350000000 1.0
C      1  0.5396440000000  0.4753990000000  0.4309450000000 1.0
C      1  0.4603560000000  0.5246010000000  0.4309450000000 1.0
C      1  0.3997770000000  0.5305010000000  0.3419930000000 1.0
C      1  0.6002230000000  0.4694990000000  0.3419930000000 1.0
C      1  0.4000000000000  0.3510260000000  0.5604940000000 1.0
C      1  0.6000000000000  0.6489740000000  0.5604940000000 1.0
C      1  0.3164430000000  0.5099010000000  0.3930260000000 1.0
C      1  0.6835570000000  0.4900990000000  0.3930260000000 1.0
C      1  0.5447340000000  0.5673140000000  0.5696900000000 1.0
C      1  0.4552660000000  0.4326860000000  0.5696900000000 1.0
C      1  0.4597930000000  0.4765530000000  0.2824900000000 1.0
C      1  0.5402070000000  0.5234470000000  0.2824900000000 1.0
C      1  0.6721700000000  0.4632740000000  0.6348300000000 1.0
C      1  0.3278300000000  0.5367260000000  0.6348300000000 1.0
C      1  0.3621620000000  0.3508530000000  0.4731720000000 1.0
C      1  0.6378380000000  0.6491470000000  0.4731720000000 1.0
C      1  0.6531400000000  0.3403480000000  0.4726720000000 1.0
C      1  0.3468600000000  0.6596520000000  0.4726720000000 1.0
C      1  0.4890540000000  0.7266950000000  0.4502990000000 1.0
C      1  0.5109460000000  0.2733050000000  0.4502990000000 1.0
C      1  0.5762170000000  0.6974570000000  0.4131980000000 1.0
C      1  0.4237830000000  0.3025430000000  0.4131980000000 1.0
C      1  0.5364490000000  0.5331470000000  0.6606730000000 1.0
C      1  0.4635510000000  0.4668530000000  0.6606730000000 1.0
C      1  0.4033770000000  0.7015080000000  0.4067180000000 1.0
C      1  0.5966230000000  0.2984920000000  0.4067180000000 1.0
C      1  0.5730580000000  0.6832110000000  0.3224990000000 1.0
C      1  0.4269420000000  0.3167890000000  0.3224990000000 1.0
C      1  0.6034880000000  0.3340110000000  0.5542490000000 1.0
C      1  0.3965120000000  0.6659890000000  0.5542490000000 1.0
C      1  0.4183270000000  0.4057160000000  0.7215300000000 1.0
C      1  0.5816730000000  0.5942840000000  0.7215300000000 1.0
C      1  0.3193500000000  0.5097750000000  0.5326450000000 1.0
C      1  0.6806500000000  0.4902250000000  0.5326450000000 1.0
C      1  0.5425850000000  0.4152450000000  0.5431760000000 1.0
C      1  0.4574150000000  0.5847550000000  0.5431760000000 1.0
C      1  0.5708530000000  0.3422070000000  0.7027160000000 1.0
C      1  0.4291470000000  0.6577930000000  0.7027160000000 1.0
C      1  0.6329770000000  0.3720700000000  0.6403650000000 1.0
C      1  0.3670230000000  0.6279300000000  0.6403650000000 1.0
C      1  0.3047970000000  0.5773720000000  0.4616160000000 1.0
C      1  0.6952030000000  0.4226280000000  0.4616160000000 1.0
C      1  0.4802850000000  0.3838750000000  0.2919450000000 1.0
C      1  0.5197150000000  0.6161250000000  0.2919450000000 1.0
C      1  0.3165460000000  0.4358940000000  0.4602530000000 1.0
C      1  0.6834540000000  0.5641060000000  0.4602530000000 1.0
C      1  0.5255740000000  0.2727960000000  0.5434600000000 1.0
C      1  0.4744260000000  0.7272040000000  0.5434600000000 1.0
C      1  0.5196690000000  0.6631940000000  0.6868120000000 1.0
C      1  0.4803310000000  0.3368060000000  0.6868120000000 1.0
C      1  0.5432070000000  0.7094990000000  0.6055360000000 1.0
C      1  0.4567930000000  0.2905010000000  0.6055360000000 1.0
C      1  0.3806640000000  0.7044840000000  0.3157080000000 1.0
C      1  0.6193360000000  0.2955160000000  0.3157080000000 1.0
C      1  0.4180800000000  0.5052420000000  0.5181130000000 1.0
C      1  0.5819200000000  0.4947580000000  0.5181130000000 1.0
END
