TITL C-2159255-4746-1249 -0.00265882439901215 3375 -401.062776587658 0 0 60 (C1) n - 1
REM
REM in /scratch/bkarasulu/871
REM
REM
REM
REM
REM
REM ./C.cell (a2850807a9bf4ad07a5b6933b78d9264)
REM AIRSS Version 0.9.1 bugfix July 2018 build 013d7b7c2542+ Fri, 06 Jul 2018 19:26:36 +0100
REM compiler GCC version 9.2.1 20190827 (Red Hat 9.2.1-1)
REM options -cpp -mtune=generic -march=x86-64 -g -O0 -fpre-include=/usr/include/finclude/math-vector-fortran.h
REM seed -534717395 178018673 -1633149257 -1078701665 -463288825 -1698324441 -1967563844 -953651797 1979258315 -287808865 -882977828 416948516 887211477 2111211731 -348771120 1000647397 -375331207 -1563813166 -1636743253 -276130124 -292717815 -1982305171 1442121788 1069162886 -1317225641 1322412462 -1816575392 -2101413175 -1021808232 1060743200 -1729698795 1359537731 1645082767
REM
CELL 1.54180   15.00000   15.00000   15.00000   90.00000   90.00000   90.00000
LATT -1
SFAC C  
C      1  0.5541250000000  0.6082790000000  0.2786620000000 1.0
C      1  0.3042230000000  0.6063350000000  0.5542750000000 1.0
C      1  0.6757600000000  0.6338310000000  0.6549780000000 1.0
C      1  0.4583580000000  0.6191270000000  0.2808510000000 1.0
C      1  0.7249760000000  0.6328660000000  0.5718550000000 1.0
C      1  0.3532740000000  0.6012970000000  0.6406530000000 1.0
C      1  0.4450760000000  0.5223720000000  0.2722550000000 1.0
C      1  0.3425930000000  0.5066800000000  0.6435700000000 1.0
C      1  0.7195550000000  0.5367170000000  0.5667550000000 1.0
C      1  0.5466210000000  0.5130140000000  0.2616460000000 1.0
C      1  0.6673010000000  0.5371970000000  0.6554360000000 1.0
C      1  0.2924640000000  0.5106830000000  0.5529130000000 1.0
C      1  0.2842900000000  0.6973930000000  0.4117920000000 1.0
C      1  0.5526940000000  0.7018080000000  0.7397710000000 1.0
C      1  0.6939640000000  0.6662590000000  0.3549800000000 1.0
C      1  0.7415940000000  0.6919670000000  0.4202090000000 1.0
C      1  0.4705280000000  0.6813730000000  0.7357770000000 1.0
C      1  0.3286170000000  0.7015630000000  0.3400880000000 1.0
C      1  0.5645610000000  0.7224320000000  0.5837070000000 1.0
C      1  0.5539360000000  0.6689500000000  0.4362130000000 1.0
C      1  0.4166470000000  0.7068790000000  0.4983930000000 1.0
C      1  0.4758630000000  0.6773510000000  0.5712370000000 1.0
C      1  0.4655920000000  0.7045150000000  0.4174970000000 1.0
C      1  0.6105030000000  0.7188120000000  0.5040990000000 1.0
C      1  0.6097670000000  0.7013570000000  0.6656490000000 1.0
C      1  0.6031500000000  0.6474850000000  0.3499410000000 1.0
C      1  0.3252870000000  0.6774700000000  0.4948890000000 1.0
C      1  0.4267870000000  0.6581170000000  0.6569150000000 1.0
C      1  0.4210770000000  0.6871390000000  0.3340800000000 1.0
C      1  0.7036210000000  0.6977050000000  0.5059400000000 1.0
C      1  0.5892740000000  0.4852920000000  0.6373300000000 1.0
C      1  0.5721440000000  0.4592490000000  0.3371240000000 1.0
C      1  0.3386310000000  0.4355410000000  0.5129670000000 1.0
C      1  0.4057410000000  0.4376080000000  0.6213070000000 1.0
C      1  0.4215760000000  0.4657340000000  0.3455960000000 1.0
C      1  0.6611030000000  0.4883520000000  0.5076910000000 1.0
C      1  0.2772510000000  0.3019780000000  0.4379880000000 1.0
C      1  0.5235770000000  0.3423840000000  0.6963050000000 1.0
C      1  0.6579920000000  0.3159180000000  0.3452980000000 1.0
C      1  0.6798230000000  0.3462210000000  0.4221940000000 1.0
C      1  0.4450240000000  0.3132570000000  0.7210450000000 1.0
C      1  0.3363820000000  0.3284080000000  0.3792790000000 1.0
C      1  0.5754690000000  0.3902980000000  0.6364040000000 1.0
C      1  0.5739650000000  0.3653520000000  0.3514330000000 1.0
C      1  0.3295600000000  0.3402490000000  0.5079100000000 1.0
C      1  0.4095820000000  0.3440350000000  0.6379760000000 1.0
C      1  0.4153030000000  0.3713280000000  0.3578140000000 1.0
C      1  0.6507170000000  0.3932780000000  0.4968410000000 1.0
C      1  0.4178160000000  0.3049770000000  0.5464950000000 1.0
C      1  0.5748380000000  0.3526330000000  0.5441310000000 1.0
C      1  0.4976310000000  0.3345800000000  0.4052920000000 1.0
C      1  0.4998890000000  0.4927670000000  0.3984590000000 1.0
C      1  0.5734810000000  0.5241190000000  0.5441600000000 1.0
C      1  0.4332390000000  0.4504800000000  0.5283900000000 1.0
C      1  0.4719350000000  0.2267130000000  0.5227740000000 1.0
C      1  0.5611620000000  0.2518020000000  0.5227210000000 1.0
C      1  0.5153660000000  0.2412840000000  0.4433800000000 1.0
C      1  0.5241450000000  0.6036460000000  0.5149960000000 1.0
C      1  0.4820190000000  0.3680360000000  0.5027280000000 1.0
C      1  0.4900050000000  0.5180280000000  0.4895860000000 1.0
END
