TITL C-2158984-8299-268 -0.00309214965927496 3375 -385.323598466003 0 0 60 (Td) n - 1
REM
REM in /scratch/bkarasulu/869
REM
REM
REM
REM
REM
REM ./C.cell (a2850807a9bf4ad07a5b6933b78d9264)
REM AIRSS Version 0.9.1 bugfix July 2018 build 013d7b7c2542+ Fri, 06 Jul 2018 19:26:36 +0100
REM compiler GCC version 9.2.1 20190827 (Red Hat 9.2.1-1)
REM options -cpp -mtune=generic -march=x86-64 -g -O0 -fpre-include=/usr/include/finclude/math-vector-fortran.h
REM seed 2115377726 351312705 849045677 -1734092519 -1434160200 847262168 2074390009 1099135120 -1461360785 -1146132209 1102137558 299017575 550519113 200992288 -1265826476 1098978602 -1689567880 1875108171 -1528960921 -763110243 -209452879 -1960752425 -614540834 1663593497 -1018100172 2095104766 1308901596 1785548365 -1712848114 1309463362 -86471636 211414434 -844749827
REM
CELL 1.54180   15.00000   15.00000   15.00000   90.00000   90.00000   90.00000
LATT -1
SFAC C  
C      1  0.7608210000000  0.5002260000000  0.5712830000000 1.0
C      1  0.5002260000000  0.5712830000000  0.7608210000000 1.0
C      1  0.5712830000000  0.7608210000000  0.5002260000000 1.0
C      1  0.7608210000000  0.4997740000000  0.4287170000000 1.0
C      1  0.2391790000000  0.5002260000000  0.4287170000000 1.0
C      1  0.2391790000000  0.4997740000000  0.5712830000000 1.0
C      1  0.5002260000000  0.4287170000000  0.2391790000000 1.0
C      1  0.4997740000000  0.5712830000000  0.2391790000000 1.0
C      1  0.4997740000000  0.4287170000000  0.7608210000000 1.0
C      1  0.5712830000000  0.2391790000000  0.4997740000000 1.0
C      1  0.4287170000000  0.7608210000000  0.4997740000000 1.0
C      1  0.4287170000000  0.2391790000000  0.5002260000000 1.0
C      1  0.7608210000000  0.5712830000000  0.5002260000000 1.0
C      1  0.5002260000000  0.7608210000000  0.5712830000000 1.0
C      1  0.5712830000000  0.5002260000000  0.7608210000000 1.0
C      1  0.7608210000000  0.4287170000000  0.4997740000000 1.0
C      1  0.2391790000000  0.4287170000000  0.5002260000000 1.0
C      1  0.2391790000000  0.5712830000000  0.4997740000000 1.0
C      1  0.5002260000000  0.2391790000000  0.4287170000000 1.0
C      1  0.4997740000000  0.2391790000000  0.5712830000000 1.0
C      1  0.4997740000000  0.7608210000000  0.4287170000000 1.0
C      1  0.5712830000000  0.4997740000000  0.2391790000000 1.0
C      1  0.4287170000000  0.4997740000000  0.7608210000000 1.0
C      1  0.4287170000000  0.5002260000000  0.2391790000000 1.0
C      1  0.5991260000000  0.5226780000000  0.6703390000000 1.0
C      1  0.5226780000000  0.6703390000000  0.5991260000000 1.0
C      1  0.6703390000000  0.5991260000000  0.5226780000000 1.0
C      1  0.5991260000000  0.4773220000000  0.3296610000000 1.0
C      1  0.4008740000000  0.5226780000000  0.3296610000000 1.0
C      1  0.4008740000000  0.4773220000000  0.6703390000000 1.0
C      1  0.5226780000000  0.3296610000000  0.4008740000000 1.0
C      1  0.4773220000000  0.6703390000000  0.4008740000000 1.0
C      1  0.4773220000000  0.3296610000000  0.5991260000000 1.0
C      1  0.6703390000000  0.4008740000000  0.4773220000000 1.0
C      1  0.3296610000000  0.5991260000000  0.4773220000000 1.0
C      1  0.3296610000000  0.4008740000000  0.5226780000000 1.0
C      1  0.5991260000000  0.6703390000000  0.5226780000000 1.0
C      1  0.5226780000000  0.5991260000000  0.6703390000000 1.0
C      1  0.6703390000000  0.5226780000000  0.5991260000000 1.0
C      1  0.5991260000000  0.3296610000000  0.4773220000000 1.0
C      1  0.4008740000000  0.3296610000000  0.5226780000000 1.0
C      1  0.4008740000000  0.6703390000000  0.4773220000000 1.0
C      1  0.5226780000000  0.4008740000000  0.3296610000000 1.0
C      1  0.4773220000000  0.4008740000000  0.6703390000000 1.0
C      1  0.4773220000000  0.5991260000000  0.3296610000000 1.0
C      1  0.6703390000000  0.4773220000000  0.4008740000000 1.0
C      1  0.3296610000000  0.4773220000000  0.5991260000000 1.0
C      1  0.3296610000000  0.5226780000000  0.4008740000000 1.0
C      1  0.5361690000000  0.6113430000000  0.4638310000000 1.0
C      1  0.6113430000000  0.4638310000000  0.5361690000000 1.0
C      1  0.4638310000000  0.5361690000000  0.6113430000000 1.0
C      1  0.5361690000000  0.3886570000000  0.5361690000000 1.0
C      1  0.4638310000000  0.6113430000000  0.5361690000000 1.0
C      1  0.4638310000000  0.3886570000000  0.4638310000000 1.0
C      1  0.6113430000000  0.5361690000000  0.4638310000000 1.0
C      1  0.3886570000000  0.4638310000000  0.4638310000000 1.0
C      1  0.3886570000000  0.5361690000000  0.5361690000000 1.0
C      1  0.4638310000000  0.4638310000000  0.3886570000000 1.0
C      1  0.5361690000000  0.5361690000000  0.3886570000000 1.0
C      1  0.5361690000000  0.4638310000000  0.6113430000000 1.0
END
