TITL C-2158988-7926-851 0.173587309824996 3375 -401.587003641334 0 0 60 (C1) n - 1
REM
REM in /scratch/bkarasulu/868
REM
REM
REM
REM
REM
REM ./C.cell (a2850807a9bf4ad07a5b6933b78d9264)
REM AIRSS Version 0.9.1 bugfix July 2018 build 013d7b7c2542+ Fri, 06 Jul 2018 19:26:36 +0100
REM compiler GCC version 9.2.1 20190827 (Red Hat 9.2.1-1)
REM options -cpp -mtune=generic -march=x86-64 -g -O0 -fpre-include=/usr/include/finclude/math-vector-fortran.h
REM seed -771428147 -1244563259 1178766485 -1492242176 -311717570 460902943 -146751260 1504270576 1132901725 -571650606 -1213688348 -581823018 667457325 744423713 1313623636 664269598 1378950227 1132905287 -769830017 -1304307706 524059725 1854327062 544781054 71042467 -1469193903 -435244286 -572023128 1587862293 575642473 -1473618067 456787874 -1823730889 -1018994789
REM
CELL 1.54180   15.00000   15.00000   15.00000   90.00000   90.00000   90.00000
LATT -1
SFAC C  
C      1  0.4202220000000  0.3085240000000  0.5250010000000 1.0
C      1  0.5640320000000  0.6932790000000  0.5389460000000 1.0
C      1  0.5473350000000  0.3195700000000  0.3196470000000 1.0
C      1  0.4726180000000  0.7111660000000  0.3082740000000 1.0
C      1  0.4252110000000  0.6340110000000  0.3112170000000 1.0
C      1  0.5715330000000  0.4074770000000  0.3081500000000 1.0
C      1  0.4243040000000  0.3943630000000  0.3502790000000 1.0
C      1  0.5750050000000  0.5971150000000  0.3733630000000 1.0
C      1  0.3659650000000  0.3470370000000  0.6009880000000 1.0
C      1  0.6024710000000  0.6488210000000  0.6129390000000 1.0
C      1  0.2889070000000  0.5882970000000  0.5160580000000 1.0
C      1  0.7233220000000  0.4279720000000  0.5011190000000 1.0
C      1  0.4204280000000  0.6547560000000  0.5001790000000 1.0
C      1  0.5877740000000  0.3563360000000  0.4950890000000 1.0
C      1  0.7092460000000  0.3980480000000  0.5863310000000 1.0
C      1  0.3105000000000  0.6197510000000  0.6022810000000 1.0
C      1  0.3454860000000  0.5808020000000  0.6797280000000 1.0
C      1  0.6808670000000  0.4375820000000  0.6716590000000 1.0
C      1  0.6347020000000  0.3382770000000  0.5811170000000 1.0
C      1  0.3931370000000  0.6713330000000  0.5931750000000 1.0
C      1  0.6118650000000  0.3628860000000  0.6722420000000 1.0
C      1  0.4266660000000  0.6403390000000  0.6790860000000 1.0
C      1  0.6984140000000  0.5063710000000  0.3372940000000 1.0
C      1  0.3462990000000  0.5204410000000  0.3328290000000 1.0
C      1  0.6682820000000  0.5805290000000  0.3819810000000 1.0
C      1  0.3435550000000  0.4363150000000  0.3750850000000 1.0
C      1  0.4989520000000  0.3112020000000  0.4726220000000 1.0
C      1  0.4991430000000  0.6974980000000  0.4714120000000 1.0
C      1  0.3387530000000  0.5096330000000  0.5066940000000 1.0
C      1  0.6687910000000  0.5033730000000  0.5090200000000 1.0
C      1  0.4380910000000  0.5422660000000  0.4900510000000 1.0
C      1  0.5723300000000  0.4700940000000  0.4878770000000 1.0
C      1  0.3733830000000  0.4956520000000  0.7101190000000 1.0
C      1  0.6499250000000  0.5193400000000  0.6941170000000 1.0
C      1  0.5259470000000  0.6799770000000  0.3784380000000 1.0
C      1  0.4756770000000  0.3182620000000  0.3792000000000 1.0
C      1  0.4987380000000  0.5941160000000  0.7226650000000 1.0
C      1  0.5294550000000  0.3990070000000  0.6959900000000 1.0
C      1  0.3884710000000  0.4222930000000  0.6494990000000 1.0
C      1  0.5918440000000  0.5895480000000  0.6877590000000 1.0
C      1  0.3346800000000  0.6422870000000  0.4502940000000 1.0
C      1  0.6690690000000  0.3771840000000  0.4348740000000 1.0
C      1  0.6549020000000  0.4280840000000  0.3514140000000 1.0
C      1  0.3464210000000  0.6100060000000  0.3628380000000 1.0
C      1  0.6879290000000  0.5886810000000  0.4760220000000 1.0
C      1  0.3161400000000  0.4283190000000  0.4650590000000 1.0
C      1  0.3383380000000  0.3490850000000  0.5118610000000 1.0
C      1  0.6491820000000  0.6539480000000  0.5331550000000 1.0
C      1  0.4367540000000  0.5123250000000  0.1823210000000 1.0
C      1  0.5210870000000  0.5211810000000  0.4095600000000 1.0
C      1  0.4992240000000  0.4944460000000  0.5480320000000 1.0
C      1  0.4799540000000  0.4612320000000  0.0265678000000 1.0
C      1  0.5237500000000  0.4178670000000  0.8686220000000 1.0
C      1  0.4554550000000  0.5175500000000  0.7600440000000 1.0
C      1  0.4918520000000  0.4662280000000  0.3316090000000 1.0
C      1  0.4787070000000  0.4454770000000  0.6277200000000 1.0
C      1  0.4582470000000  0.4845080000000  0.1069750000000 1.0
C      1  0.4345790000000  0.5329710000000  0.2745800000000 1.0
C      1  0.5096490000000  0.4356760000000  0.7816250000000 1.0
C      1  0.5002130000000  0.4436530000000  0.9469560000000 1.0
END
