TITL C-2158984-8299-1073 -0.0054997056540693 3375 -398.061572438305 0 0 60 (C1) n - 1
REM
REM in /scratch/bkarasulu/869
REM
REM
REM
REM
REM
REM ./C.cell (a2850807a9bf4ad07a5b6933b78d9264)
REM AIRSS Version 0.9.1 bugfix July 2018 build 013d7b7c2542+ Fri, 06 Jul 2018 19:26:36 +0100
REM compiler GCC version 9.2.1 20190827 (Red Hat 9.2.1-1)
REM options -cpp -mtune=generic -march=x86-64 -g -O0 -fpre-include=/usr/include/finclude/math-vector-fortran.h
REM seed 1992015739 -1746595786 -664199614 693509782 -748622139 1290975424 -813725275 -16003486 -2089349647 1353426325 844307113 -1073343192 614108308 1405712260 -1061648785 -125818062 -725571028 -2010079650 1711682995 -44279727 304597214 -547461484 1968980865 1597944108 41584066 -2117403276 -1686640585 -2043439248 -1787425644 -524989221 -2143966950 979443972 -1719697594
REM
CELL 1.54180   15.00000   15.00000   15.00000   90.00000   90.00000   90.00000
LATT -1
SFAC C  
C      1  0.7546220000000  0.6000290000000  0.5990980000000 1.0
C      1  0.2283340000000  0.3871310000000  0.5975090000000 1.0
C      1  0.7459720000000  0.3965130000000  0.5758070000000 1.0
C      1  0.2373960000000  0.5706990000000  0.5873500000000 1.0
C      1  0.3887860000000  0.3239470000000  0.7132400000000 1.0
C      1  0.5484310000000  0.6465790000000  0.6738950000000 1.0
C      1  0.3949990000000  0.6488010000000  0.6750900000000 1.0
C      1  0.5455870000000  0.3311300000000  0.6844560000000 1.0
C      1  0.4717300000000  0.4361360000000  0.3986380000000 1.0
C      1  0.6175720000000  0.6587180000000  0.3420330000000 1.0
C      1  0.4165330000000  0.5723270000000  0.3300130000000 1.0
C      1  0.5688700000000  0.4249600000000  0.4226770000000 1.0
C      1  0.3564170000000  0.4075150000000  0.7078910000000 1.0
C      1  0.6160570000000  0.5897690000000  0.6923370000000 1.0
C      1  0.3595920000000  0.5688830000000  0.6934530000000 1.0
C      1  0.6157410000000  0.3891700000000  0.6846140000000 1.0
C      1  0.7698980000000  0.4579290000000  0.5203500000000 1.0
C      1  0.2655930000000  0.5204090000000  0.5110060000000 1.0
C      1  0.7387700000000  0.5450860000000  0.5216110000000 1.0
C      1  0.2217060000000  0.4374930000000  0.5286520000000 1.0
C      1  0.7020390000000  0.6107890000000  0.6630370000000 1.0
C      1  0.2782640000000  0.4361110000000  0.6638530000000 1.0
C      1  0.6914330000000  0.3704750000000  0.6358770000000 1.0
C      1  0.2777060000000  0.5343120000000  0.6602420000000 1.0
C      1  0.4227870000000  0.4555530000000  0.4849790000000 1.0
C      1  0.6252010000000  0.6461250000000  0.4394320000000 1.0
C      1  0.3821460000000  0.5996640000000  0.4148530000000 1.0
C      1  0.5862920000000  0.4888020000000  0.4920120000000 1.0
C      1  0.4338690000000  0.6057410000000  0.2379050000000 1.0
C      1  0.6068730000000  0.3980680000000  0.3372750000000 1.0
C      1  0.4963410000000  0.3938560000000  0.2095420000000 1.0
C      1  0.6031170000000  0.6058020000000  0.2612730000000 1.0
C      1  0.5542390000000  0.7022440000000  0.4780890000000 1.0
C      1  0.4028000000000  0.3569530000000  0.5085380000000 1.0
C      1  0.4648250000000  0.2370430000000  0.4889360000000 1.0
C      1  0.4221410000000  0.6809790000000  0.4542460000000 1.0
C      1  0.4397030000000  0.4456410000000  0.1541590000000 1.0
C      1  0.6124490000000  0.5129670000000  0.2384460000000 1.0
C      1  0.4499170000000  0.5292150000000  0.1846480000000 1.0
C      1  0.6602490000000  0.4434450000000  0.2806810000000 1.0
C      1  0.4646560000000  0.3009760000000  0.6621330000000 1.0
C      1  0.4731980000000  0.6762020000000  0.6328070000000 1.0
C      1  0.5171390000000  0.6513170000000  0.2487630000000 1.0
C      1  0.5215710000000  0.3514260000000  0.2896980000000 1.0
C      1  0.4780620000000  0.6904520000000  0.5370840000000 1.0
C      1  0.4480570000000  0.2951080000000  0.5658020000000 1.0
C      1  0.3477620000000  0.5246540000000  0.4643280000000 1.0
C      1  0.6539450000000  0.5628390000000  0.4823790000000 1.0
C      1  0.4242190000000  0.4905700000000  0.7045400000000 1.0
C      1  0.5745260000000  0.4919300000000  0.7007120000000 1.0
C      1  0.4547040000000  0.3482160000000  0.3567800000000 1.0
C      1  0.5352080000000  0.7112520000000  0.3229210000000 1.0
C      1  0.4270980000000  0.2954220000000  0.4265330000000 1.0
C      1  0.4934710000000  0.7253160000000  0.4028860000000 1.0
C      1  0.5021000000000  0.4983400000000  0.8655150000000 1.0
C      1  0.4997250000000  0.4928560000000  0.6346560000000 1.0
C      1  0.5029080000000  0.4950750000000  0.5427690000000 1.0
C      1  0.5185450000000  0.4848330000000  0.2478630000000 1.0
C      1  0.5027800000000  0.4918860000000  0.7770750000000 1.0
C      1  0.4699290000000  0.5010160000000  0.3323630000000 1.0
END
