TITL C-2159255-4746-257 -0.00172004492991027 3375 -410.024558586433 0 0 60 (C1) n - 1
REM
REM in /scratch/bkarasulu/871
REM
REM
REM
REM
REM
REM ./C.cell (a2850807a9bf4ad07a5b6933b78d9264)
REM AIRSS Version 0.9.1 bugfix July 2018 build 013d7b7c2542+ Fri, 06 Jul 2018 19:26:36 +0100
REM compiler GCC version 9.2.1 20190827 (Red Hat 9.2.1-1)
REM options -cpp -mtune=generic -march=x86-64 -g -O0 -fpre-include=/usr/include/finclude/math-vector-fortran.h
REM seed -1187012590 58816753 560619215 1403401794 195424223 1927080934 -730712129 -1057588052 -312466630 112017208 209123546 1123735505 -1019165820 -1344822781 -888372300 -1105850993 -844777639 -495890725 365953321 1946500752 833019180 451764021 1294101645 -1068297749 -1140325558 1573100582 733245461 -885174295 -1745744857 383351265 -1243136737 2086121675 1504306814
REM
CELL 1.54180   15.00000   15.00000   15.00000   90.00000   90.00000   90.00000
LATT -1
SFAC C  
C      1  0.6736780000000  0.4107060000000  0.5064790000000 1.0
C      1  0.4733670000000  0.7423900000000  0.5617260000000 1.0
C      1  0.5641450000000  0.7476390000000  0.5285600000000 1.0
C      1  0.6571960000000  0.3133890000000  0.3419070000000 1.0
C      1  0.5634520000000  0.3314010000000  0.3796970000000 1.0
C      1  0.3089310000000  0.3952160000000  0.5404870000000 1.0
C      1  0.6647320000000  0.5003590000000  0.6307110000000 1.0
C      1  0.4968610000000  0.6149760000000  0.3495070000000 1.0
C      1  0.3271490000000  0.6242800000000  0.6038000000000 1.0
C      1  0.5943700000000  0.5962180000000  0.3745610000000 1.0
C      1  0.4855200000000  0.2708280000000  0.3946690000000 1.0
C      1  0.3988370000000  0.6487430000000  0.6628210000000 1.0
C      1  0.6717350000000  0.4085320000000  0.5990250000000 1.0
C      1  0.3194470000000  0.4589440000000  0.3970560000000 1.0
C      1  0.5466560000000  0.4727120000000  0.4679150000000 1.0
C      1  0.5717700000000  0.5274320000000  0.6225380000000 1.0
C      1  0.4078020000000  0.3010460000000  0.3423120000000 1.0
C      1  0.4232030000000  0.6850310000000  0.4932980000000 1.0
C      1  0.2784720000000  0.5229280000000  0.4595830000000 1.0
C      1  0.3951150000000  0.4132290000000  0.6768300000000 1.0
C      1  0.7083670000000  0.6472180000000  0.5586940000000 1.0
C      1  0.3752730000000  0.3613490000000  0.5985400000000 1.0
C      1  0.6900410000000  0.4731090000000  0.3641230000000 1.0
C      1  0.7489910000000  0.5670080000000  0.5066630000000 1.0
C      1  0.6230550000000  0.6802090000000  0.5636690000000 1.0
C      1  0.2982100000000  0.5356540000000  0.6215440000000 1.0
C      1  0.6983510000000  0.4987490000000  0.4591580000000 1.0
C      1  0.6098920000000  0.5475410000000  0.4668580000000 1.0
C      1  0.3289500000000  0.6579020000000  0.5136380000000 1.0
C      1  0.7033180000000  0.3862410000000  0.3374890000000 1.0
C      1  0.5071280000000  0.5203170000000  0.7024760000000 1.0
C      1  0.4629470000000  0.5212690000000  0.4701900000000 1.0
C      1  0.4289880000000  0.2657150000000  0.4741630000000 1.0
C      1  0.4624600000000  0.5348350000000  0.3108500000000 1.0
C      1  0.6259770000000  0.6773840000000  0.4048800000000 1.0
C      1  0.4738120000000  0.6882450000000  0.4094770000000 1.0
C      1  0.4342970000000  0.5032120000000  0.5539190000000 1.0
C      1  0.5578500000000  0.7275640000000  0.4369090000000 1.0
C      1  0.4280290000000  0.3849240000000  0.3055320000000 1.0
C      1  0.3502790000000  0.2956040000000  0.4188240000000 1.0
C      1  0.6237710000000  0.5213010000000  0.3190050000000 1.0
C      1  0.5421140000000  0.4820080000000  0.2881890000000 1.0
C      1  0.5984600000000  0.3539500000000  0.6309460000000 1.0
C      1  0.3891600000000  0.4690790000000  0.3288530000000 1.0
C      1  0.3566800000000  0.4989470000000  0.6849300000000 1.0
C      1  0.5202030000000  0.4576860000000  0.5680110000000 1.0
C      1  0.5215320000000  0.3926960000000  0.3037220000000 1.0
C      1  0.5524720000000  0.3650570000000  0.7086990000000 1.0
C      1  0.4842920000000  0.4242650000000  0.7118940000000 1.0
C      1  0.4806540000000  0.6042610000000  0.5171290000000 1.0
C      1  0.4448910000000  0.7271010000000  0.6451790000000 1.0
C      1  0.2685500000000  0.6143130000000  0.4605580000000 1.0
C      1  0.3162590000000  0.3773480000000  0.4471340000000 1.0
C      1  0.5840930000000  0.3787800000000  0.4686810000000 1.0
C      1  0.5712290000000  0.5984380000000  0.5494460000000 1.0
C      1  0.2757360000000  0.4826490000000  0.5475320000000 1.0
C      1  0.4463510000000  0.3112560000000  0.5543680000000 1.0
C      1  0.4250170000000  0.5645190000000  0.7025330000000 1.0
C      1  0.5344390000000  0.3528690000000  0.5562910000000 1.0
C      1  0.7254430000000  0.5634310000000  0.5958190000000 1.0
END
