TITL C-2158988-7926-368 -0.00278007521174718 3375 -396.626537677965 0 0 60 (C1) n - 1
REM
REM in /scratch/bkarasulu/868
REM
REM
REM
REM
REM
REM ./C.cell (a2850807a9bf4ad07a5b6933b78d9264)
REM AIRSS Version 0.9.1 bugfix July 2018 build 013d7b7c2542+ Fri, 06 Jul 2018 19:26:36 +0100
REM compiler GCC version 9.2.1 20190827 (Red Hat 9.2.1-1)
REM options -cpp -mtune=generic -march=x86-64 -g -O0 -fpre-include=/usr/include/finclude/math-vector-fortran.h
REM seed -1691070655 1635270212 948072880 821336040 76337181 1555774984 1053703532 333135153 1877939899 1555494033 945514949 727958533 88462314 196148997 1208207452 1544925705 431396610 930327446 1472846990 217149640 -1989534317 2125458860 -1968673150 -897684683 -929867003 -1136223866 -363248536 -752074413 1910995329 639288331 1420291617 -1279668008 130184008
REM
CELL 1.54180   15.00000   15.00000   15.00000   90.00000   90.00000   90.00000
LATT -1
SFAC C  
C      1  0.2843650000000  0.4195710000000  0.6365990000000 1.0
C      1  0.2532680000000  0.4038560000000  0.4649940000000 1.0
C      1  0.2953560000000  0.3770380000000  0.3831620000000 1.0
C      1  0.2650080000000  0.5314550000000  0.3739270000000 1.0
C      1  0.2703820000000  0.6851240000000  0.4402940000000 1.0
C      1  0.2862790000000  0.6593000000000  0.6030150000000 1.0
C      1  0.2607690000000  0.5069190000000  0.6459660000000 1.0
C      1  0.7600320000000  0.5998480000000  0.6230340000000 1.0
C      1  0.7676770000000  0.4219600000000  0.6179980000000 1.0
C      1  0.7704040000000  0.3617000000000  0.5388430000000 1.0
C      1  0.7690350000000  0.3658720000000  0.4408600000000 1.0
C      1  0.7656880000000  0.5034480000000  0.3437670000000 1.0
C      1  0.7640930000000  0.5950100000000  0.3792730000000 1.0
C      1  0.7579880000000  0.6563760000000  0.5445580000000 1.0
C      1  0.6082890000000  0.6003250000000  0.5662800000000 1.0
C      1  0.6215110000000  0.5062590000000  0.6148840000000 1.0
C      1  0.6133620000000  0.4042210000000  0.5803940000000 1.0
C      1  0.6159120000000  0.3727930000000  0.4812300000000 1.0
C      1  0.6281560000000  0.4343540000000  0.3922210000000 1.0
C      1  0.6158440000000  0.5410710000000  0.3805100000000 1.0
C      1  0.6190740000000  0.6125280000000  0.4601820000000 1.0
C      1  0.5293860000000  0.3684330000000  0.6170960000000 1.0
C      1  0.5315770000000  0.3206490000000  0.4702330000000 1.0
C      1  0.5516730000000  0.4013510000000  0.3365440000000 1.0
C      1  0.5368790000000  0.5580310000000  0.3279440000000 1.0
C      1  0.5419600000000  0.6712740000000  0.4394650000000 1.0
C      1  0.5270590000000  0.6422690000000  0.5961810000000 1.0
C      1  0.5471120000000  0.5109340000000  0.6804610000000 1.0
C      1  0.4877310000000  0.6371080000000  0.3599750000000 1.0
C      1  0.4890550000000  0.6948900000000  0.5220140000000 1.0
C      1  0.4866080000000  0.5904410000000  0.6697540000000 1.0
C      1  0.5013120000000  0.4238770000000  0.6893320000000 1.0
C      1  0.4694970000000  0.3256100000000  0.5491320000000 1.0
C      1  0.5043270000000  0.3249230000000  0.3787530000000 1.0
C      1  0.4937600000000  0.4739410000000  0.3021050000000 1.0
C      1  0.7262760000000  0.5105440000000  0.6041450000000 1.0
C      1  0.7037420000000  0.3577300000000  0.6111930000000 1.0
C      1  0.7024150000000  0.3214170000000  0.4859960000000 1.0
C      1  0.7280600000000  0.4249330000000  0.3777560000000 1.0
C      1  0.6999600000000  0.5643700000000  0.3223350000000 1.0
C      1  0.7234950000000  0.6087590000000  0.4669870000000 1.0
C      1  0.6911390000000  0.6578150000000  0.6065240000000 1.0
C      1  0.3119820000000  0.5874830000000  0.6571400000000 1.0
C      1  0.3375330000000  0.3858170000000  0.7104600000000 1.0
C      1  0.2993870000000  0.3708940000000  0.5497250000000 1.0
C      1  0.3362760000000  0.2957190000000  0.3685390000000 1.0
C      1  0.3223160000000  0.4589140000000  0.3341780000000 1.0
C      1  0.3089070000000  0.6245000000000  0.3798260000000 1.0
C      1  0.3157930000000  0.6977150000000  0.5246460000000 1.0
C      1  0.4047100000000  0.7265390000000  0.5204260000000 1.0
C      1  0.3988460000000  0.5913560000000  0.6942870000000 1.0
C      1  0.4158900000000  0.4116430000000  0.7237210000000 1.0
C      1  0.3798100000000  0.3282630000000  0.5451100000000 1.0
C      1  0.4199550000000  0.2995930000000  0.3576040000000 1.0
C      1  0.4033450000000  0.4716400000000  0.3001180000000 1.0
C      1  0.3975060000000  0.6346490000000  0.3536370000000 1.0
C      1  0.2199600000000  0.4898920000000  0.4437890000000 1.0
C      1  0.7204310000000  0.5168790000000  0.5059810000000 1.0
C      1  0.4266150000000  0.5100000000000  0.5033770000000 1.0
C      1  0.4972080000000  0.4804560000000  0.4762290000000 1.0
END
