TITL C-2158988-7926-571 -0.00288572129702592 3375 -420.423562537101 0 0 60 (C1) n - 1
REM
REM in /scratch/bkarasulu/868
REM
REM
REM
REM
REM
REM ./C.cell (a2850807a9bf4ad07a5b6933b78d9264)
REM AIRSS Version 0.9.1 bugfix July 2018 build 013d7b7c2542+ Fri, 06 Jul 2018 19:26:36 +0100
REM compiler GCC version 9.2.1 20190827 (Red Hat 9.2.1-1)
REM options -cpp -mtune=generic -march=x86-64 -g -O0 -fpre-include=/usr/include/finclude/math-vector-fortran.h
REM seed 709451319 505786889 1946138103 -1121614493 659282835 -721122927 156932208 -3186337 1600502299 -121440597 232354890 771487533 -1432517946 980489829 1131779920 811371472 -1896567790 -1591366883 -1008252736 -687129714 197337569 1644547336 441269782 -512131076 1208623386 -1223969374 -1751056774 -1751145708 1823823277 -668978443 -30039230 -1876625858 -1739646077
REM
CELL 1.54180   15.00000   15.00000   15.00000   90.00000   90.00000   90.00000
LATT -1
SFAC C  
C      1  0.4433010000000  0.6986800000000  0.6357110000000 1.0
C      1  0.4469200000000  0.6287560000000  0.7007680000000 1.0
C      1  0.4558320000000  0.4560150000000  0.7324190000000 1.0
C      1  0.4148460000000  0.3231370000000  0.6787230000000 1.0
C      1  0.4305560000000  0.2753110000000  0.5998640000000 1.0
C      1  0.4414940000000  0.2681340000000  0.4248270000000 1.0
C      1  0.4431400000000  0.3130770000000  0.3406930000000 1.0
C      1  0.4443610000000  0.4709480000000  0.2571370000000 1.0
C      1  0.4441430000000  0.5654890000000  0.2652240000000 1.0
C      1  0.4424710000000  0.7056390000000  0.3729130000000 1.0
C      1  0.4423300000000  0.7378510000000  0.4621820000000 1.0
C      1  0.3751420000000  0.6469470000000  0.5818850000000 1.0
C      1  0.3806980000000  0.5728970000000  0.6515240000000 1.0
C      1  0.3818560000000  0.4795290000000  0.6702010000000 1.0
C      1  0.3563380000000  0.3920070000000  0.6319130000000 1.0
C      1  0.3621380000000  0.3357060000000  0.5497230000000 1.0
C      1  0.3688490000000  0.3303620000000  0.4583680000000 1.0
C      1  0.3722480000000  0.3790570000000  0.3709310000000 1.0
C      1  0.3735410000000  0.4613170000000  0.3283880000000 1.0
C      1  0.3736170000000  0.5624670000000  0.3373690000000 1.0
C      1  0.3732220000000  0.6355830000000  0.3945110000000 1.0
C      1  0.3741840000000  0.6692200000000  0.4911380000000 1.0
C      1  0.6676330000000  0.4634820000000  0.3348530000000 1.0
C      1  0.6689380000000  0.5641360000000  0.3414830000000 1.0
C      1  0.6692150000000  0.6392480000000  0.3950100000000 1.0
C      1  0.6693200000000  0.6764920000000  0.4885580000000 1.0
C      1  0.6701940000000  0.6584870000000  0.5790830000000 1.0
C      1  0.6702840000000  0.5879620000000  0.6493240000000 1.0
C      1  0.6680650000000  0.4942600000000  0.6499820000000 1.0
C      1  0.6706500000000  0.4486810000000  0.5668740000000 1.0
C      1  0.6578150000000  0.3550010000000  0.5547360000000 1.0
C      1  0.6623400000000  0.3314850000000  0.4647290000000 1.0
C      1  0.6664150000000  0.3819990000000  0.3785950000000 1.0
C      1  0.5217010000000  0.6931730000000  0.3234890000000 1.0
C      1  0.5208530000000  0.7613460000000  0.5078480000000 1.0
C      1  0.5210420000000  0.7399470000000  0.6014140000000 1.0
C      1  0.5294610000000  0.5987160000000  0.7364650000000 1.0
C      1  0.5344190000000  0.5051000000000  0.7441030000000 1.0
C      1  0.4825160000000  0.3650150000000  0.7226020000000 1.0
C      1  0.5188390000000  0.2625320000000  0.5683540000000 1.0
C      1  0.5203130000000  0.2461640000000  0.4733340000000 1.0
C      1  0.5228680000000  0.3361740000000  0.2962960000000 1.0
C      1  0.5236820000000  0.4208050000000  0.2506160000000 1.0
C      1  0.5230400000000  0.6166840000000  0.2658290000000 1.0
C      1  0.5989700000000  0.2688140000000  0.4273380000000 1.0
C      1  0.6006150000000  0.3154070000000  0.3436380000000 1.0
C      1  0.6025080000000  0.4715500000000  0.2604510000000 1.0
C      1  0.6025310000000  0.5662920000000  0.2670870000000 1.0
C      1  0.6005570000000  0.7081770000000  0.3720880000000 1.0
C      1  0.6002880000000  0.7422670000000  0.4605510000000 1.0
C      1  0.6023100000000  0.7070760000000  0.6343200000000 1.0
C      1  0.6061250000000  0.6392490000000  0.7015130000000 1.0
C      1  0.6078610000000  0.4515010000000  0.7105880000000 1.0
C      1  0.5735370000000  0.3624430000000  0.6924730000000 1.0
C      1  0.5922860000000  0.3131120000000  0.6117720000000 1.0
C      1  0.4526550000000  0.5003820000000  0.4954480000000 1.0
C      1  0.5369730000000  0.5083640000000  0.4919720000000 1.0
C      1  0.3620000000000  0.5011940000000  0.4962270000000 1.0
C      1  0.2781490000000  0.5001140000000  0.4971910000000 1.0
C      1  0.6326940000000  0.4936040000000  0.4951870000000 1.0
END
