TITL C-2158984-8299-611 -0.00291427287259466 3375 -407.221688333208 0 0 60 (D3) n - 1
REM
REM in /scratch/bkarasulu/869
REM
REM
REM
REM
REM
REM ./C.cell (a2850807a9bf4ad07a5b6933b78d9264)
REM AIRSS Version 0.9.1 bugfix July 2018 build 013d7b7c2542+ Fri, 06 Jul 2018 19:26:36 +0100
REM compiler GCC version 9.2.1 20190827 (Red Hat 9.2.1-1)
REM options -cpp -mtune=generic -march=x86-64 -g -O0 -fpre-include=/usr/include/finclude/math-vector-fortran.h
REM seed 147581248 -1241253559 1333933779 -733791857 -2103372675 1034497567 1553021390 1483432923 1656553798 -1895439636 1124245131 -1725131703 1001465581 -2037431952 -1095856609 -558254287 -117626252 498014566 -260455002 -1284684038 2092299475 -705492001 2044647449 2103064600 1234845988 -1943384753 -1108074568 595807535 1527528817 -1700960546 -738037028 -1741020761 334518691
REM
CELL 1.54180   15.00000   15.00000   15.00000   90.00000   90.00000   90.00000
LATT -1
SFAC C  
C      1  0.3684990000000  0.5557650000000  0.7029370000000 1.0
C      1  0.3900000000000  0.5557670000000  0.2846490000000 1.0
C      1  0.7415020000000  0.5557770000000  0.5124150000000 1.0
C      1  0.6315010000000  0.4442350000000  0.7029370000000 1.0
C      1  0.6100000000000  0.4442330000000  0.2846490000000 1.0
C      1  0.2584980000000  0.4442230000000  0.5124150000000 1.0
C      1  0.5399210000000  0.7300400000000  0.5353050000000 1.0
C      1  0.4494520000000  0.7300360000000  0.5169270000000 1.0
C      1  0.5106020000000  0.7300390000000  0.4477670000000 1.0
C      1  0.4600790000000  0.2699600000000  0.5353050000000 1.0
C      1  0.5505480000000  0.2699640000000  0.5169270000000 1.0
C      1  0.4893980000000  0.2699610000000  0.4477670000000 1.0
C      1  0.5705360000000  0.4014070000000  0.4328050000000 1.0
C      1  0.5229290000000  0.4014040000000  0.5946810000000 1.0
C      1  0.4065420000000  0.4014010000000  0.4725140000000 1.0
C      1  0.4294640000000  0.5985930000000  0.4328050000000 1.0
C      1  0.4770710000000  0.5985960000000  0.5946810000000 1.0
C      1  0.5934580000000  0.5985990000000  0.4725140000000 1.0
C      1  0.7045980000000  0.5457710000000  0.6000280000000 1.0
C      1  0.3110730000000  0.5457570000000  0.6271730000000 1.0
C      1  0.4843270000000  0.5457630000000  0.2727980000000 1.0
C      1  0.2954020000000  0.4542290000000  0.6000280000000 1.0
C      1  0.6889270000000  0.4542430000000  0.6271730000000 1.0
C      1  0.5156730000000  0.4542370000000  0.2727980000000 1.0
C      1  0.6987960000000  0.6191200000000  0.3590100000000 1.0
C      1  0.5226990000000  0.6191170000000  0.7426610000000 1.0
C      1  0.2784950000000  0.6191060000000  0.3983320000000 1.0
C      1  0.3012040000000  0.3808800000000  0.3590100000000 1.0
C      1  0.4773010000000  0.3808830000000  0.7426610000000 1.0
C      1  0.7215050000000  0.3808940000000  0.3983320000000 1.0
C      1  0.6381740000000  0.4012640000000  0.3675980000000 1.0
C      1  0.5455810000000  0.4012610000000  0.6858610000000 1.0
C      1  0.3162510000000  0.4012540000000  0.4465430000000 1.0
C      1  0.3618260000000  0.5987360000000  0.3675980000000 1.0
C      1  0.4544190000000  0.5987390000000  0.6858610000000 1.0
C      1  0.6837490000000  0.5987460000000  0.4465430000000 1.0
C      1  0.6385460000000  0.5911910000000  0.2962950000000 1.0
C      1  0.6071370000000  0.5911920000000  0.7218380000000 1.0
C      1  0.2543060000000  0.5911770000000  0.4818670000000 1.0
C      1  0.3614540000000  0.4088090000000  0.2962950000000 1.0
C      1  0.3928630000000  0.4088080000000  0.7218380000000 1.0
C      1  0.7456940000000  0.4088230000000  0.4818670000000 1.0
C      1  0.4318450000000  0.3778000000000  0.5643210000000 1.0
C      1  0.4783780000000  0.3778020000000  0.4088120000000 1.0
C      1  0.5897880000000  0.3778050000000  0.5268660000000 1.0
C      1  0.5681550000000  0.6222000000000  0.5643210000000 1.0
C      1  0.5216220000000  0.6221980000000  0.4088120000000 1.0
C      1  0.4102120000000  0.6221950000000  0.5268660000000 1.0
C      1  0.5448510000000  0.6023530000000  0.3169250000000 1.0
C      1  0.6361180000000  0.6023570000000  0.6303810000000 1.0
C      1  0.3190210000000  0.6023450000000  0.5526920000000 1.0
C      1  0.4551490000000  0.3976470000000  0.3169250000000 1.0
C      1  0.3638820000000  0.3976430000000  0.6303810000000 1.0
C      1  0.6809790000000  0.3976550000000  0.5526920000000 1.0
C      1  0.6374950000000  0.5144610000000  0.7620520000000 1.0
C      1  0.2043000000000  0.5144450000000  0.4880520000000 1.0
C      1  0.6581940000000  0.5144600000000  0.2498980000000 1.0
C      1  0.3625050000000  0.4855390000000  0.7620520000000 1.0
C      1  0.7957000000000  0.4855550000000  0.4880520000000 1.0
C      1  0.3418060000000  0.4855400000000  0.2498980000000 1.0
END
