TITL C-2159255-4746-1078 -0.00203291117150183 3375 -389.031778936882 0 0 60 (Td) n - 1
REM
REM in /scratch/bkarasulu/871
REM
REM
REM
REM
REM
REM ./C.cell (a2850807a9bf4ad07a5b6933b78d9264)
REM AIRSS Version 0.9.1 bugfix July 2018 build 013d7b7c2542+ Fri, 06 Jul 2018 19:26:36 +0100
REM compiler GCC version 9.2.1 20190827 (Red Hat 9.2.1-1)
REM options -cpp -mtune=generic -march=x86-64 -g -O0 -fpre-include=/usr/include/finclude/math-vector-fortran.h
REM seed 2100124210 1710580077 -1882618748 1234494969 1037376752 702001413 346628403 -2098052536 -279804644 1149283189 299353390 906081410 1076615042 -1026592060 852676196 -1624017479 1721399074 -30533309 -1170064447 -613644194 846011434 -43629870 -1990434162 950414813 449603754 -1634315921 -2070833494 -1290823806 1387874924 193412836 -1563805229 -536470921 518681225
REM
CELL 1.54180   15.00000   15.00000   15.00000   90.00000   90.00000   90.00000
LATT -1
SFAC C  
C      1  0.6646190000000  0.4057670000000  0.5251850000000 1.0
C      1  0.4057670000000  0.5251850000000  0.6646190000000 1.0
C      1  0.5251850000000  0.6646190000000  0.4057670000000 1.0
C      1  0.3353810000000  0.4057670000000  0.4748150000000 1.0
C      1  0.3353810000000  0.5942330000000  0.5251850000000 1.0
C      1  0.6646190000000  0.5942330000000  0.4748150000000 1.0
C      1  0.5942330000000  0.5251850000000  0.3353810000000 1.0
C      1  0.5942330000000  0.4748150000000  0.6646190000000 1.0
C      1  0.4057670000000  0.4748150000000  0.3353810000000 1.0
C      1  0.4748150000000  0.6646190000000  0.5942330000000 1.0
C      1  0.4748150000000  0.3353810000000  0.4057670000000 1.0
C      1  0.5251850000000  0.3353810000000  0.5942330000000 1.0
C      1  0.5251850000000  0.4057670000000  0.6646190000000 1.0
C      1  0.6646190000000  0.5251850000000  0.4057670000000 1.0
C      1  0.4057670000000  0.6646190000000  0.5251850000000 1.0
C      1  0.4748150000000  0.4057670000000  0.3353810000000 1.0
C      1  0.5251850000000  0.5942330000000  0.3353810000000 1.0
C      1  0.4748150000000  0.5942330000000  0.6646190000000 1.0
C      1  0.3353810000000  0.5251850000000  0.5942330000000 1.0
C      1  0.6646190000000  0.4748150000000  0.5942330000000 1.0
C      1  0.3353810000000  0.4748150000000  0.4057670000000 1.0
C      1  0.5942330000000  0.6646190000000  0.4748150000000 1.0
C      1  0.4057670000000  0.3353810000000  0.4748150000000 1.0
C      1  0.5942330000000  0.3353810000000  0.5251850000000 1.0
C      1  0.5841820000000  0.3472710000000  0.7215360000000 1.0
C      1  0.3472710000000  0.7215360000000  0.5841820000000 1.0
C      1  0.7215360000000  0.5841820000000  0.3472710000000 1.0
C      1  0.4158180000000  0.3472710000000  0.2784640000000 1.0
C      1  0.4158180000000  0.6527290000000  0.7215360000000 1.0
C      1  0.5841820000000  0.6527290000000  0.2784640000000 1.0
C      1  0.6527290000000  0.7215360000000  0.4158180000000 1.0
C      1  0.6527290000000  0.2784640000000  0.5841820000000 1.0
C      1  0.3472710000000  0.2784640000000  0.4158180000000 1.0
C      1  0.2784640000000  0.5841820000000  0.6527290000000 1.0
C      1  0.2784640000000  0.4158180000000  0.3472710000000 1.0
C      1  0.7215360000000  0.4158180000000  0.6527290000000 1.0
C      1  0.7215360000000  0.3472710000000  0.5841820000000 1.0
C      1  0.5841820000000  0.7215360000000  0.3472710000000 1.0
C      1  0.3472710000000  0.5841820000000  0.7215360000000 1.0
C      1  0.2784640000000  0.3472710000000  0.4158180000000 1.0
C      1  0.7215360000000  0.6527290000000  0.4158180000000 1.0
C      1  0.2784640000000  0.6527290000000  0.5841820000000 1.0
C      1  0.4158180000000  0.7215360000000  0.6527290000000 1.0
C      1  0.5841820000000  0.2784640000000  0.6527290000000 1.0
C      1  0.4158180000000  0.2784640000000  0.3472710000000 1.0
C      1  0.6527290000000  0.5841820000000  0.2784640000000 1.0
C      1  0.3472710000000  0.4158180000000  0.2784640000000 1.0
C      1  0.6527290000000  0.4158180000000  0.7215360000000 1.0
C      1  0.4297260000000  0.4297260000000  0.6422210000000 1.0
C      1  0.4297260000000  0.5702740000000  0.3577790000000 1.0
C      1  0.5702740000000  0.4297260000000  0.3577790000000 1.0
C      1  0.4297260000000  0.6422210000000  0.4297260000000 1.0
C      1  0.5702740000000  0.3577790000000  0.4297260000000 1.0
C      1  0.6422210000000  0.4297260000000  0.4297260000000 1.0
C      1  0.5702740000000  0.5702740000000  0.6422210000000 1.0
C      1  0.5702740000000  0.6422210000000  0.5702740000000 1.0
C      1  0.4297260000000  0.3577790000000  0.5702740000000 1.0
C      1  0.3577790000000  0.4297260000000  0.5702740000000 1.0
C      1  0.3577790000000  0.5702740000000  0.4297260000000 1.0
C      1  0.6422210000000  0.5702740000000  0.5702740000000 1.0
END
