TITL C-2159255-4746-1262 -0.00148423976108005 3375 -402.046110488649 0 0 60 (C2h) n - 1
REM
REM in /scratch/bkarasulu/871
REM
REM
REM
REM
REM
REM ./C.cell (a2850807a9bf4ad07a5b6933b78d9264)
REM AIRSS Version 0.9.1 bugfix July 2018 build 013d7b7c2542+ Fri, 06 Jul 2018 19:26:36 +0100
REM compiler GCC version 9.2.1 20190827 (Red Hat 9.2.1-1)
REM options -cpp -mtune=generic -march=x86-64 -g -O0 -fpre-include=/usr/include/finclude/math-vector-fortran.h
REM seed -829307191 595612854 444982412 262744346 491819795 1846286776 -1772000627 613242147 173773723 845326530 1958089221 1103099824 -920905510 308623945 -701841469 -788154086 -1559467864 -1200683697 1780394719 -813837580 -1977322592 1330371617 795558184 1125802987 -1648211799 -1876671914 1591992983 461077356 -221460588 390050408 -388301739 1375935012 -1402317903
REM
CELL 1.54180   15.00000   15.00000   15.00000   90.00000   90.00000   90.00000
LATT -1
SFAC C  
C      1  0.4481350000000  0.4516580000000  0.2632960000000 1.0
C      1  0.5518650000000  0.4516580000000  0.7367040000000 1.0
C      1  0.4481350000000  0.5483420000000  0.2632960000000 1.0
C      1  0.5518650000000  0.5483420000000  0.7367040000000 1.0
C      1  0.4028680000000  0.5948240000000  0.3321630000000 1.0
C      1  0.5971320000000  0.5948240000000  0.6678370000000 1.0
C      1  0.4028680000000  0.4051760000000  0.3321630000000 1.0
C      1  0.5971320000000  0.4051760000000  0.6678370000000 1.0
C      1  0.4161740000000  0.3113120000000  0.6751920000000 1.0
C      1  0.5838260000000  0.3113120000000  0.3248080000000 1.0
C      1  0.4161740000000  0.6886880000000  0.6751920000000 1.0
C      1  0.5838260000000  0.6886880000000  0.3248080000000 1.0
C      1  0.6979290000000  0.5473190000000  0.4731990000000 1.0
C      1  0.3020710000000  0.5473190000000  0.5268010000000 1.0
C      1  0.6979290000000  0.4526810000000  0.4731990000000 1.0
C      1  0.3020710000000  0.4526810000000  0.5268010000000 1.0
C      1  0.3939600000000  0.3246350000000  0.4634520000000 1.0
C      1  0.6060400000000  0.3246350000000  0.5365480000000 1.0
C      1  0.3939600000000  0.6753650000000  0.4634520000000 1.0
C      1  0.6060400000000  0.6753650000000  0.5365480000000 1.0
C      1  0.3924160000000  0.4475780000000  0.5725420000000 1.0
C      1  0.6075840000000  0.4475780000000  0.4274580000000 1.0
C      1  0.3924160000000  0.5524220000000  0.5725420000000 1.0
C      1  0.6075840000000  0.5524220000000  0.4274580000000 1.0
C      1  0.5916230000000  0.4023220000000  0.3389190000000 1.0
C      1  0.4083770000000  0.4023220000000  0.6610810000000 1.0
C      1  0.5916230000000  0.5976780000000  0.3389190000000 1.0
C      1  0.4083770000000  0.5976780000000  0.6610810000000 1.0
C      1  0.4799730000000  0.2974470000000  0.6136580000000 1.0
C      1  0.5200270000000  0.2974470000000  0.3863420000000 1.0
C      1  0.4799730000000  0.7025530000000  0.6136580000000 1.0
C      1  0.5200270000000  0.7025530000000  0.3863420000000 1.0
C      1  0.6912070000000  0.3959050000000  0.5458030000000 1.0
C      1  0.3087930000000  0.3959050000000  0.4541970000000 1.0
C      1  0.6912070000000  0.6040950000000  0.5458030000000 1.0
C      1  0.3087930000000  0.6040950000000  0.4541970000000 1.0
C      1  0.5452640000000  0.5471590000000  0.2749930000000 1.0
C      1  0.4547360000000  0.5471590000000  0.7250070000000 1.0
C      1  0.5452640000000  0.4528410000000  0.2749930000000 1.0
C      1  0.4547360000000  0.4528410000000  0.7250070000000 1.0
C      1  0.3265780000000  0.4482460000000  0.3773020000000 1.0
C      1  0.6734220000000  0.4482460000000  0.6226980000000 1.0
C      1  0.3265780000000  0.5517540000000  0.3773020000000 1.0
C      1  0.6734220000000  0.5517540000000  0.6226980000000 1.0
C      1  0.5497800000000  0.4088720000000  0.5060330000000 1.0
C      1  0.4502200000000  0.4088720000000  0.4939670000000 1.0
C      1  0.5497800000000  0.5911280000000  0.5060330000000 1.0
C      1  0.4502200000000  0.5911280000000  0.4939670000000 1.0
C      1  0.5426820000000  0.2754110000000  0.4769350000000 1.0
C      1  0.4573180000000  0.2754110000000  0.5230650000000 1.0
C      1  0.5426820000000  0.7245890000000  0.4769350000000 1.0
C      1  0.4573180000000  0.7245890000000  0.5230650000000 1.0
C      1  0.5551440000000  0.5450530000000  0.5900220000000 1.0
C      1  0.4448560000000  0.5450530000000  0.4099780000000 1.0
C      1  0.5551440000000  0.4549470000000  0.5900220000000 1.0
C      1  0.4448560000000  0.4549470000000  0.4099780000000 1.0
C      1  0.4270020000000  0.3165690000000  0.3730540000000 1.0
C      1  0.5729980000000  0.3165690000000  0.6269460000000 1.0
C      1  0.4270020000000  0.6834310000000  0.3730540000000 1.0
C      1  0.5729980000000  0.6834310000000  0.6269460000000 1.0
END
