TITL C-2158984-8299-1142 -0.00212445399908339 3375 -387.824928422326 0 0 60 (C2v) n - 1
REM
REM in /scratch/bkarasulu/869
REM
REM
REM
REM
REM
REM ./C.cell (a2850807a9bf4ad07a5b6933b78d9264)
REM AIRSS Version 0.9.1 bugfix July 2018 build 013d7b7c2542+ Fri, 06 Jul 2018 19:26:36 +0100
REM compiler GCC version 9.2.1 20190827 (Red Hat 9.2.1-1)
REM options -cpp -mtune=generic -march=x86-64 -g -O0 -fpre-include=/usr/include/finclude/math-vector-fortran.h
REM seed 400328201 1019740742 1417387369 -853586522 -1666636129 1494811036 1015134975 -43927660 -151531567 -1016158273 -1145887350 952748328 -436100301 313292526 1500112923 966222592 1444084807 676272452 2056055344 1812475389 1317862811 875588446 515486979 988937117 -788200465 209744858 -605619614 -344191479 -160820965 -2128523560 -1736406296 -19084410 888279586
REM
CELL 1.54180   15.00000   15.00000   15.00000   90.00000   90.00000   90.00000
LATT -1
SFAC C  
C      1  0.6814580000000  0.5900900000000  0.4689480000000 1.0
C      1  0.3185420000000  0.4099100000000  0.4689480000000 1.0
C      1  0.3185420000000  0.5900900000000  0.4689480000000 1.0
C      1  0.6814580000000  0.4099100000000  0.4689480000000 1.0
C      1  0.5534340000000  0.2498330000000  0.4701850000000 1.0
C      1  0.4465660000000  0.7501670000000  0.4701850000000 1.0
C      1  0.4465660000000  0.2498330000000  0.4701850000000 1.0
C      1  0.5534340000000  0.7501670000000  0.4701850000000 1.0
C      1  0.5487070000000  0.3121600000000  0.5890500000000 1.0
C      1  0.4512930000000  0.6878400000000  0.5890500000000 1.0
C      1  0.4512930000000  0.3121600000000  0.5890500000000 1.0
C      1  0.5487070000000  0.6878400000000  0.5890500000000 1.0
C      1  0.4487830000000  0.5871650000000  0.5704070000000 1.0
C      1  0.5512170000000  0.4128350000000  0.5704070000000 1.0
C      1  0.5512170000000  0.5871650000000  0.5704070000000 1.0
C      1  0.4487830000000  0.4128350000000  0.5704070000000 1.0
C      1  0.5879790000000  0.5510850000000  0.4837520000000 1.0
C      1  0.4120210000000  0.4489150000000  0.4837520000000 1.0
C      1  0.4120210000000  0.5510850000000  0.4837520000000 1.0
C      1  0.5879790000000  0.4489150000000  0.4837520000000 1.0
C      1  0.4585940000000  0.4077370000000  0.7528600000000 1.0
C      1  0.5414060000000  0.5922630000000  0.7528600000000 1.0
C      1  0.5414060000000  0.4077370000000  0.7528600000000 1.0
C      1  0.4585940000000  0.5922630000000  0.7528600000000 1.0
C      1  0.6926310000000  0.5473220000000  0.3815790000000 1.0
C      1  0.3073690000000  0.4526780000000  0.3815790000000 1.0
C      1  0.3073690000000  0.5473220000000  0.3815790000000 1.0
C      1  0.6926310000000  0.4526780000000  0.3815790000000 1.0
C      1  0.6830180000000  0.6468010000000  0.5406260000000 1.0
C      1  0.3169820000000  0.3531990000000  0.5406260000000 1.0
C      1  0.3169820000000  0.6468010000000  0.5406260000000 1.0
C      1  0.6830180000000  0.3531990000000  0.5406260000000 1.0
C      1  0.3835230000000  0.7225280000000  0.5344020000000 1.0
C      1  0.6164770000000  0.2774720000000  0.5344020000000 1.0
C      1  0.6164770000000  0.7225280000000  0.5344020000000 1.0
C      1  0.3835230000000  0.2774720000000  0.5344020000000 1.0
C      1  0.4509210000000  0.3071210000000  0.3955040000000 1.0
C      1  0.5490790000000  0.6928790000000  0.3955040000000 1.0
C      1  0.5490790000000  0.3071210000000  0.3955040000000 1.0
C      1  0.4509210000000  0.6928790000000  0.3955040000000 1.0
C      1  0.5487760000000  0.4499030000000  0.2491640000000 1.0
C      1  0.4512240000000  0.5500970000000  0.2491640000000 1.0
C      1  0.4512240000000  0.4499030000000  0.2491640000000 1.0
C      1  0.5487760000000  0.5500970000000  0.2491640000000 1.0
C      1  0.6007950000000  0.5532570000000  0.3319880000000 1.0
C      1  0.3992050000000  0.4467430000000  0.3319880000000 1.0
C      1  0.3992050000000  0.5532570000000  0.3319880000000 1.0
C      1  0.6007950000000  0.4467430000000  0.3319880000000 1.0
C      1  0.3825970000000  0.5499450000000  0.7062300000000 1.0
C      1  0.6174030000000  0.4500550000000  0.7062300000000 1.0
C      1  0.6174030000000  0.5499450000000  0.7062300000000 1.0
C      1  0.3825970000000  0.4500550000000  0.7062300000000 1.0
C      1  0.3655480000000  0.4061200000000  0.6249520000000 1.0
C      1  0.6344520000000  0.5938800000000  0.6249520000000 1.0
C      1  0.6344520000000  0.4061200000000  0.6249520000000 1.0
C      1  0.3655480000000  0.5938800000000  0.6249520000000 1.0
C      1  0.5496580000000  0.4058160000000  0.4003530000000 1.0
C      1  0.4503420000000  0.5941840000000  0.4003530000000 1.0
C      1  0.4503420000000  0.4058160000000  0.4003530000000 1.0
C      1  0.5496580000000  0.5941840000000  0.4003530000000 1.0
END
