TITL C-2158984-8299-28 -0.00188948793906031 3375 -418.379406293297 0 0 60 (C3) n - 1
REM
REM in /scratch/bkarasulu/869
REM
REM
REM
REM
REM
REM ./C.cell (a2850807a9bf4ad07a5b6933b78d9264)
REM AIRSS Version 0.9.1 bugfix July 2018 build 013d7b7c2542+ Fri, 06 Jul 2018 19:26:36 +0100
REM compiler GCC version 9.2.1 20190827 (Red Hat 9.2.1-1)
REM options -cpp -mtune=generic -march=x86-64 -g -O0 -fpre-include=/usr/include/finclude/math-vector-fortran.h
REM seed -1533329140 828564059 1701838955 -1470355574 -2116561765 985632669 477951932 -1228466895 616406114 1820928204 -1940785446 -2137208959 471477682 -620591785 -1606049751 1514592532 -1872450679 1112519081 1957950804 2028770226 -1985948882 554917134 -289426259 -1419149555 1218997598 -839062767 -1487439271 479531087 1929164997 -1764008198 453149423 -1111068843 789818428
REM
CELL 1.54180   15.00000   15.00000   15.00000   90.00000   90.00000   90.00000
LATT -1
SFAC C  
C      1  0.5849830000000  0.6889030000000  0.5411220000000 1.0
C      1  0.4931020000000  0.6889030000000  0.4058420000000 1.0
C      1  0.4218860000000  0.6888940000000  0.5530540000000 1.0
C      1  0.3198430000000  0.4722560000000  0.6798280000000 1.0
C      1  0.7458200000000  0.4722790000000  0.5661060000000 1.0
C      1  0.4343440000000  0.4722740000000  0.2540610000000 1.0
C      1  0.2365930000000  0.5150120000000  0.4295580000000 1.0
C      1  0.5706960000000  0.5150170000000  0.7633400000000 1.0
C      1  0.6927050000000  0.5150400000000  0.3071110000000 1.0
C      1  0.5010740000000  0.3016100000000  0.5892410000000 1.0
C      1  0.5767700000000  0.3016170000000  0.4544480000000 1.0
C      1  0.4221870000000  0.3016110000000  0.4562900000000 1.0
C      1  0.6641540000000  0.4365700000000  0.3449060000000 1.0
C      1  0.2836140000000  0.4365500000000  0.4353860000000 1.0
C      1  0.5522420000000  0.4365540000000  0.7197040000000 1.0
C      1  0.4989320000000  0.3494190000000  0.3209720000000 1.0
C      1  0.3455070000000  0.3494040000000  0.5904380000000 1.0
C      1  0.6555850000000  0.3494180000000  0.5885750000000 1.0
C      1  0.6932110000000  0.4952670000000  0.6393920000000 1.0
C      1  0.5241130000000  0.4952710000000  0.2629760000000 1.0
C      1  0.2826750000000  0.4952480000000  0.5976290000000 1.0
C      1  0.5620810000000  0.4691500000000  0.5658930000000 1.0
C      1  0.5260280000000  0.4691570000000  0.4132900000000 1.0
C      1  0.4118970000000  0.4691490000000  0.5208150000000 1.0
C      1  0.5772240000000  0.6868100000000  0.4458550000000 1.0
C      1  0.4144770000000  0.6868000000000  0.4601950000000 1.0
C      1  0.5082700000000  0.6868010000000  0.5939680000000 1.0
C      1  0.5828010000000  0.3017010000000  0.5466630000000 1.0
C      1  0.4990320000000  0.3017030000000  0.4049600000000 1.0
C      1  0.4181980000000  0.3016950000000  0.5483570000000 1.0
C      1  0.7152720000000  0.3884100000000  0.5280080000000 1.0
C      1  0.4166320000000  0.3884040000000  0.2995660000000 1.0
C      1  0.3681150000000  0.3883900000000  0.6724150000000 1.0
C      1  0.5648890000000  0.4238710000000  0.3213840000000 1.0
C      1  0.3128770000000  0.4238520000000  0.5331120000000 1.0
C      1  0.6222440000000  0.4238630000000  0.6454950000000 1.0
C      1  0.4574700000000  0.4399100000000  0.6836930000000 1.0
C      1  0.6803550000000  0.4399270000000  0.4449870000000 1.0
C      1  0.3621860000000  0.4399160000000  0.3713160000000 1.0
C      1  0.4783520000000  0.6370920000000  0.3272230000000 1.0
C      1  0.3611810000000  0.6370770000000  0.6051360000000 1.0
C      1  0.6604450000000  0.6370910000000  0.5676530000000 1.0
C      1  0.5882750000000  0.4638600000000  0.4783770000000 1.0
C      1  0.4371410000000  0.4638560000000  0.4343640000000 1.0
C      1  0.4745910000000  0.4638530000000  0.5872570000000 1.0
C      1  0.6480390000000  0.6346770000000  0.4104150000000 1.0
C      1  0.3483820000000  0.6346610000000  0.4165870000000 1.0
C      1  0.5035570000000  0.6346600000000  0.6730110000000 1.0
C      1  0.5803890000000  0.5885840000000  0.7046170000000 1.0
C      1  0.6369970000000  0.5886000000000  0.3280740000000 1.0
C      1  0.2825970000000  0.5885780000000  0.4673190000000 1.0
C      1  0.3682750000000  0.5188710000000  0.3025830000000 1.0
C      1  0.3948940000000  0.5188600000000  0.7127870000000 1.0
C      1  0.7368320000000  0.5188830000000  0.4846320000000 1.0
C      1  0.6991610000000  0.6041170000000  0.4859090000000 1.0
C      1  0.3882050000000  0.6041070000000  0.3345670000000 1.0
C      1  0.4126170000000  0.6040980000000  0.6795340000000 1.0
C      1  0.5482310000000  0.5839590000000  0.2914550000000 1.0
C      1  0.2952700000000  0.5839380000000  0.5625020000000 1.0
C      1  0.6564830000000  0.5839520000000  0.6460500000000 1.0
END
