TITL C-2159255-4746-949 -0.00293535942699639 3375 -406.349562676939 0 0 60 (C2v) n - 1
REM
REM in /scratch/bkarasulu/871
REM
REM
REM
REM
REM
REM ./C.cell (a2850807a9bf4ad07a5b6933b78d9264)
REM AIRSS Version 0.9.1 bugfix July 2018 build 013d7b7c2542+ Fri, 06 Jul 2018 19:26:36 +0100
REM compiler GCC version 9.2.1 20190827 (Red Hat 9.2.1-1)
REM options -cpp -mtune=generic -march=x86-64 -g -O0 -fpre-include=/usr/include/finclude/math-vector-fortran.h
REM seed -584501504 -329086641 760910100 -2014334385 -947210830 -1531810552 -186690308 -1761291850 -1174939355 1381577464 -663206293 -2109517970 295530772 -1777825980 -835099124 70619166 -2139231739 60386539 -483928517 -873388722 -767191862 -1204869154 -411130721 -177582752 -2035593046 791741845 -501636320 1059002224 1686129465 -1662804488 -1823428020 122171338 1600372351
REM
CELL 1.54180   15.00000   15.00000   15.00000   90.00000   90.00000   90.00000
LATT -1
SFAC C  
C      1  0.7365100000000  0.5605930000000  0.4688040000000 1.0
C      1  0.6492760000000  0.6764610000000  0.4939860000000 1.0
C      1  0.5205500000000  0.7432800000000  0.4688030000000 1.0
C      1  0.3770380000000  0.7012930000000  0.4808520000000 1.0
C      1  0.2811040000000  0.5878940000000  0.4808520000000 1.0
C      1  0.2634900000000  0.4394070000000  0.4688040000000 1.0
C      1  0.3507240000000  0.3235390000000  0.4939860000000 1.0
C      1  0.4794500000000  0.2567200000000  0.4688030000000 1.0
C      1  0.6229620000000  0.2987070000000  0.4808520000000 1.0
C      1  0.7188960000000  0.4121060000000  0.4808520000000 1.0
C      1  0.3505900000000  0.5608450000000  0.4189280000000 1.0
C      1  0.3497630000000  0.4571050000000  0.4117450000000 1.0
C      1  0.4031870000000  0.3855570000000  0.4464730000000 1.0
C      1  0.4826010000000  0.3447340000000  0.4117450000000 1.0
C      1  0.5847700000000  0.3627470000000  0.4189290000000 1.0
C      1  0.6494100000000  0.4391550000000  0.4189280000000 1.0
C      1  0.6502370000000  0.5428950000000  0.4117450000000 1.0
C      1  0.5968130000000  0.6144430000000  0.4464730000000 1.0
C      1  0.5173990000000  0.6552660000000  0.4117450000000 1.0
C      1  0.4152300000000  0.6372530000000  0.4189290000000 1.0
C      1  0.5644170000000  0.7292290000000  0.6162360000000 1.0
C      1  0.4670100000000  0.7358360000000  0.6129090000000 1.0
C      1  0.3057160000000  0.6643520000000  0.6203210000000 1.0
C      1  0.2619570000000  0.4934410000000  0.6129100000000 1.0
C      1  0.2846210000000  0.3984770000000  0.6162360000000 1.0
C      1  0.4355830000000  0.2707710000000  0.6162360000000 1.0
C      1  0.5329900000000  0.2641640000000  0.6129100000000 1.0
C      1  0.6942840000000  0.3356480000000  0.6203210000000 1.0
C      1  0.7380430000000  0.5065590000000  0.6129100000000 1.0
C      1  0.7153790000000  0.6015230000000  0.6162360000000 1.0
C      1  0.7584300000000  0.4860940000000  0.5225710000000 1.0
C      1  0.7239550000000  0.6338440000000  0.5284190000000 1.0
C      1  0.5948690000000  0.7430430000000  0.5284180000000 1.0
C      1  0.4434480000000  0.7525470000000  0.5225700000000 1.0
C      1  0.3037420000000  0.6660210000000  0.5301210000000 1.0
C      1  0.2415700000000  0.5139060000000  0.5225710000000 1.0
C      1  0.2760450000000  0.3661560000000  0.5284190000000 1.0
C      1  0.4051310000000  0.2569570000000  0.5284180000000 1.0
C      1  0.5565520000000  0.2474530000000  0.5225700000000 1.0
C      1  0.6962580000000  0.3339790000000  0.5301210000000 1.0
C      1  0.4878070000000  0.3636290000000  0.3117350000000 1.0
C      1  0.5828580000000  0.3684350000000  0.3140890000000 1.0
C      1  0.6434830000000  0.4400970000000  0.3140880000000 1.0
C      1  0.6324680000000  0.5346290000000  0.3117340000000 1.0
C      1  0.5789790000000  0.5933600000000  0.2658490000000 1.0
C      1  0.5121930000000  0.6363710000000  0.3117350000000 1.0
C      1  0.4171420000000  0.6315650000000  0.3140890000000 1.0
C      1  0.3565170000000  0.5599030000000  0.3140880000000 1.0
C      1  0.3675320000000  0.4653710000000  0.3117340000000 1.0
C      1  0.4210210000000  0.4066400000000  0.2658490000000 1.0
C      1  0.3781400000000  0.6030870000000  0.6540840000000 1.0
C      1  0.3479700000000  0.5154630000000  0.6523570000000 1.0
C      1  0.3723900000000  0.4201750000000  0.6559400000000 1.0
C      1  0.4424310000000  0.3609230000000  0.6559400000000 1.0
C      1  0.5404490000000  0.3526370000000  0.6523570000000 1.0
C      1  0.6218600000000  0.3969130000000  0.6540840000000 1.0
C      1  0.6520300000000  0.4845370000000  0.6523570000000 1.0
C      1  0.6276100000000  0.5798260000000  0.6559400000000 1.0
C      1  0.5575690000000  0.6390770000000  0.6559400000000 1.0
C      1  0.4595510000000  0.6473630000000  0.6523570000000 1.0
END
