TITL C-2158988-7926-763 -0.00133027166519432 3375 -404.429573661429 0 0 60 (C2) n - 1
REM
REM in /scratch/bkarasulu/868
REM
REM
REM
REM
REM
REM ./C.cell (a2850807a9bf4ad07a5b6933b78d9264)
REM AIRSS Version 0.9.1 bugfix July 2018 build 013d7b7c2542+ Fri, 06 Jul 2018 19:26:36 +0100
REM compiler GCC version 9.2.1 20190827 (Red Hat 9.2.1-1)
REM options -cpp -mtune=generic -march=x86-64 -g -O0 -fpre-include=/usr/include/finclude/math-vector-fortran.h
REM seed -1006584669 993282382 -781435560 271114923 -2042312481 826031662 -823286620 -1978838575 553135535 -2033942383 -1303963762 1142372537 1108183279 676777774 -980756991 1589157200 -1706042406 1615842384 -1123123974 549321118 1695686496 1264717522 1791078013 572148738 -1727435930 -2073150722 -1942379641 2107548647 -454233300 -1437265488 -875463534 -1857319823 -910182123
REM
CELL 1.54180   15.00000   15.00000   15.00000   90.00000   90.00000   90.00000
LATT -1
SFAC C  
C      1  0.5986500000000  0.3401320000000  0.3661110000000 1.0
C      1  0.6578190000000  0.3429150000000  0.5533080000000 1.0
C      1  0.4985200000000  0.3391330000000  0.6664610000000 1.0
C      1  0.3409970000000  0.3427870000000  0.5498470000000 1.0
C      1  0.4036330000000  0.3403990000000  0.3642850000000 1.0
C      1  0.4013500000000  0.6598680000000  0.3661110000000 1.0
C      1  0.3421810000000  0.6570850000000  0.5533080000000 1.0
C      1  0.5014800000000  0.6608670000000  0.6664610000000 1.0
C      1  0.6590030000000  0.6572130000000  0.5498470000000 1.0
C      1  0.5963670000000  0.6596010000000  0.3642850000000 1.0
C      1  0.4183900000000  0.3806580000000  0.6938940000000 1.0
C      1  0.2905780000000  0.3859480000000  0.4827530000000 1.0
C      1  0.4519450000000  0.3827490000000  0.2952030000000 1.0
C      1  0.6793030000000  0.3822730000000  0.3906460000000 1.0
C      1  0.6591590000000  0.3860680000000  0.6373100000000 1.0
C      1  0.5816100000000  0.6193420000000  0.6938940000000 1.0
C      1  0.7094220000000  0.6140520000000  0.4827530000000 1.0
C      1  0.5480550000000  0.6172520000000  0.2952030000000 1.0
C      1  0.3206970000000  0.6177270000000  0.3906450000000 1.0
C      1  0.3408410000000  0.6139320000000  0.6373100000000 1.0
C      1  0.4506300000000  0.7055630000000  0.4365610000000 1.0
C      1  0.5454860000000  0.7055190000000  0.4335360000000 1.0
C      1  0.5779120000000  0.7049320000000  0.5225860000000 1.0
C      1  0.5025880000000  0.7056510000000  0.5803350000000 1.0
C      1  0.4238040000000  0.7048410000000  0.5274820000000 1.0
C      1  0.5493700000000  0.2944370000000  0.4365610000000 1.0
C      1  0.4545140000000  0.2944810000000  0.4335360000000 1.0
C      1  0.4220880000000  0.2950680000000  0.5225860000000 1.0
C      1  0.4974120000000  0.2943490000000  0.5803350000000 1.0
C      1  0.5761960000000  0.2951590000000  0.5274820000000 1.0
C      1  0.3727800000000  0.4077800000000  0.6127360000000 1.0
C      1  0.3544970000000  0.4071860000000  0.4120530000000 1.0
C      1  0.5372840000000  0.4067190000000  0.3347160000000 1.0
C      1  0.6693630000000  0.4080840000000  0.4840100000000 1.0
C      1  0.5658470000000  0.4065070000000  0.6565430000000 1.0
C      1  0.6272200000000  0.5922200000000  0.6127360000000 1.0
C      1  0.6455030000000  0.5928140000000  0.4120530000000 1.0
C      1  0.4627160000000  0.5932810000000  0.3347160000000 1.0
C      1  0.3306370000000  0.5919160000000  0.4840100000000 1.0
C      1  0.4341530000000  0.5934930000000  0.6565430000000 1.0
C      1  0.7300090000000  0.4525360000000  0.4179970000000 1.0
C      1  0.6414310000000  0.4525260000000  0.6989980000000 1.0
C      1  0.3638020000000  0.4527270000000  0.7022240000000 1.0
C      1  0.2679890000000  0.4524350000000  0.4230900000000 1.0
C      1  0.4967300000000  0.4526610000000  0.2568710000000 1.0
C      1  0.2699910000000  0.5474640000000  0.4179970000000 1.0
C      1  0.3585690000000  0.5474740000000  0.6989980000000 1.0
C      1  0.6361980000000  0.5472730000000  0.7022240000000 1.0
C      1  0.7320110000000  0.5475650000000  0.4230890000000 1.0
C      1  0.5032710000000  0.5473390000000  0.2568710000000 1.0
C      1  0.4418040000000  0.4511380000000  0.5582560000000 1.0
C      1  0.4270700000000  0.4506570000000  0.4627060000000 1.0
C      1  0.5130370000000  0.4507800000000  0.4190990000000 1.0
C      1  0.5812470000000  0.4511430000000  0.4872250000000 1.0
C      1  0.5369430000000  0.4505600000000  0.5731610000000 1.0
C      1  0.5581960000000  0.5488620000000  0.5582560000000 1.0
C      1  0.5729300000000  0.5493430000000  0.4627060000000 1.0
C      1  0.4869630000000  0.5492200000000  0.4190980000000 1.0
C      1  0.4187530000000  0.5488570000000  0.4872250000000 1.0
C      1  0.4630570000000  0.5494400000000  0.5731610000000 1.0
END
