TITL C-2159252-5904-272 -0.00640681238567165 3375 -407.021699569114 0 0 60 (C1) n - 1
REM
REM in /scratch/bkarasulu/870
REM
REM
REM
REM
REM
REM ./C.cell (a2850807a9bf4ad07a5b6933b78d9264)
REM AIRSS Version 0.9.1 bugfix July 2018 build 013d7b7c2542+ Fri, 06 Jul 2018 19:26:36 +0100
REM compiler GCC version 9.2.1 20190827 (Red Hat 9.2.1-1)
REM options -cpp -mtune=generic -march=x86-64 -g -O0 -fpre-include=/usr/include/finclude/math-vector-fortran.h
REM seed -1782904204 -821941726 1403034473 -1068100296 -1738307465 1723188884 74737477 -1413879976 -1475952584 -708134686 -1371096308 -876020534 2072150080 118241587 1984825110 1668934505 2116325304 1304919497 815337797 798301084 190980027 -1226394966 1775802747 -211552812 672007293 1939493305 -1030391383 -1013570798 -1520681305 1377179099 -1758162931 859477726 -240873760
REM
CELL 1.54180   15.00000   15.00000   15.00000   90.00000   90.00000   90.00000
LATT -1
SFAC C  
C      1  0.4994890000000  0.5220150000000  0.6779910000000 1.0
C      1  0.4840440000000  0.6010550000000  0.6264150000000 1.0
C      1  0.4365620000000  0.5987550000000  0.5405550000000 1.0
C      1  0.4711300000000  0.6419890000000  0.4614530000000 1.0
C      1  0.4738880000000  0.5976200000000  0.3725430000000 1.0
C      1  0.4735030000000  0.5060800000000  0.3357890000000 1.0
C      1  0.4839640000000  0.4034770000000  0.3550340000000 1.0
C      1  0.4987110000000  0.3450100000000  0.4297250000000 1.0
C      1  0.4852950000000  0.3828240000000  0.5133110000000 1.0
C      1  0.5107900000000  0.3538130000000  0.5982840000000 1.0
C      1  0.5079590000000  0.4192280000000  0.6683380000000 1.0
C      1  0.5265990000000  0.3944580000000  0.2707350000000 1.0
C      1  0.5503420000000  0.2647970000000  0.4305910000000 1.0
C      1  0.5756740000000  0.2342200000000  0.5149430000000 1.0
C      1  0.5618360000000  0.2730640000000  0.5984990000000 1.0
C      1  0.5606240000000  0.4178650000000  0.7469870000000 1.0
C      1  0.5536970000000  0.5143880000000  0.7558580000000 1.0
C      1  0.5304020000000  0.6823590000000  0.6404890000000 1.0
C      1  0.5356990000000  0.7422710000000  0.5688070000000 1.0
C      1  0.5176390000000  0.7209310000000  0.4790170000000 1.0
C      1  0.4992860000000  0.6564230000000  0.3049090000000 1.0
C      1  0.5204590000000  0.4892510000000  0.2548790000000 1.0
C      1  0.1721820000000  0.4776800000000  0.6199930000000 1.0
C      1  0.1675610000000  0.5646250000000  0.6281490000000 1.0
C      1  0.1709870000000  0.6426390000000  0.5887430000000 1.0
C      1  0.1821320000000  0.6864220000000  0.5136970000000 1.0
C      1  0.1966470000000  0.6823040000000  0.4275450000000 1.0
C      1  0.2116370000000  0.6320160000000  0.3575760000000 1.0
C      1  0.2219720000000  0.5511140000000  0.3264750000000 1.0
C      1  0.2208160000000  0.4652960000000  0.3419330000000 1.0
C      1  0.2107550000000  0.4018380000000  0.4009340000000 1.0
C      1  0.1952530000000  0.3812780000000  0.4844030000000 1.0
C      1  0.1820890000000  0.4096720000000  0.5659970000000 1.0
C      1  0.6441270000000  0.8171690000000  0.4903710000000 1.0
C      1  0.6235770000000  0.7338210000000  0.3486740000000 1.0
C      1  0.6340410000000  0.6055660000000  0.2404370000000 1.0
C      1  0.6612940000000  0.4406110000000  0.2143200000000 1.0
C      1  0.6505070000000  0.2968410000000  0.3017650000000 1.0
C      1  0.6892750000000  0.1899050000000  0.4225230000000 1.0
C      1  0.7006180000000  0.1977190000000  0.5950730000000 1.0
C      1  0.6793780000000  0.3180710000000  0.7069010000000 1.0
C      1  0.7019790000000  0.4731980000000  0.7711770000000 1.0
C      1  0.6580910000000  0.6330240000000  0.7369980000000 1.0
C      1  0.6579470000000  0.7757820000000  0.6555840000000 1.0
C      1  0.6471060000000  0.2586680000000  0.6476020000000 1.0
C      1  0.6537210000000  0.3936650000000  0.7505370000000 1.0
C      1  0.6432560000000  0.5480720000000  0.7653710000000 1.0
C      1  0.6149310000000  0.6970320000000  0.6913190000000 1.0
C      1  0.6158680000000  0.7962700000000  0.5754880000000 1.0
C      1  0.5933600000000  0.7617810000000  0.4279310000000 1.0
C      1  0.5905750000000  0.6724830000000  0.2873730000000 1.0
C      1  0.6071930000000  0.5200150000000  0.2266620000000 1.0
C      1  0.6169200000000  0.3671980000000  0.2545000000000 1.0
C      1  0.6284010000000  0.2456800000000  0.3722430000000 1.0
C      1  0.6620560000000  0.1904790000000  0.5111470000000 1.0
C      1  0.4808280000000  0.4768440000000  0.5047820000000 1.0
C      1  0.3985810000000  0.5188520000000  0.5137720000000 1.0
C      1  0.5691640000000  0.5070150000000  0.4994240000000 1.0
C      1  0.6522760000000  0.4957770000000  0.4958610000000 1.0
C      1  0.7382170000000  0.4946730000000  0.5057730000000 1.0
END
