TITL C-2159255-4746-253 -0.00200614338098014 3375 -409.309705721368 0 0 60 (C3) n - 1
REM
REM in /scratch/bkarasulu/871
REM
REM
REM
REM
REM
REM ./C.cell (a2850807a9bf4ad07a5b6933b78d9264)
REM AIRSS Version 0.9.1 bugfix July 2018 build 013d7b7c2542+ Fri, 06 Jul 2018 19:26:36 +0100
REM compiler GCC version 9.2.1 20190827 (Red Hat 9.2.1-1)
REM options -cpp -mtune=generic -march=x86-64 -g -O0 -fpre-include=/usr/include/finclude/math-vector-fortran.h
REM seed -1072669913 1979186266 1654279728 -919447289 -586472045 10382146 408978280 -704432306 -1502575896 586034350 -1431681927 -1419846428 656928724 1022749515 -537654269 -1594717545 -301508161 -1529180969 -113427652 1613890125 1142787242 400488617 1469850405 -1246755933 -1342372445 -1948042309 -1121558300 -1587898769 604070516 -344047858 251197896 -1765778662 -19921771
REM
CELL 1.54180   15.00000   15.00000   15.00000   90.00000   90.00000   90.00000
LATT -1
SFAC C  
C      1  0.3721820000000  0.3762880000000  0.3127130000000 1.0
C      1  0.3721600000000  0.3996840000000  0.7007780000000 1.0
C      1  0.3721960000000  0.7240600000000  0.4864850000000 1.0
C      1  0.5799970000000  0.6486540000000  0.6887540000000 1.0
C      1  0.5800180000000  0.5891250000000  0.2768870000000 1.0
C      1  0.5799790000000  0.2622020000000  0.5343740000000 1.0
C      1  0.6077200000000  0.3758250000000  0.6698150000000 1.0
C      1  0.6077520000000  0.7091340000000  0.5226350000000 1.0
C      1  0.6077450000000  0.4150190000000  0.3075710000000 1.0
C      1  0.6614460000000  0.5731920000000  0.5654590000000 1.0
C      1  0.6614500000000  0.5200670000000  0.4038920000000 1.0
C      1  0.6614360000000  0.4067050000000  0.5306820000000 1.0
C      1  0.5681590000000  0.7043340000000  0.6116530000000 1.0
C      1  0.5681660000000  0.4945170000000  0.2672160000000 1.0
C      1  0.5681300000000  0.3011350000000  0.6211420000000 1.0
C      1  0.4569590000000  0.7391070000000  0.5104950000000 1.0
C      1  0.4569480000000  0.3895440000000  0.2876790000000 1.0
C      1  0.4569210000000  0.3713610000000  0.7018170000000 1.0
C      1  0.5429610000000  0.5189340000000  0.7340610000000 1.0
C      1  0.5429960000000  0.6932280000000  0.3665740000000 1.0
C      1  0.5429650000000  0.2878280000000  0.3993750000000 1.0
C      1  0.5378780000000  0.7316250000000  0.4563780000000 1.0
C      1  0.5378590000000  0.3464050000000  0.3212200000000 1.0
C      1  0.5378400000000  0.4219640000000  0.7224100000000 1.0
C      1  0.5457710000000  0.5280230000000  0.4195620000000 1.0
C      1  0.5457600000000  0.4163190000000  0.5159530000000 1.0
C      1  0.5457680000000  0.5556480000000  0.5644940000000 1.0
C      1  0.3422360000000  0.4337980000000  0.3775180000000 1.0
C      1  0.3422210000000  0.4270540000000  0.6185680000000 1.0
C      1  0.3422430000000  0.6391830000000  0.5038830000000 1.0
C      1  0.2258690000000  0.4477120000000  0.4846590000000 1.0
C      1  0.2258690000000  0.5129030000000  0.5529440000000 1.0
C      1  0.2258770000000  0.5394440000000  0.4623440000000 1.0
C      1  0.3098060000000  0.5793810000000  0.4339970000000 1.0
C      1  0.3097920000000  0.4031800000000  0.4642490000000 1.0
C      1  0.3097920000000  0.5174790000000  0.6017160000000 1.0
C      1  0.4274760000000  0.3021100000000  0.5479880000000 1.0
C      1  0.4274950000000  0.6405150000000  0.6473800000000 1.0
C      1  0.4275100000000  0.5573890000000  0.3046170000000 1.0
C      1  0.5168230000000  0.4708370000000  0.5831000000000 1.0
C      1  0.5168340000000  0.5865450000000  0.4837080000000 1.0
C      1  0.5168270000000  0.4426140000000  0.4331980000000 1.0
C      1  0.4943180000000  0.6049090000000  0.7100630000000 1.0
C      1  0.4943450000000  0.6294660000000  0.3041130000000 1.0
C      1  0.4943080000000  0.2656230000000  0.4858220000000 1.0
C      1  0.6807610000000  0.3669490000000  0.4481480000000 1.0
C      1  0.6807600000000  0.5215910000000  0.6411580000000 1.0
C      1  0.6807800000000  0.6114210000000  0.4107300000000 1.0
C      1  0.3558760000000  0.6005280000000  0.5943500000000 1.0
C      1  0.3558850000000  0.5314700000000  0.3657600000000 1.0
C      1  0.3558620000000  0.3680330000000  0.5398620000000 1.0
C      1  0.4751040000000  0.7099740000000  0.5996130000000 1.0
C      1  0.4751080000000  0.4812850000000  0.2683470000000 1.0
C      1  0.4750730000000  0.3087470000000  0.6320320000000 1.0
C      1  0.6251060000000  0.6482280000000  0.3426150000000 1.0
C      1  0.6250740000000  0.2895650000000  0.4503280000000 1.0
C      1  0.6250780000000  0.5621790000000  0.7070820000000 1.0
C      1  0.6735650000000  0.4266530000000  0.6221660000000 1.0
C      1  0.6735880000000  0.6424450000000  0.5024440000000 1.0
C      1  0.6735800000000  0.4308660000000  0.3754240000000 1.0
END
