TITL C-2159255-4746-1207 -0.00201221584126079 3375 -409.59833340479 0 0 60 (C3) n - 1
REM
REM in /scratch/bkarasulu/871
REM
REM
REM
REM
REM
REM ./C.cell (a2850807a9bf4ad07a5b6933b78d9264)
REM AIRSS Version 0.9.1 bugfix July 2018 build 013d7b7c2542+ Fri, 06 Jul 2018 19:26:36 +0100
REM compiler GCC version 9.2.1 20190827 (Red Hat 9.2.1-1)
REM options -cpp -mtune=generic -march=x86-64 -g -O0 -fpre-include=/usr/include/finclude/math-vector-fortran.h
REM seed 735720682 -730113487 -1476236914 973711410 625253010 -1464337472 628914862 -1672787282 -772878638 2025754780 101764377 1831095319 999199464 2110465769 2046066159 1948013265 -236560370 178945456 -1883925177 -275074221 1191887783 1521402420 -68012180 382329302 688420731 -2070192179 -1146230599 1673332037 -1368052176 1750745148 -492387087 62975506 1502489973
REM
CELL 1.54180   15.00000   15.00000   15.00000   90.00000   90.00000   90.00000
LATT -1
SFAC C  
C      1  0.4062740000000  0.5979140000000  0.3165350000000 1.0
C      1  0.7057470000000  0.5979180000000  0.5105640000000 1.0
C      1  0.3879760000000  0.5979140000000  0.6729020000000 1.0
C      1  0.7202600000000  0.4242600000000  0.5193530000000 1.0
C      1  0.3731120000000  0.4242550000000  0.6810720000000 1.0
C      1  0.4066330000000  0.4242560000000  0.2995740000000 1.0
C      1  0.3946870000000  0.6489970000000  0.3996790000000 1.0
C      1  0.6395340000000  0.6490000000000  0.4589590000000 1.0
C      1  0.4657730000000  0.6489980000000  0.6413640000000 1.0
C      1  0.7385870000000  0.5122340000000  0.4758110000000 1.0
C      1  0.4016560000000  0.5122300000000  0.7187170000000 1.0
C      1  0.3597580000000  0.5122300000000  0.3054730000000 1.0
C      1  0.4666630000000  0.6834580000000  0.4566500000000 1.0
C      1  0.5542080000000  0.6834590000000  0.4928080000000 1.0
C      1  0.4791220000000  0.6834580000000  0.5505450000000 1.0
C      1  0.5624130000000  0.5511010000000  0.7358640000000 1.0
C      1  0.2645280000000  0.5510990000000  0.4361200000000 1.0
C      1  0.6730550000000  0.5511020000000  0.3280180000000 1.0
C      1  0.6204550000000  0.3594060000000  0.3775890000000 1.0
C      1  0.5457860000000  0.3594050000000  0.6655210000000 1.0
C      1  0.3337650000000  0.3594030000000  0.4568900000000 1.0
C      1  0.6265990000000  0.4045970000000  0.6787330000000 1.0
C      1  0.2819150000000  0.4045930000000  0.5202690000000 1.0
C      1  0.5914890000000  0.4045960000000  0.3009970000000 1.0
C      1  0.7218620000000  0.5067630000000  0.3883090000000 1.0
C      1  0.4857970000000  0.5067590000000  0.7479860000000 1.0
C      1  0.2923420000000  0.5067580000000  0.3637090000000 1.0
C      1  0.6687790000000  0.3626940000000  0.4668290000000 1.0
C      1  0.4443410000000  0.3626910000000  0.6627500000000 1.0
C      1  0.3868880000000  0.3626910000000  0.3704210000000 1.0
C      1  0.2475750000000  0.4948600000000  0.5091410000000 1.0
C      1  0.6182940000000  0.4948640000000  0.2768250000000 1.0
C      1  0.6341270000000  0.4948650000000  0.7140330000000 1.0
C      1  0.4059400000000  0.3073070000000  0.4967180000000 1.0
C      1  0.5498770000000  0.3073080000000  0.4201810000000 1.0
C      1  0.5441920000000  0.3073070000000  0.5831020000000 1.0
C      1  0.6316840000000  0.6306180000000  0.3643890000000 1.0
C      1  0.5515970000000  0.6306170000000  0.6818510000000 1.0
C      1  0.3167120000000  0.6306150000000  0.4537610000000 1.0
C      1  0.4825680000000  0.5036020000000  0.5864220000000 1.0
C      1  0.4338720000000  0.5036020000000  0.4416920000000 1.0
C      1  0.5835590000000  0.5036010000000  0.4718850000000 1.0
C      1  0.5309410000000  0.5183590000000  0.2481870000000 1.0
C      1  0.7026040000000  0.5183620000000  0.6527010000000 1.0
C      1  0.2664520000000  0.5183560000000  0.5991100000000 1.0
C      1  0.4962730000000  0.4288860000000  0.2716780000000 1.0
C      1  0.6995970000000  0.4288890000000  0.6109310000000 1.0
C      1  0.3041340000000  0.4288850000000  0.6173880000000 1.0
C      1  0.6953540000000  0.5993850000000  0.6043860000000 1.0
C      1  0.3119200000000  0.5993800000000  0.6169900000000 1.0
C      1  0.4927210000000  0.5993830000000  0.2786220000000 1.0
C      1  0.5673640000000  0.5034730000000  0.5611340000000 1.0
C      1  0.4133740000000  0.5034720000000  0.5277720000000 1.0
C      1  0.5192610000000  0.5034730000000  0.4110930000000 1.0
C      1  0.3156180000000  0.6523790000000  0.5418770000000 1.0
C      1  0.5559210000000  0.6523820000000  0.3193840000000 1.0
C      1  0.6284530000000  0.6523820000000  0.6387390000000 1.0
C      1  0.4472510000000  0.3097160000000  0.5802640000000 1.0
C      1  0.4568690000000  0.3097160000000  0.4141840000000 1.0
C      1  0.5958900000000  0.3097170000000  0.5055530000000 1.0
END
