TITL C-2158988-7926-253 -0.00225563441017942 3375 -425.966007082074 0 0 60 (C1) n - 1
REM
REM in /scratch/bkarasulu/868
REM
REM
REM
REM
REM
REM ./C.cell (a2850807a9bf4ad07a5b6933b78d9264)
REM AIRSS Version 0.9.1 bugfix July 2018 build 013d7b7c2542+ Fri, 06 Jul 2018 19:26:36 +0100
REM compiler GCC version 9.2.1 20190827 (Red Hat 9.2.1-1)
REM options -cpp -mtune=generic -march=x86-64 -g -O0 -fpre-include=/usr/include/finclude/math-vector-fortran.h
REM seed -1562587466 1920186058 -1326150119 -2505325 -2010083197 -1850456655 255044548 574899255 7982852 1622428101 129715537 -43939200 969085481 1350479059 -1301900285 -2046052502 -120063734 -1383526670 780839358 439499375 -1663956615 -1966361835 1823592472 -1128895259 -1033597161 1970865852 2116394230 -448326521 46921520 982358051 1756361469 1164313535 -88643278
REM
CELL 1.54180   15.00000   15.00000   15.00000   90.00000   90.00000   90.00000
LATT -1
SFAC C  
C      1  0.2861250000000  0.4366880000000  0.5395300000000 1.0
C      1  0.3752910000000  0.6413720000000  0.3788060000000 1.0
C      1  0.3113890000000  0.4975930000000  0.4001900000000 1.0
C      1  0.6391370000000  0.6586460000000  0.5582340000000 1.0
C      1  0.4519870000000  0.3000430000000  0.3853670000000 1.0
C      1  0.5445830000000  0.3240190000000  0.3668140000000 1.0
C      1  0.5756630000000  0.4227760000000  0.6992370000000 1.0
C      1  0.3424790000000  0.6705430000000  0.4644700000000 1.0
C      1  0.4599940000000  0.7606130000000  0.4228200000000 1.0
C      1  0.5539300000000  0.4803130000000  0.4968740000000 1.0
C      1  0.5778040000000  0.6806330000000  0.4895020000000 1.0
C      1  0.6897960000000  0.6027090000000  0.3778620000000 1.0
C      1  0.5819800000000  0.2648400000000  0.5143210000000 1.0
C      1  0.5325890000000  0.6430960000000  0.3326400000000 1.0
C      1  0.6961720000000  0.5813860000000  0.5596570000000 1.0
C      1  0.7108320000000  0.4344730000000  0.5966630000000 1.0
C      1  0.4929400000000  0.2517910000000  0.5345540000000 1.0
C      1  0.4557650000000  0.6892690000000  0.3615850000000 1.0
C      1  0.6030990000000  0.6382920000000  0.3992710000000 1.0
C      1  0.3626920000000  0.5548560000000  0.3443620000000 1.0
C      1  0.3527480000000  0.2992930000000  0.5147640000000 1.0
C      1  0.4498550000000  0.6733740000000  0.6038520000000 1.0
C      1  0.5217050000000  0.5576540000000  0.2916320000000 1.0
C      1  0.6591450000000  0.5616260000000  0.6507210000000 1.0
C      1  0.3162840000000  0.6065620000000  0.5306450000000 1.0
C      1  0.4485270000000  0.7598090000000  0.5585030000000 1.0
C      1  0.3011110000000  0.3667870000000  0.4762460000000 1.0
C      1  0.3930590000000  0.3643780000000  0.3434260000000 1.0
C      1  0.6219130000000  0.3035930000000  0.5922570000000 1.0
C      1  0.6949230000000  0.3513660000000  0.5586720000000 1.0
C      1  0.7154750000000  0.4524060000000  0.4399570000000 1.0
C      1  0.4264100000000  0.2620440000000  0.4676810000000 1.0
C      1  0.2895540000000  0.5213370000000  0.4933620000000 1.0
C      1  0.3767570000000  0.3235010000000  0.6052770000000 1.0
C      1  0.5244240000000  0.7650380000000  0.4910940000000 1.0
C      1  0.6558720000000  0.4690140000000  0.6653590000000 1.0
C      1  0.4677330000000  0.4589800000000  0.4924700000000 1.0
C      1  0.4746760000000  0.5639120000000  0.7157590000000 1.0
C      1  0.5554000000000  0.3351890000000  0.6536520000000 1.0
C      1  0.6792540000000  0.5092620000000  0.3692670000000 1.0
C      1  0.3261880000000  0.4079920000000  0.6245450000000 1.0
C      1  0.5408110000000  0.4028590000000  0.3103060000000 1.0
C      1  0.5864650000000  0.4894140000000  0.3178840000000 1.0
C      1  0.4884420000000  0.5306160000000  0.5400510000000 1.0
C      1  0.4705690000000  0.2964460000000  0.6179300000000 1.0
C      1  0.3882640000000  0.7511100000000  0.4855670000000 1.0
C      1  0.3646080000000  0.6205460000000  0.6142520000000 1.0
C      1  0.5125650000000  0.6412580000000  0.6715500000000 1.0
C      1  0.4488930000000  0.4243060000000  0.2960490000000 1.0
C      1  0.3207070000000  0.4024470000000  0.3912470000000 1.0
C      1  0.6127740000000  0.3059380000000  0.4334470000000 1.0
C      1  0.3812270000000  0.5559180000000  0.6820080000000 1.0
C      1  0.6873800000000  0.3623970000000  0.4616790000000 1.0
C      1  0.4882220000000  0.6233320000000  0.5174360000000 1.0
C      1  0.5221620000000  0.4886630000000  0.7352970000000 1.0
C      1  0.6030890000000  0.6384090000000  0.6476850000000 1.0
C      1  0.3424610000000  0.4743060000000  0.6824720000000 1.0
C      1  0.5862530000000  0.5294440000000  0.4139400000000 1.0
C      1  0.4352760000000  0.5172580000000  0.2931250000000 1.0
C      1  0.7245690000000  0.4982630000000  0.5261740000000 1.0
END
