TITL C-2159255-4746-572 -0.00180068892642142 3375 -411.937997633433 0 0 60 (C1) n - 1
REM
REM in /scratch/bkarasulu/871
REM
REM
REM
REM
REM
REM ./C.cell (a2850807a9bf4ad07a5b6933b78d9264)
REM AIRSS Version 0.9.1 bugfix July 2018 build 013d7b7c2542+ Fri, 06 Jul 2018 19:26:36 +0100
REM compiler GCC version 9.2.1 20190827 (Red Hat 9.2.1-1)
REM options -cpp -mtune=generic -march=x86-64 -g -O0 -fpre-include=/usr/include/finclude/math-vector-fortran.h
REM seed -2100992862 1006867755 -2068246968 -1452903624 -1520261212 -873787070 -365249057 -1179710371 -1223001126 890650041 -346322394 -731866251 -1590726435 -173976558 1488949330 1224867562 1312159043 124699532 435050605 -1607818342 1338133404 -1889131992 1555323877 -1454261951 371221131 1992210202 1977838792 -558127424 -1719422345 -1490299968 93118191 1548990414 1041195155
REM
CELL 1.54180   15.00000   15.00000   15.00000   90.00000   90.00000   90.00000
LATT -1
SFAC C  
C      1  0.2748190000000  0.5774020000000  0.4465040000000 1.0
C      1  0.5302740000000  0.5994300000000  0.3426150000000 1.0
C      1  0.5901970000000  0.3477310000000  0.3453560000000 1.0
C      1  0.2803690000000  0.5903560000000  0.5395260000000 1.0
C      1  0.2694300000000  0.4896780000000  0.5517820000000 1.0
C      1  0.5315020000000  0.5595980000000  0.5282970000000 1.0
C      1  0.5898210000000  0.2944280000000  0.5589800000000 1.0
C      1  0.3643390000000  0.4532930000000  0.6812650000000 1.0
C      1  0.3428660000000  0.4386360000000  0.4137260000000 1.0
C      1  0.4140260000000  0.5180810000000  0.4093220000000 1.0
C      1  0.4506280000000  0.5311980000000  0.4980800000000 1.0
C      1  0.6483130000000  0.4133130000000  0.6491150000000 1.0
C      1  0.6360970000000  0.6901720000000  0.6082580000000 1.0
C      1  0.3513140000000  0.4993620000000  0.2674670000000 1.0
C      1  0.4923900000000  0.7296870000000  0.5374270000000 1.0
C      1  0.4882190000000  0.6751990000000  0.3877250000000 1.0
C      1  0.3295980000000  0.4208280000000  0.3192960000000 1.0
C      1  0.4922660000000  0.5056660000000  0.3388710000000 1.0
C      1  0.4239730000000  0.3853660000000  0.7033740000000 1.0
C      1  0.6207770000000  0.5919440000000  0.3851670000000 1.0
C      1  0.4003670000000  0.6790800000000  0.4217400000000 1.0
C      1  0.7089830000000  0.3922040000000  0.4953310000000 1.0
C      1  0.6905240000000  0.5418720000000  0.5643420000000 1.0
C      1  0.5629040000000  0.4411000000000  0.3830460000000 1.0
C      1  0.5317460000000  0.3080720000000  0.6336650000000 1.0
C      1  0.5093440000000  0.4007050000000  0.4691970000000 1.0
C      1  0.2678520000000  0.4815740000000  0.4572710000000 1.0
C      1  0.4025740000000  0.3659080000000  0.4570810000000 1.0
C      1  0.7083090000000  0.3474450000000  0.4158490000000 1.0
C      1  0.5504170000000  0.7219880000000  0.6116600000000 1.0
C      1  0.3431240000000  0.6506170000000  0.5820590000000 1.0
C      1  0.5048310000000  0.5178960000000  0.7292370000000 1.0
C      1  0.4360030000000  0.3163080000000  0.3731750000000 1.0
C      1  0.3740380000000  0.6173050000000  0.6629010000000 1.0
C      1  0.6933240000000  0.4859410000000  0.4871700000000 1.0
C      1  0.3769950000000  0.3531100000000  0.5557490000000 1.0
C      1  0.5420630000000  0.7051480000000  0.4596700000000 1.0
C      1  0.6985250000000  0.6543310000000  0.3832970000000 1.0
C      1  0.3514940000000  0.5989420000000  0.3883360000000 1.0
C      1  0.5931430000000  0.6243640000000  0.4788160000000 1.0
C      1  0.6427630000000  0.5002390000000  0.4053940000000 1.0
C      1  0.3213440000000  0.4260130000000  0.5974200000000 1.0
C      1  0.6811160000000  0.3245740000000  0.3373500000000 1.0
C      1  0.4000790000000  0.7035330000000  0.5168800000000 1.0
C      1  0.4105000000000  0.3713720000000  0.3019080000000 1.0
C      1  0.6566300000000  0.5087710000000  0.6487390000000 1.0
C      1  0.4363720000000  0.3252740000000  0.6294690000000 1.0
C      1  0.5259150000000  0.2877270000000  0.3861840000000 1.0
C      1  0.5067020000000  0.4231800000000  0.7339560000000 1.0
C      1  0.6643960000000  0.3576280000000  0.5723250000000 1.0
C      1  0.3336300000000  0.5821930000000  0.2960600000000 1.0
C      1  0.7269660000000  0.6742470000000  0.4623880000000 1.0
C      1  0.5877520000000  0.5615720000000  0.6995830000000 1.0
C      1  0.4076850000000  0.5416950000000  0.7018660000000 1.0
C      1  0.5735960000000  0.3722190000000  0.6932170000000 1.0
C      1  0.5432350000000  0.3066200000000  0.4789190000000 1.0
C      1  0.5893230000000  0.6548160000000  0.6762740000000 1.0
C      1  0.6728850000000  0.6345470000000  0.5376890000000 1.0
C      1  0.5097350000000  0.4690820000000  0.5356380000000 1.0
C      1  0.4415980000000  0.4594200000000  0.2670000000000 1.0
END
