TITL C-2158984-8299-408 -0.00197833781699111 3375 -395.232252892652 0 0 60 (C4) n - 1
REM
REM in /scratch/bkarasulu/869
REM
REM
REM
REM
REM
REM ./C.cell (a2850807a9bf4ad07a5b6933b78d9264)
REM AIRSS Version 0.9.1 bugfix July 2018 build 013d7b7c2542+ Fri, 06 Jul 2018 19:26:36 +0100
REM compiler GCC version 9.2.1 20190827 (Red Hat 9.2.1-1)
REM options -cpp -mtune=generic -march=x86-64 -g -O0 -fpre-include=/usr/include/finclude/math-vector-fortran.h
REM seed 500529743 -603519381 639435871 206351504 1488950046 1969368866 1279910133 194822831 -1230415828 1682954749 -968286105 -1062156190 991128571 1250407367 288442399 -1332475125 -567025304 -1921652882 -544633444 -840201483 -1529125786 -364612378 1636281806 716721189 -231096613 -2074149874 1852022848 474852996 1546648344 -139486004 -416247351 306783262 728078746
REM
CELL 1.54180   15.00000   15.00000   15.00000   90.00000   90.00000   90.00000
LATT -1
SFAC C  
C      1  0.6185110000000  0.4472240000000  0.4923160000000 1.0
C      1  0.4472240000000  0.3814890000000  0.4923160000000 1.0
C      1  0.3814890000000  0.5527760000000  0.4923160000000 1.0
C      1  0.5527760000000  0.6185110000000  0.4923160000000 1.0
C      1  0.7289920000000  0.3617240000000  0.5695000000000 1.0
C      1  0.3617240000000  0.2710080000000  0.5695000000000 1.0
C      1  0.2710080000000  0.6382760000000  0.5695000000000 1.0
C      1  0.6382760000000  0.7289920000000  0.5695000000000 1.0
C      1  0.5440280000000  0.3834110000000  0.4890360000000 1.0
C      1  0.3834110000000  0.4559720000000  0.4890360000000 1.0
C      1  0.4559720000000  0.6165890000000  0.4890360000000 1.0
C      1  0.6165890000000  0.5440280000000  0.4890360000000 1.0
C      1  0.4408940000000  0.4647530000000  0.6795660000000 1.0
C      1  0.4647530000000  0.5591060000000  0.6795660000000 1.0
C      1  0.5591060000000  0.5352470000000  0.6795660000000 1.0
C      1  0.5352470000000  0.4408940000000  0.6795660000000 1.0
C      1  0.3246630000000  0.3067240000000  0.4902740000000 1.0
C      1  0.3067240000000  0.6753370000000  0.4902740000000 1.0
C      1  0.6753370000000  0.6932760000000  0.4902740000000 1.0
C      1  0.6932760000000  0.3246630000000  0.4902740000000 1.0
C      1  0.6910440000000  0.4528300000000  0.5723980000000 1.0
C      1  0.4528300000000  0.3089560000000  0.5723980000000 1.0
C      1  0.3089560000000  0.5471700000000  0.5723980000000 1.0
C      1  0.5471700000000  0.6910440000000  0.5723980000000 1.0
C      1  0.3262550000000  0.4688540000000  0.3403690000000 1.0
C      1  0.4688540000000  0.6737450000000  0.3403690000000 1.0
C      1  0.6737450000000  0.5311460000000  0.3403690000000 1.0
C      1  0.5311460000000  0.3262550000000  0.3403690000000 1.0
C      1  0.6985060000000  0.5618780000000  0.4242630000000 1.0
C      1  0.5618780000000  0.3014940000000  0.4242630000000 1.0
C      1  0.3014940000000  0.4381220000000  0.4242630000000 1.0
C      1  0.4381220000000  0.6985060000000  0.4242630000000 1.0
C      1  0.3874090000000  0.3225360000000  0.6417200000000 1.0
C      1  0.3225360000000  0.6125910000000  0.6417200000000 1.0
C      1  0.6125910000000  0.6774640000000  0.6417200000000 1.0
C      1  0.6774640000000  0.3874090000000  0.6417200000000 1.0
C      1  0.4157140000000  0.6344240000000  0.6512330000000 1.0
C      1  0.6344240000000  0.5842860000000  0.6512330000000 1.0
C      1  0.5842860000000  0.3655760000000  0.6512330000000 1.0
C      1  0.3655760000000  0.4157140000000  0.6512330000000 1.0
C      1  0.5674650000000  0.6603870000000  0.3422200000000 1.0
C      1  0.6603870000000  0.4325350000000  0.3422200000000 1.0
C      1  0.4325350000000  0.3396130000000  0.3422200000000 1.0
C      1  0.3396130000000  0.5674650000000  0.3422200000000 1.0
C      1  0.4095630000000  0.6125280000000  0.3062710000000 1.0
C      1  0.6125280000000  0.5904370000000  0.3062710000000 1.0
C      1  0.5904370000000  0.3874720000000  0.3062710000000 1.0
C      1  0.3874720000000  0.4095630000000  0.3062710000000 1.0
C      1  0.6848510000000  0.4026020000000  0.4291120000000 1.0
C      1  0.4026020000000  0.3151490000000  0.4291120000000 1.0
C      1  0.3151490000000  0.5973980000000  0.4291120000000 1.0
C      1  0.5973980000000  0.6848510000000  0.4291120000000 1.0
C      1  0.5514830000000  0.3136740000000  0.5749750000000 1.0
C      1  0.3136740000000  0.4485170000000  0.5749750000000 1.0
C      1  0.4485170000000  0.6863260000000  0.5749750000000 1.0
C      1  0.6863260000000  0.5514830000000  0.5749750000000 1.0
C      1  0.6128020000000  0.2748840000000  0.4967480000000 1.0
C      1  0.2748840000000  0.3871980000000  0.4967480000000 1.0
C      1  0.3871980000000  0.7251160000000  0.4967480000000 1.0
C      1  0.7251160000000  0.6128020000000  0.4967480000000 1.0
END
