TITL C-2158988-7926-412 -0.0020313363172004 3375 -411.87820052711 0 0 60 (C1) n - 1
REM
REM in /scratch/bkarasulu/868
REM
REM
REM
REM
REM
REM ./C.cell (a2850807a9bf4ad07a5b6933b78d9264)
REM AIRSS Version 0.9.1 bugfix July 2018 build 013d7b7c2542+ Fri, 06 Jul 2018 19:26:36 +0100
REM compiler GCC version 9.2.1 20190827 (Red Hat 9.2.1-1)
REM options -cpp -mtune=generic -march=x86-64 -g -O0 -fpre-include=/usr/include/finclude/math-vector-fortran.h
REM seed 406313895 1616508495 1139246978 -196483978 284432146 852031933 -445281913 245295170 -745565181 1321108202 666927227 995829809 -1991788189 -416201523 -940581437 2089167972 -1488782885 1714240873 -20356458 -504065303 735671922 1300945418 -1293549034 1430655237 135442707 -1974379066 -689492385 1037858248 -410100354 1962685055 605448102 -216985976 76122821
REM
CELL 1.54180   15.00000   15.00000   15.00000   90.00000   90.00000   90.00000
LATT -1
SFAC C  
C      1  0.5651020000000  0.4955780000000  0.2894130000000 1.0
C      1  0.4777910000000  0.2657000000000  0.5428080000000 1.0
C      1  0.6933690000000  0.4304920000000  0.4185580000000 1.0
C      1  0.3269010000000  0.4567680000000  0.4779020000000 1.0
C      1  0.3783610000000  0.3057370000000  0.6938070000000 1.0
C      1  0.5073350000000  0.4587210000000  0.6685730000000 1.0
C      1  0.4761070000000  0.4627650000000  0.7621560000000 1.0
C      1  0.5126100000000  0.5327130000000  0.4494510000000 1.0
C      1  0.7087840000000  0.5769400000000  0.4684470000000 1.0
C      1  0.4538360000000  0.5988280000000  0.4840580000000 1.0
C      1  0.3402730000000  0.3847600000000  0.4127100000000 1.0
C      1  0.3417670000000  0.5612940000000  0.3566170000000 1.0
C      1  0.5693830000000  0.2805270000000  0.5248500000000 1.0
C      1  0.6344170000000  0.5529050000000  0.3234070000000 1.0
C      1  0.4189700000000  0.5643770000000  0.5698590000000 1.0
C      1  0.5023320000000  0.5902410000000  0.6089390000000 1.0
C      1  0.6797600000000  0.3709360000000  0.5769780000000 1.0
C      1  0.4780250000000  0.5361430000000  0.2709440000000 1.0
C      1  0.3975450000000  0.4099150000000  0.3361940000000 1.0
C      1  0.6316000000000  0.6737090000000  0.5786300000000 1.0
C      1  0.3639020000000  0.3937580000000  0.6960040000000 1.0
C      1  0.6932560000000  0.5214580000000  0.3907050000000 1.0
C      1  0.6138920000000  0.6444710000000  0.3274070000000 1.0
C      1  0.4661370000000  0.7444930000000  0.5953630000000 1.0
C      1  0.5639440000000  0.4063090000000  0.3169530000000 1.0
C      1  0.4796310000000  0.3608420000000  0.3288740000000 1.0
C      1  0.5438890000000  0.3259230000000  0.6744810000000 1.0
C      1  0.5303510000000  0.3919950000000  0.7425110000000 1.0
C      1  0.4948040000000  0.2923690000000  0.3920360000000 1.0
C      1  0.4010590000000  0.7243360000000  0.5354290000000 1.0
C      1  0.4849640000000  0.4521100000000  0.4869200000000 1.0
C      1  0.6617130000000  0.6606950000000  0.4845880000000 1.0
C      1  0.6091310000000  0.6888440000000  0.4121370000000 1.0
C      1  0.3427920000000  0.5977390000000  0.6257260000000 1.0
C      1  0.6645300000000  0.5520330000000  0.6202310000000 1.0
C      1  0.5658690000000  0.5185440000000  0.6098260000000 1.0
C      1  0.5145780000000  0.7143030000000  0.3920640000000 1.0
C      1  0.5806730000000  0.3025720000000  0.4312570000000 1.0
C      1  0.7177680000000  0.5212280000000  0.5438940000000 1.0
C      1  0.2956790000000  0.5361870000000  0.4401480000000 1.0
C      1  0.4292410000000  0.4149730000000  0.6225800000000 1.0
C      1  0.4060700000000  0.4670760000000  0.5437680000000 1.0
C      1  0.5245470000000  0.6776370000000  0.3022290000000 1.0
C      1  0.4344140000000  0.6876100000000  0.4434590000000 1.0
C      1  0.6275690000000  0.3716320000000  0.3818030000000 1.0
C      1  0.3255160000000  0.6632410000000  0.5567110000000 1.0
C      1  0.4726270000000  0.6266620000000  0.2505310000000 1.0
C      1  0.6842740000000  0.6364400000000  0.6443740000000 1.0
C      1  0.6116780000000  0.3188880000000  0.6039520000000 1.0
C      1  0.3448370000000  0.2979390000000  0.4380160000000 1.0
C      1  0.3984240000000  0.5002870000000  0.3100880000000 1.0
C      1  0.3379550000000  0.5492990000000  0.7008660000000 1.0
C      1  0.4299430000000  0.2708480000000  0.4578990000000 1.0
C      1  0.5634130000000  0.4883350000000  0.5164340000000 1.0
C      1  0.3543740000000  0.6500830000000  0.3989620000000 1.0
C      1  0.4559280000000  0.3056510000000  0.6303680000000 1.0
C      1  0.7117080000000  0.4291850000000  0.5167760000000 1.0
C      1  0.3731270000000  0.4767580000000  0.7436030000000 1.0
C      1  0.2976830000000  0.6268880000000  0.4727570000000 1.0
C      1  0.5338400000000  0.6813090000000  0.6039680000000 1.0
END
