TITL C-2158988-7926-935 -0.00173993366375114 3375 -388.284568693424 0 0 60 (C6h) n - 1
REM
REM in /scratch/bkarasulu/868
REM
REM
REM
REM
REM
REM ./C.cell (a2850807a9bf4ad07a5b6933b78d9264)
REM AIRSS Version 0.9.1 bugfix July 2018 build 013d7b7c2542+ Fri, 06 Jul 2018 19:26:36 +0100
REM compiler GCC version 9.2.1 20190827 (Red Hat 9.2.1-1)
REM options -cpp -mtune=generic -march=x86-64 -g -O0 -fpre-include=/usr/include/finclude/math-vector-fortran.h
REM seed -966175260 1740302992 1398140057 844398159 -764113109 -235198765 437996743 -1396869045 1750915480 853700394 -1339457960 2032571990 -1382366505 -788839312 292596831 470641110 -306725554 -1392511291 1182847261 -1364410626 1569881749 288574514 -1217877924 160830498 -1492905878 17826600 -99874630 1146043883 -1807243394 -635987500 -1540092880 -1395899778 -1382461568
REM
CELL 1.54180   15.00000   15.00000   15.00000   90.00000   90.00000   90.00000
LATT -1
SFAC C  
C      1  0.3507590000000  0.6608680000000  0.5861620000000 1.0
C      1  0.5000000000000  0.6608670000000  0.3276710000000 1.0
C      1  0.6492410000000  0.6608680000000  0.5861620000000 1.0
C      1  0.6492410000000  0.3391320000000  0.5861620000000 1.0
C      1  0.5000000000000  0.3391330000000  0.3276710000000 1.0
C      1  0.3507590000000  0.3391320000000  0.5861620000000 1.0
C      1  0.6492410000000  0.3391320000000  0.4138380000000 1.0
C      1  0.5000000000000  0.3391330000000  0.6723290000000 1.0
C      1  0.3507590000000  0.3391320000000  0.4138380000000 1.0
C      1  0.3507590000000  0.6608680000000  0.4138380000000 1.0
C      1  0.5000000000000  0.6608670000000  0.6723290000000 1.0
C      1  0.6492410000000  0.6608680000000  0.4138380000000 1.0
C      1  0.5831020000000  0.4062620000000  0.5479790000000 1.0
C      1  0.4168980000000  0.4062620000000  0.5479790000000 1.0
C      1  0.5000000000000  0.4062620000000  0.4040410000000 1.0
C      1  0.4168980000000  0.5937380000000  0.5479790000000 1.0
C      1  0.5831020000000  0.5937380000000  0.5479790000000 1.0
C      1  0.5000000000000  0.5937380000000  0.4040410000000 1.0
C      1  0.4168980000000  0.5937380000000  0.4520210000000 1.0
C      1  0.5831020000000  0.5937380000000  0.4520210000000 1.0
C      1  0.5000000000000  0.5937380000000  0.5959590000000 1.0
C      1  0.5831020000000  0.4062620000000  0.4520210000000 1.0
C      1  0.4168980000000  0.4062620000000  0.4520210000000 1.0
C      1  0.5000000000000  0.4062620000000  0.5959590000000 1.0
C      1  0.7179710000000  0.5000000000000  0.5452380000000 1.0
C      1  0.3518390000000  0.5000000000000  0.6661480000000 1.0
C      1  0.4301920000000  0.5000000000000  0.2886110000000 1.0
C      1  0.2820290000000  0.5000000000000  0.5452380000000 1.0
C      1  0.6481610000000  0.5000000000000  0.6661480000000 1.0
C      1  0.5698080000000  0.5000000000000  0.2886110000000 1.0
C      1  0.2820290000000  0.5000000000000  0.4547620000000 1.0
C      1  0.6481610000000  0.5000000000000  0.3338520000000 1.0
C      1  0.5698080000000  0.5000000000000  0.7113890000000 1.0
C      1  0.7179710000000  0.5000000000000  0.4547620000000 1.0
C      1  0.3518390000000  0.5000000000000  0.3338520000000 1.0
C      1  0.4301920000000  0.5000000000000  0.7113890000000 1.0
C      1  0.4144510000000  0.2734760000000  0.5493920000000 1.0
C      1  0.5000000000000  0.2734760000000  0.4012150000000 1.0
C      1  0.5855490000000  0.2734760000000  0.5493920000000 1.0
C      1  0.5855490000000  0.7265240000000  0.5493920000000 1.0
C      1  0.5000000000000  0.7265240000000  0.4012150000000 1.0
C      1  0.4144510000000  0.7265240000000  0.5493920000000 1.0
C      1  0.5855490000000  0.7265240000000  0.4506080000000 1.0
C      1  0.5000000000000  0.7265240000000  0.5987850000000 1.0
C      1  0.4144510000000  0.7265240000000  0.4506080000000 1.0
C      1  0.4144510000000  0.2734760000000  0.4506080000000 1.0
C      1  0.5000000000000  0.2734760000000  0.5987850000000 1.0
C      1  0.5855490000000  0.2734760000000  0.4506080000000 1.0
C      1  0.3255480000000  0.5709900000000  0.6007190000000 1.0
C      1  0.5000000000000  0.5709900000000  0.2985570000000 1.0
C      1  0.6744520000000  0.5709900000000  0.6007190000000 1.0
C      1  0.6744520000000  0.4290100000000  0.6007190000000 1.0
C      1  0.5000000000000  0.4290100000000  0.2985570000000 1.0
C      1  0.3255480000000  0.4290100000000  0.6007190000000 1.0
C      1  0.6744520000000  0.4290100000000  0.3992810000000 1.0
C      1  0.5000000000000  0.4290100000000  0.7014430000000 1.0
C      1  0.3255480000000  0.4290100000000  0.3992810000000 1.0
C      1  0.3255480000000  0.5709900000000  0.3992810000000 1.0
C      1  0.5000000000000  0.5709900000000  0.7014430000000 1.0
C      1  0.6744520000000  0.5709900000000  0.3992810000000 1.0
END
