TITL C-2159255-4746-1318 -0.00541134145715361 3375 -407.596996230742 0 0 60 (C6) n - 1
REM
REM in /scratch/bkarasulu/871
REM
REM
REM
REM
REM
REM ./C.cell (a2850807a9bf4ad07a5b6933b78d9264)
REM AIRSS Version 0.9.1 bugfix July 2018 build 013d7b7c2542+ Fri, 06 Jul 2018 19:26:36 +0100
REM compiler GCC version 9.2.1 20190827 (Red Hat 9.2.1-1)
REM options -cpp -mtune=generic -march=x86-64 -g -O0 -fpre-include=/usr/include/finclude/math-vector-fortran.h
REM seed 257539290 -421511520 -155110095 21712389 1970507644 392100115 -8446251 -945558959 1471904664 110138122 -277392933 2109997921 1286603623 -1752986510 -975775009 1128981475 461654528 3787358 785524057 -1655307170 -295321932 -653121878 1786760630 -1572205938 -1565929030 -1542414442 -715151970 -1854738876 -280699252 -1772554692 -686817778 -1051288482 -1954448561
REM
CELL 1.54180   15.00000   15.00000   15.00000   90.00000   90.00000   90.00000
LATT -1
SFAC C  
C      1  0.5878000000000  0.7645180000000  0.4509780000000 1.0
C      1  0.5878040000000  0.5897980000000  0.2464170000000 1.0
C      1  0.5878020000000  0.3252930000000  0.2954390000000 1.0
C      1  0.5878000000000  0.2354820000000  0.5490220000000 1.0
C      1  0.5878040000000  0.4102020000000  0.7535830000000 1.0
C      1  0.5878020000000  0.6747070000000  0.7045610000000 1.0
C      1  0.5878000000000  0.2354820000000  0.4509780000000 1.0
C      1  0.5878040000000  0.4102020000000  0.2464170000000 1.0
C      1  0.5878020000000  0.6747070000000  0.2954390000000 1.0
C      1  0.5878000000000  0.7645180000000  0.5490220000000 1.0
C      1  0.5878040000000  0.5897980000000  0.7535830000000 1.0
C      1  0.5878020000000  0.3252930000000  0.7045610000000 1.0
C      1  0.4221660000000  0.4531820000000  0.2414100000000 1.0
C      1  0.4221680000000  0.2526480000000  0.4112540000000 1.0
C      1  0.4221700000000  0.2994690000000  0.6698370000000 1.0
C      1  0.4221660000000  0.5468180000000  0.7585900000000 1.0
C      1  0.4221680000000  0.7473520000000  0.5887460000000 1.0
C      1  0.4221700000000  0.7005310000000  0.3301630000000 1.0
C      1  0.4221660000000  0.5468180000000  0.2414100000000 1.0
C      1  0.4221680000000  0.7473520000000  0.4112540000000 1.0
C      1  0.4221700000000  0.7005310000000  0.6698370000000 1.0
C      1  0.4221660000000  0.4531820000000  0.7585900000000 1.0
C      1  0.4221680000000  0.2526480000000  0.5887460000000 1.0
C      1  0.4221700000000  0.2994690000000  0.3301630000000 1.0
C      1  0.4937760000000  0.3969210000000  0.7748320000000 1.0
C      1  0.4937760000000  0.6864640000000  0.7266870000000 1.0
C      1  0.4937720000000  0.7895600000000  0.4518570000000 1.0
C      1  0.4937760000000  0.6030790000000  0.2251680000000 1.0
C      1  0.4937760000000  0.3135360000000  0.2733130000000 1.0
C      1  0.4937720000000  0.2104400000000  0.5481430000000 1.0
C      1  0.4937760000000  0.6030790000000  0.7748320000000 1.0
C      1  0.4937760000000  0.3135360000000  0.7266870000000 1.0
C      1  0.4937720000000  0.2104400000000  0.4518570000000 1.0
C      1  0.4937760000000  0.3969210000000  0.2251680000000 1.0
C      1  0.4937760000000  0.6864640000000  0.2733130000000 1.0
C      1  0.4937720000000  0.7895600000000  0.5481430000000 1.0
C      1  0.3630810000000  0.6283450000000  0.6315140000000 1.0
C      1  0.3630800000000  0.6780700000000  0.4546070000000 1.0
C      1  0.3630790000000  0.5497220000000  0.3230910000000 1.0
C      1  0.3630810000000  0.3716550000000  0.3684860000000 1.0
C      1  0.3630800000000  0.3219300000000  0.5453930000000 1.0
C      1  0.3630790000000  0.4502780000000  0.6769090000000 1.0
C      1  0.3630810000000  0.3716550000000  0.6315140000000 1.0
C      1  0.3630800000000  0.3219300000000  0.4546070000000 1.0
C      1  0.3630790000000  0.4502780000000  0.3230910000000 1.0
C      1  0.3630810000000  0.6283450000000  0.3684860000000 1.0
C      1  0.3630800000000  0.6780700000000  0.5453930000000 1.0
C      1  0.3630790000000  0.5497220000000  0.6769090000000 1.0
C      1  0.6331770000000  0.4542160000000  0.6772820000000 1.0
C      1  0.6331750000000  0.6306430000000  0.6282910000000 1.0
C      1  0.6331730000000  0.6764330000000  0.4510080000000 1.0
C      1  0.6331770000000  0.5457840000000  0.3227180000000 1.0
C      1  0.6331750000000  0.3693570000000  0.3717090000000 1.0
C      1  0.6331730000000  0.3235670000000  0.5489920000000 1.0
C      1  0.6331770000000  0.5457840000000  0.6772820000000 1.0
C      1  0.6331750000000  0.3693570000000  0.6282910000000 1.0
C      1  0.6331730000000  0.3235670000000  0.4510080000000 1.0
C      1  0.6331770000000  0.4542160000000  0.3227180000000 1.0
C      1  0.6331750000000  0.6306430000000  0.3717090000000 1.0
C      1  0.6331730000000  0.6764330000000  0.5489920000000 1.0
END
