TITL C-2158984-8299-900 -0.0010902122672711 3375 -376.72584837496 0 0 60 (T23) n - 1
REM
REM in /scratch/bkarasulu/869
REM
REM
REM
REM
REM
REM ./C.cell (a2850807a9bf4ad07a5b6933b78d9264)
REM AIRSS Version 0.9.1 bugfix July 2018 build 013d7b7c2542+ Fri, 06 Jul 2018 19:26:36 +0100
REM compiler GCC version 9.2.1 20190827 (Red Hat 9.2.1-1)
REM options -cpp -mtune=generic -march=x86-64 -g -O0 -fpre-include=/usr/include/finclude/math-vector-fortran.h
REM seed 1164242951 1906310250 320522650 1700878562 188781814 -706620465 -1562653054 2072301547 -1189007211 -2128896194 -1542499561 907610883 1165267086 1419657770 -1553339492 872816796 1103988674 -991795216 1703689227 800287407 2017124533 -1430047910 1380275010 -1445076177 1623089028 1031617074 -680681715 1753381549 -1726180226 800394781 -972750437 601375057 -1703154400
REM
CELL 1.54180   15.00000   15.00000   15.00000   90.00000   90.00000   90.00000
LATT -1
SFAC C  
C      1  0.6634490000000  0.4922080000000  0.6814530000000 1.0
C      1  0.4922080000000  0.6814530000000  0.6634490000000 1.0
C      1  0.6814540000000  0.6634490000000  0.4922080000000 1.0
C      1  0.3365510000000  0.5077920000000  0.6814540000000 1.0
C      1  0.6634490000000  0.5077920000000  0.3185470000000 1.0
C      1  0.3365510000000  0.4922080000000  0.3185470000000 1.0
C      1  0.5077920000000  0.3185470000000  0.6634490000000 1.0
C      1  0.4922080000000  0.3185460000000  0.3365510000000 1.0
C      1  0.5077920000000  0.6814530000000  0.3365510000000 1.0
C      1  0.3185470000000  0.3365510000000  0.4922080000000 1.0
C      1  0.6814530000000  0.3365510000000  0.5077920000000 1.0
C      1  0.3185470000000  0.6634490000000  0.5077920000000 1.0
C      1  0.5525740000000  0.3646350000000  0.7303990000000 1.0
C      1  0.3646350000000  0.7303990000000  0.5525740000000 1.0
C      1  0.7303990000000  0.5525740000000  0.3646350000000 1.0
C      1  0.4474260000000  0.6353650000000  0.7303990000000 1.0
C      1  0.5525740000000  0.6353650000000  0.2696010000000 1.0
C      1  0.4474260000000  0.3646340000000  0.2696010000000 1.0
C      1  0.6353650000000  0.2696010000000  0.5525740000000 1.0
C      1  0.3646350000000  0.2696010000000  0.4474260000000 1.0
C      1  0.6353660000000  0.7303990000000  0.4474260000000 1.0
C      1  0.2696010000000  0.4474260000000  0.3646340000000 1.0
C      1  0.7303990000000  0.4474260000000  0.6353650000000 1.0
C      1  0.2696010000000  0.5525740000000  0.6353660000000 1.0
C      1  0.6327770000000  0.5570000000000  0.6136370000000 1.0
C      1  0.5570000000000  0.6136370000000  0.6327780000000 1.0
C      1  0.6136370000000  0.6327780000000  0.5570010000000 1.0
C      1  0.3672230000000  0.4430000000000  0.6136370000000 1.0
C      1  0.6327770000000  0.4430000000000  0.3863630000000 1.0
C      1  0.3672230000000  0.5570000000000  0.3863630000000 1.0
C      1  0.4430000000000  0.3863630000000  0.6327770000000 1.0
C      1  0.5570000000000  0.3863630000000  0.3672220000000 1.0
C      1  0.4430000000000  0.6136360000000  0.3672230000000 1.0
C      1  0.3863630000000  0.3672230000000  0.5570000000000 1.0
C      1  0.6136370000000  0.3672230000000  0.4430000000000 1.0
C      1  0.3863630000000  0.6327770000000  0.4430000000000 1.0
C      1  0.6934590000000  0.5808340000000  0.4419610000000 1.0
C      1  0.5808340000000  0.4419610000000  0.6934600000000 1.0
C      1  0.4419610000000  0.6934600000000  0.5808350000000 1.0
C      1  0.3065400000000  0.4191660000000  0.4419610000000 1.0
C      1  0.6934590000000  0.4191660000000  0.5580390000000 1.0
C      1  0.3065400000000  0.5808340000000  0.5580390000000 1.0
C      1  0.4191660000000  0.5580390000000  0.6934600000000 1.0
C      1  0.5808340000000  0.5580390000000  0.3065400000000 1.0
C      1  0.4191660000000  0.4419610000000  0.3065400000000 1.0
C      1  0.5580390000000  0.3065400000000  0.5808340000000 1.0
C      1  0.4419610000000  0.3065400000000  0.4191650000000 1.0
C      1  0.5580390000000  0.6934600000000  0.4191660000000 1.0
C      1  0.5445410000000  0.6110090000000  0.4781820000000 1.0
C      1  0.6110070000000  0.4781810000000  0.5445410000000 1.0
C      1  0.4781810000000  0.5445410000000  0.6110080000000 1.0
C      1  0.4554590000000  0.3889920000000  0.4781800000000 1.0
C      1  0.5445410000000  0.3889920000000  0.5218180000000 1.0
C      1  0.4554600000000  0.6110080000000  0.5218200000000 1.0
C      1  0.3889910000000  0.5218180000000  0.5445410000000 1.0
C      1  0.6110070000000  0.5218200000000  0.4554590000000 1.0
C      1  0.3889910000000  0.4781810000000  0.4554600000000 1.0
C      1  0.5218190000000  0.4554600000000  0.6110080000000 1.0
C      1  0.4781820000000  0.4554590000000  0.3889920000000 1.0
C      1  0.5218190000000  0.5445400000000  0.3889920000000 1.0
END
