TITL C-2159255-4746-494 -0.00159515598639979 3375 -402.851561106076 0 0 60 (D3d) n - 1
REM
REM in /scratch/bkarasulu/871
REM
REM
REM
REM
REM
REM ./C.cell (a2850807a9bf4ad07a5b6933b78d9264)
REM AIRSS Version 0.9.1 bugfix July 2018 build 013d7b7c2542+ Fri, 06 Jul 2018 19:26:36 +0100
REM compiler GCC version 9.2.1 20190827 (Red Hat 9.2.1-1)
REM options -cpp -mtune=generic -march=x86-64 -g -O0 -fpre-include=/usr/include/finclude/math-vector-fortran.h
REM seed -440380843 -144040074 1725659481 2030375319 -903483075 -1988884853 649614871 -1639358304 -779878751 1259130594 -312489085 558654226 -1332309751 2097058567 1846575245 638779398 409853747 1373205635 1392602148 -1654069233 1055152974 975733104 173118049 -310218882 690322759 -271204796 -807730453 -2061362911 1486311318 -255115792 -2130751412 1665698721 -2139653477
REM
CELL 1.54180   15.00000   15.00000   15.00000   90.00000   90.00000   90.00000
LATT -1
SFAC C  
C      1  0.5878670000000  0.4521660000000  0.5824080000000 1.0
C      1  0.4121270000000  0.4047210000000  0.4997820000000 1.0
C      1  0.5878670000000  0.4525440000000  0.4173740000000 1.0
C      1  0.4121330000000  0.5478340000000  0.4175920000000 1.0
C      1  0.5878730000000  0.5952790000000  0.5002180000000 1.0
C      1  0.4121330000000  0.5474560000000  0.5826260000000 1.0
C      1  0.4873860000000  0.3215480000000  0.3465690000000 1.0
C      1  0.5126100000000  0.5436480000000  0.2687380000000 1.0
C      1  0.4874010000000  0.7221030000000  0.4221710000000 1.0
C      1  0.5126140000000  0.6784520000000  0.6534310000000 1.0
C      1  0.4873900000000  0.4563520000000  0.7312620000000 1.0
C      1  0.5125990000000  0.2778970000000  0.5778290000000 1.0
C      1  0.6867370000000  0.5880450000000  0.5002020000000 1.0
C      1  0.3132680000000  0.5438590000000  0.5763560000000 1.0
C      1  0.6867320000000  0.4557920000000  0.5761550000000 1.0
C      1  0.3132630000000  0.4119550000000  0.4997980000000 1.0
C      1  0.6867320000000  0.4561410000000  0.4236440000000 1.0
C      1  0.3132680000000  0.5442080000000  0.4238450000000 1.0
C      1  0.2926390000000  0.4510070000000  0.4146770000000 1.0
C      1  0.7073610000000  0.5493830000000  0.4149030000000 1.0
C      1  0.2926450000000  0.5984010000000  0.5002250000000 1.0
C      1  0.7073610000000  0.5489930000000  0.5853230000000 1.0
C      1  0.2926390000000  0.4506170000000  0.5850970000000 1.0
C      1  0.7073550000000  0.4015990000000  0.4997750000000 1.0
C      1  0.6022000000000  0.6626910000000  0.6868660000000 1.0
C      1  0.3978020000000  0.4195210000000  0.7343330000000 1.0
C      1  0.6021840000000  0.2568160000000  0.5474650000000 1.0
C      1  0.3978000000000  0.3373090000000  0.3131340000000 1.0
C      1  0.6021980000000  0.5804790000000  0.2656670000000 1.0
C      1  0.3978160000000  0.7431840000000  0.4525350000000 1.0
C      1  0.3587410000000  0.4143770000000  0.6475330000000 1.0
C      1  0.6412490000000  0.3294120000000  0.4996090000000 1.0
C      1  0.3587410000000  0.4150540000000  0.3520760000000 1.0
C      1  0.6412590000000  0.5856230000000  0.3524670000000 1.0
C      1  0.3587510000000  0.6705880000000  0.5003910000000 1.0
C      1  0.6412590000000  0.5849460000000  0.6479240000000 1.0
C      1  0.5672100000000  0.4015620000000  0.4997750000000 1.0
C      1  0.4327840000000  0.4509810000000  0.4146400000000 1.0
C      1  0.5672160000000  0.5494100000000  0.4148650000000 1.0
C      1  0.4327900000000  0.5984380000000  0.5002250000000 1.0
C      1  0.5672160000000  0.5490190000000  0.5853600000000 1.0
C      1  0.4327840000000  0.4505900000000  0.5851350000000 1.0
C      1  0.3978030000000  0.4205950000000  0.2653010000000 1.0
C      1  0.6022010000000  0.6635460000000  0.3138810000000 1.0
C      1  0.3978160000000  0.7429640000000  0.5485790000000 1.0
C      1  0.6021970000000  0.5794050000000  0.7346990000000 1.0
C      1  0.3977990000000  0.3364540000000  0.6861190000000 1.0
C      1  0.6021840000000  0.2570360000000  0.4514210000000 1.0
C      1  0.5126150000000  0.6791540000000  0.3473880000000 1.0
C      1  0.4874010000000  0.7217440000000  0.5788460000000 1.0
C      1  0.5126090000000  0.5425880000000  0.7314600000000 1.0
C      1  0.4873850000000  0.3208460000000  0.6526120000000 1.0
C      1  0.5125990000000  0.2782560000000  0.4211540000000 1.0
C      1  0.4873910000000  0.4574120000000  0.2685400000000 1.0
C      1  0.5161660000000  0.6664090000000  0.5003810000000 1.0
C      1  0.4838430000000  0.5828750000000  0.6443060000000 1.0
C      1  0.5161560000000  0.4164650000000  0.6439250000000 1.0
C      1  0.4838340000000  0.3335910000000  0.4996190000000 1.0
C      1  0.5161570000000  0.4171250000000  0.3556940000000 1.0
C      1  0.4838440000000  0.5835350000000  0.3560750000000 1.0
END
