TITL C-2159255-4746-1181 -0.00282449939421926 3375 -415.444084992248 0 0 60 (C1) n - 1
REM
REM in /scratch/bkarasulu/871
REM
REM
REM
REM
REM
REM ./C.cell (a2850807a9bf4ad07a5b6933b78d9264)
REM AIRSS Version 0.9.1 bugfix July 2018 build 013d7b7c2542+ Fri, 06 Jul 2018 19:26:36 +0100
REM compiler GCC version 9.2.1 20190827 (Red Hat 9.2.1-1)
REM options -cpp -mtune=generic -march=x86-64 -g -O0 -fpre-include=/usr/include/finclude/math-vector-fortran.h
REM seed -985656581 -531516315 -114822550 1457144314 62986801 -866619333 1597880648 -561371254 -333100525 921582434 -190646388 1140850515 -462162993 1497464065 -550001074 -2145751455 993392147 686962361 2130891836 531823781 1976754964 776329817 -1383803904 -280902610 786645989 -1190401107 -1566432023 -2132136766 -256813237 -145713591 -2006112540 -1168142113 1016362901
REM
CELL 1.54180   15.00000   15.00000   15.00000   90.00000   90.00000   90.00000
LATT -1
SFAC C  
C      1  0.6095130000000  0.4816270000000  0.6925810000000 1.0
C      1  0.5588460000000  0.3986260000000  0.6961280000000 1.0
C      1  0.4659130000000  0.3753550000000  0.7003780000000 1.0
C      1  0.4086800000000  0.4498470000000  0.7110540000000 1.0
C      1  0.3501040000000  0.5674210000000  0.6781510000000 1.0
C      1  0.4999360000000  0.6054070000000  0.6950470000000 1.0
C      1  0.5920730000000  0.5768690000000  0.6915380000000 1.0
C      1  0.3944020000000  0.2861770000000  0.4375080000000 1.0
C      1  0.2748400000000  0.4370640000000  0.4480410000000 1.0
C      1  0.3013040000000  0.6493480000000  0.4251990000000 1.0
C      1  0.5021180000000  0.7462500000000  0.4372350000000 1.0
C      1  0.6774020000000  0.6700840000000  0.4343440000000 1.0
C      1  0.7390100000000  0.4487570000000  0.4294900000000 1.0
C      1  0.6237360000000  0.2917460000000  0.4309170000000 1.0
C      1  0.4812860000000  0.7345670000000  0.5744610000000 1.0
C      1  0.6876060000000  0.6569360000000  0.5738410000000 1.0
C      1  0.7369950000000  0.4542980000000  0.5685400000000 1.0
C      1  0.6214620000000  0.2910250000000  0.5701820000000 1.0
C      1  0.4111580000000  0.2716260000000  0.5758170000000 1.0
C      1  0.2779380000000  0.4491760000000  0.5869300000000 1.0
C      1  0.3070600000000  0.6654200000000  0.5626800000000 1.0
C      1  0.6743640000000  0.4348680000000  0.3647560000000 1.0
C      1  0.6164000000000  0.3568720000000  0.3657470000000 1.0
C      1  0.3904940000000  0.3486040000000  0.3684870000000 1.0
C      1  0.3302200000000  0.4258460000000  0.3738770000000 1.0
C      1  0.3359360000000  0.6242180000000  0.3502120000000 1.0
C      1  0.5275920000000  0.6914210000000  0.3662390000000 1.0
C      1  0.6185090000000  0.6540010000000  0.3633830000000 1.0
C      1  0.3616330000000  0.6478390000000  0.6349090000000 1.0
C      1  0.4542910000000  0.6728310000000  0.6406840000000 1.0
C      1  0.6569150000000  0.6280720000000  0.6506610000000 1.0
C      1  0.6755900000000  0.4368060000000  0.6356680000000 1.0
C      1  0.6225670000000  0.3553860000000  0.6374540000000 1.0
C      1  0.4353670000000  0.3017150000000  0.6542590000000 1.0
C      1  0.3248830000000  0.4766730000000  0.6638890000000 1.0
C      1  0.5580850000000  0.2632290000000  0.4978430000000 1.0
C      1  0.3355820000000  0.2978360000000  0.5154930000000 1.0
C      1  0.2603790000000  0.5100180000000  0.5120440000000 1.0
C      1  0.3391120000000  0.7167880000000  0.4883330000000 1.0
C      1  0.5598330000000  0.7510860000000  0.5173760000000 1.0
C      1  0.7274180000000  0.6106800000000  0.4946150000000 1.0
C      1  0.7420390000000  0.3823060000000  0.5014810000000 1.0
C      1  0.4066170000000  0.5731810000000  0.3194800000000 1.0
C      1  0.4932940000000  0.6118440000000  0.3189750000000 1.0
C      1  0.5831710000000  0.5747600000000  0.3153420000000 1.0
C      1  0.6066110000000  0.4853880000000  0.3159960000000 1.0
C      1  0.5477220000000  0.4062580000000  0.3169800000000 1.0
C      1  0.4550700000000  0.4033170000000  0.3174440000000 1.0
C      1  0.3943460000000  0.4793610000000  0.3216480000000 1.0
C      1  0.4244290000000  0.7452320000000  0.4946890000000 1.0
C      1  0.6464090000000  0.7226220000000  0.5118140000000 1.0
C      1  0.7459200000000  0.5212180000000  0.4956760000000 1.0
C      1  0.6896560000000  0.3087740000000  0.5015860000000 1.0
C      1  0.4669440000000  0.2533530000000  0.4954920000000 1.0
C      1  0.2841260000000  0.3737380000000  0.5233790000000 1.0
C      1  0.2657440000000  0.6003660000000  0.5046660000000 1.0
C      1  0.5307710000000  0.5310580000000  0.5043900000000 1.0
C      1  0.4805150000000  0.4672000000000  0.5131020000000 1.0
C      1  0.4351180000000  0.5416130000000  0.7182650000000 1.0
C      1  0.4970750000000  0.5036990000000  0.2037630000000 1.0
END
