TITL C-2158984-8299-1007 -0.00343830995840831 3375 -421.628763926095 0 0 60 (C5) n - 1
REM
REM in /scratch/bkarasulu/869
REM
REM
REM
REM
REM
REM ./C.cell (a2850807a9bf4ad07a5b6933b78d9264)
REM AIRSS Version 0.9.1 bugfix July 2018 build 013d7b7c2542+ Fri, 06 Jul 2018 19:26:36 +0100
REM compiler GCC version 9.2.1 20190827 (Red Hat 9.2.1-1)
REM options -cpp -mtune=generic -march=x86-64 -g -O0 -fpre-include=/usr/include/finclude/math-vector-fortran.h
REM seed 1202640521 1152925135 -1927059684 1832692351 -1598306610 -1054226069 322620179 -1228689702 -1811900102 -1705601934 -834929797 -1301171211 709919122 -657006411 1561366694 -1115718523 -1131863897 -337319252 2123912945 -207137937 150948679 637826299 720709012 1468115527 -541039620 -455717854 1703268403 -88987238 -1379819703 1620389472 1366340634 674279025 1966616780
REM
CELL 1.54180   15.00000   15.00000   15.00000   90.00000   90.00000   90.00000
LATT -1
SFAC C  
C      1  0.3459720000000  0.4985370000000  0.3198160000000 1.0
C      1  0.4510110000000  0.6460400000000  0.3198190000000 1.0
C      1  0.6237510000000  0.5917200000000  0.3198180000000 1.0
C      1  0.6254710000000  0.4106480000000  0.3198160000000 1.0
C      1  0.4537940000000  0.3530580000000  0.3198150000000 1.0
C      1  0.6540280000000  0.4985370000000  0.3198160000000 1.0
C      1  0.5489890000000  0.6460400000000  0.3198190000000 1.0
C      1  0.3762490000000  0.5917200000000  0.3198180000000 1.0
C      1  0.3745290000000  0.4106480000000  0.3198160000000 1.0
C      1  0.5462060000000  0.3530580000000  0.3198150000000 1.0
C      1  0.5498840000000  0.7266270000000  0.3722020000000 1.0
C      1  0.7309470000000  0.5225870000000  0.3722000000000 1.0
C      1  0.5928480000000  0.2873360000000  0.3722000000000 1.0
C      1  0.3264380000000  0.3459790000000  0.3722010000000 1.0
C      1  0.2998840000000  0.6174720000000  0.3722010000000 1.0
C      1  0.4501160000000  0.7266270000000  0.3722020000000 1.0
C      1  0.2690530000000  0.5225870000000  0.3722000000000 1.0
C      1  0.4071520000000  0.2873360000000  0.3722000000000 1.0
C      1  0.6735620000000  0.3459790000000  0.3722010000000 1.0
C      1  0.7001160000000  0.6174720000000  0.3722010000000 1.0
C      1  0.3076510000000  0.6128480000000  0.6178600000000 1.0
C      1  0.5478870000000  0.7178110000000  0.6178610000000 1.0
C      1  0.7219460000000  0.5217630000000  0.6178610000000 1.0
C      1  0.5892830000000  0.2956400000000  0.6178610000000 1.0
C      1  0.3332350000000  0.3519360000000  0.6178600000000 1.0
C      1  0.6923490000000  0.6128480000000  0.6178600000000 1.0
C      1  0.4521130000000  0.7178110000000  0.6178610000000 1.0
C      1  0.2780540000000  0.5217630000000  0.6178610000000 1.0
C      1  0.4107170000000  0.2956400000000  0.6178610000000 1.0
C      1  0.6667650000000  0.3519360000000  0.6178600000000 1.0
C      1  0.4510090000000  0.7467430000000  0.4648080000000 1.0
C      1  0.7195210000000  0.6228380000000  0.4648080000000 1.0
C      1  0.6846610000000  0.3291820000000  0.4648070000000 1.0
C      1  0.3946080000000  0.2715880000000  0.4648070000000 1.0
C      1  0.2501980000000  0.5296520000000  0.4648070000000 1.0
C      1  0.5489910000000  0.7467430000000  0.4648080000000 1.0
C      1  0.2804790000000  0.6228380000000  0.4648080000000 1.0
C      1  0.3153390000000  0.3291820000000  0.4648070000000 1.0
C      1  0.6053920000000  0.2715880000000  0.4648070000000 1.0
C      1  0.7498020000000  0.5296520000000  0.4648070000000 1.0
C      1  0.7100800000000  0.3808890000000  0.5400370000000 1.0
C      1  0.4516370000000  0.2633910000000  0.5400380000000 1.0
C      1  0.2600280000000  0.4728800000000  0.5400380000000 1.0
C      1  0.4000530000000  0.7198470000000  0.5400380000000 1.0
C      1  0.6781990000000  0.6629910000000  0.5400370000000 1.0
C      1  0.2899200000000  0.3808890000000  0.5400370000000 1.0
C      1  0.5483630000000  0.2633910000000  0.5400380000000 1.0
C      1  0.7399720000000  0.4728800000000  0.5400380000000 1.0
C      1  0.5999470000000  0.7198470000000  0.5400380000000 1.0
C      1  0.3218010000000  0.6629910000000  0.5400370000000 1.0
C      1  0.6546230000000  0.4976130000000  0.6852770000000 1.0
C      1  0.5455120000000  0.3522040000000  0.6852780000000 1.0
C      1  0.3735050000000  0.4110440000000  0.6852770000000 1.0
C      1  0.3763110000000  0.5928150000000  0.6852770000000 1.0
C      1  0.5500500000000  0.6463190000000  0.6852770000000 1.0
C      1  0.3453770000000  0.4976130000000  0.6852770000000 1.0
C      1  0.4544880000000  0.3522040000000  0.6852780000000 1.0
C      1  0.6264950000000  0.4110440000000  0.6852770000000 1.0
C      1  0.6236890000000  0.5928150000000  0.6852770000000 1.0
C      1  0.4499500000000  0.6463190000000  0.6852770000000 1.0
END
