TITL C-2158984-8299-355 -0.00381637087883621 3375 -411.730420307529 0 0 60 (Cs) n - 1
REM
REM in /scratch/bkarasulu/869
REM
REM
REM
REM
REM
REM ./C.cell (a2850807a9bf4ad07a5b6933b78d9264)
REM AIRSS Version 0.9.1 bugfix July 2018 build 013d7b7c2542+ Fri, 06 Jul 2018 19:26:36 +0100
REM compiler GCC version 9.2.1 20190827 (Red Hat 9.2.1-1)
REM options -cpp -mtune=generic -march=x86-64 -g -O0 -fpre-include=/usr/include/finclude/math-vector-fortran.h
REM seed -137404945 514230547 -270017524 1594355896 -1498323025 1137132400 648464333 -1382267554 1199291251 1040089467 -1593586402 -941007638 -1544529317 -1267293602 -1716965465 -840857373 -1749573486 -348109821 218521313 905583671 -737696726 -1900233720 -1630316995 -76573429 1457398694 -1987292941 -1102891966 110123899 1627913497 -1952370681 -1785809413 1237981200 -1889075889
REM
CELL 1.54180   15.00000   15.00000   15.00000   90.00000   90.00000   90.00000
LATT -1
SFAC C  
C      1  0.2423960000000  0.4829980000000  0.4728340000000 1.0
C      1  0.2804070000000  0.6208930000000  0.4584580000000 1.0
C      1  0.3803430000000  0.7201400000000  0.4584580000000 1.0
C      1  0.5185060000000  0.7571810000000  0.4728190000000 1.0
C      1  0.6494380000000  0.6996780000000  0.4582750000000 1.0
C      1  0.7333460000000  0.5864680000000  0.4582230000000 1.0
C      1  0.7498240000000  0.4445260000000  0.4717570000000 1.0
C      1  0.6736430000000  0.3248350000000  0.4580950000000 1.0
C      1  0.5534220000000  0.2494970000000  0.4717690000000 1.0
C      1  0.4115980000000  0.2669680000000  0.4582450000000 1.0
C      1  0.2989770000000  0.3516640000000  0.4583030000000 1.0
C      1  0.5930160000000  0.7580780000000  0.4163550000000 1.0
C      1  0.7175080000000  0.6624540000000  0.4083680000000 1.0
C      1  0.7725720000000  0.5157940000000  0.4159590000000 1.0
C      1  0.7390520000000  0.3712890000000  0.4147190000000 1.0
C      1  0.6267280000000  0.2597510000000  0.4147260000000 1.0
C      1  0.4819920000000  0.2272450000000  0.4159780000000 1.0
C      1  0.3357190000000  0.2833320000000  0.4083970000000 1.0
C      1  0.2409720000000  0.4084910000000  0.4163780000000 1.0
C      1  0.2308990000000  0.5566320000000  0.4164120000000 1.0
C      1  0.3076670000000  0.6933820000000  0.4082910000000 1.0
C      1  0.4449490000000  0.7691910000000  0.4164040000000 1.0
C      1  0.4359770000000  0.3345030000000  0.5256800000000 1.0
C      1  0.3571520000000  0.3941250000000  0.5254040000000 1.0
C      1  0.3209290000000  0.4883570000000  0.5305990000000 1.0
C      1  0.3438950000000  0.5867360000000  0.5255290000000 1.0
C      1  0.4140610000000  0.6564140000000  0.5255270000000 1.0
C      1  0.5126010000000  0.6786900000000  0.5305860000000 1.0
C      1  0.6065770000000  0.6418070000000  0.5253860000000 1.0
C      1  0.6656460000000  0.5625680000000  0.5256640000000 1.0
C      1  0.6734520000000  0.4621300000000  0.5306380000000 1.0
C      1  0.6233890000000  0.3754470000000  0.5254680000000 1.0
C      1  0.5363580000000  0.3259940000000  0.5306460000000 1.0
C      1  0.2508240000000  0.5326530000000  0.3261020000000 1.0
C      1  0.3115970000000  0.6894230000000  0.3157150000000 1.0
C      1  0.4687780000000  0.7490880000000  0.3260930000000 1.0
C      1  0.5661880000000  0.7420120000000  0.3260660000000 1.0
C      1  0.7135510000000  0.6598360000000  0.3158640000000 1.0
C      1  0.7499600000000  0.4952490000000  0.3251250000000 1.0
C      1  0.7290170000000  0.4004280000000  0.3244090000000 1.0
C      1  0.5976560000000  0.2699830000000  0.3244170000000 1.0
C      1  0.5026910000000  0.2497050000000  0.3251410000000 1.0
C      1  0.3383600000000  0.2872640000000  0.3158920000000 1.0
C      1  0.2572200000000  0.4351950000000  0.3260850000000 1.0
C      1  0.6662680000000  0.5155250000000  0.2780820000000 1.0
C      1  0.6440460000000  0.4197160000000  0.2752770000000 1.0
C      1  0.5789600000000  0.3550830000000  0.2752800000000 1.0
C      1  0.4829980000000  0.3335330000000  0.2780950000000 1.0
C      1  0.3942790000000  0.3620590000000  0.2772730000000 1.0
C      1  0.3430890000000  0.4405320000000  0.2785690000000 1.0
C      1  0.3368360000000  0.5386140000000  0.2786730000000 1.0
C      1  0.3774830000000  0.6230620000000  0.2772670000000 1.0
C      1  0.4622150000000  0.6631170000000  0.2786690000000 1.0
C      1  0.5602500000000  0.6561800000000  0.2785540000000 1.0
C      1  0.6383630000000  0.6044410000000  0.2772530000000 1.0
C      1  0.4989370000000  0.5007650000000  0.3982280000000 1.0
C      1  0.4990320000000  0.5006750000000  0.4828780000000 1.0
C      1  0.4988650000000  0.5008480000000  0.5695490000000 1.0
C      1  0.4986220000000  0.5010940000000  0.6571230000000 1.0
C      1  0.4989500000000  0.5007930000000  0.7408550000000 1.0
END
