TITL C-2159252-5904-115 -0.00267839600021895 3375 -430.644818917876 0 0 60 (C1) n - 1
REM
REM in /scratch/bkarasulu/870
REM
REM
REM
REM
REM
REM ./C.cell (a2850807a9bf4ad07a5b6933b78d9264)
REM AIRSS Version 0.9.1 bugfix July 2018 build 013d7b7c2542+ Fri, 06 Jul 2018 19:26:36 +0100
REM compiler GCC version 9.2.1 20190827 (Red Hat 9.2.1-1)
REM options -cpp -mtune=generic -march=x86-64 -g -O0 -fpre-include=/usr/include/finclude/math-vector-fortran.h
REM seed 2062053215 -171712918 473249418 2001778168 319592970 -2113462668 -707518794 -83777171 -234720899 -1237662074 896859954 -1768531325 1464783775 899458281 -1229650151 1840718654 227176183 1037284196 -238739269 330783673 -748382247 1416306970 -1439125293 -280150340 -618115439 2109321030 -356688068 1140590025 -1288031903 1486907859 -1435179006 1967150067 1830420226
REM
CELL 1.54180   15.00000   15.00000   15.00000   90.00000   90.00000   90.00000
LATT -1
SFAC C  
C      1  0.6096560000000  0.6794990000000  0.5541010000000 1.0
C      1  0.6175790000000  0.6693480000000  0.4552380000000 1.0
C      1  0.6247790000000  0.6101980000000  0.3840440000000 1.0
C      1  0.6330720000000  0.5146870000000  0.3417610000000 1.0
C      1  0.6039200000000  0.4201250000000  0.3447770000000 1.0
C      1  0.6030350000000  0.3573970000000  0.4176600000000 1.0
C      1  0.6506770000000  0.3858590000000  0.4947360000000 1.0
C      1  0.6169800000000  0.3753160000000  0.5838370000000 1.0
C      1  0.6190100000000  0.4496220000000  0.6443770000000 1.0
C      1  0.6511300000000  0.5343900000000  0.6133940000000 1.0
C      1  0.6088830000000  0.6195980000000  0.6265830000000 1.0
C      1  0.4127310000000  0.5440470000000  0.7209930000000 1.0
C      1  0.3808380000000  0.6171220000000  0.6728210000000 1.0
C      1  0.3805270000000  0.7396100000000  0.5359900000000 1.0
C      1  0.3852020000000  0.7353950000000  0.4400560000000 1.0
C      1  0.3953040000000  0.5982710000000  0.3134660000000 1.0
C      1  0.4161530000000  0.5158440000000  0.2712300000000 1.0
C      1  0.3774460000000  0.4328380000000  0.2971510000000 1.0
C      1  0.3646450000000  0.2793060000000  0.3945240000000 1.0
C      1  0.3517510000000  0.2486410000000  0.4824760000000 1.0
C      1  0.3958610000000  0.2943710000000  0.6167210000000 1.0
C      1  0.3904280000000  0.4547880000000  0.7022450000000 1.0
C      1  0.5054720000000  0.5611060000000  0.7405740000000 1.0
C      1  0.4555960000000  0.6753740000000  0.6578350000000 1.0
C      1  0.4570240000000  0.7390290000000  0.5890390000000 1.0
C      1  0.4659070000000  0.7267960000000  0.3946990000000 1.0
C      1  0.4690790000000  0.6601910000000  0.3274040000000 1.0
C      1  0.5061460000000  0.4969130000000  0.2462760000000 1.0
C      1  0.4508590000000  0.3697500000000  0.3050550000000 1.0
C      1  0.4522160000000  0.3018440000000  0.3680310000000 1.0
C      1  0.4220740000000  0.2447370000000  0.5397520000000 1.0
C      1  0.4756820000000  0.3271460000000  0.6531300000000 1.0
C      1  0.4720440000000  0.4033020000000  0.7032310000000 1.0
C      1  0.5441300000000  0.7372550000000  0.4473090000000 1.0
C      1  0.5580560000000  0.6309550000000  0.3128750000000 1.0
C      1  0.5747980000000  0.5514510000000  0.2691800000000 1.0
C      1  0.5299910000000  0.4133340000000  0.2842130000000 1.0
C      1  0.5298560000000  0.2974560000000  0.4270120000000 1.0
C      1  0.5119970000000  0.2673470000000  0.5158050000000 1.0
C      1  0.5481540000000  0.3121960000000  0.5913880000000 1.0
C      1  0.5554540000000  0.4493350000000  0.7162260000000 1.0
C      1  0.5607380000000  0.5085580000000  0.7890100000000 1.0
C      1  0.5340020000000  0.6306340000000  0.6834100000000 1.0
C      1  0.5392220000000  0.7448760000000  0.5424730000000 1.0
C      1  0.3058700000000  0.4294300000000  0.3592560000000 1.0
C      1  0.2984860000000  0.3501160000000  0.4083710000000 1.0
C      1  0.2930260000000  0.3255540000000  0.5048250000000 1.0
C      1  0.3227980000000  0.3529190000000  0.5945550000000 1.0
C      1  0.3202330000000  0.4378420000000  0.6389220000000 1.0
C      1  0.2886760000000  0.5135690000000  0.5871920000000 1.0
C      1  0.3130120000000  0.6043720000000  0.6073170000000 1.0
C      1  0.3160610000000  0.6670890000000  0.5372930000000 1.0
C      1  0.3198020000000  0.6636730000000  0.4392440000000 1.0
C      1  0.3211730000000  0.5952200000000  0.3756200000000 1.0
C      1  0.2866250000000  0.5109500000000  0.4060910000000 1.0
C      1  0.4076480000000  0.4562320000000  0.4973640000000 1.0
C      1  0.6982260000000  0.5304240000000  0.5335380000000 1.0
C      1  0.4767960000000  0.5057600000000  0.4984730000000 1.0
C      1  0.6961190000000  0.4640940000000  0.4807750000000 1.0
C      1  0.2983550000000  0.4917110000000  0.4970740000000 1.0
END
