TITL C-2159255-4746-26 -0.0019255604943852 3375 -399.03013532576 0 0 60 (C1) n - 1
REM
REM in /scratch/bkarasulu/871
REM
REM
REM
REM
REM
REM ./C.cell (a2850807a9bf4ad07a5b6933b78d9264)
REM AIRSS Version 0.9.1 bugfix July 2018 build 013d7b7c2542+ Fri, 06 Jul 2018 19:26:36 +0100
REM compiler GCC version 9.2.1 20190827 (Red Hat 9.2.1-1)
REM options -cpp -mtune=generic -march=x86-64 -g -O0 -fpre-include=/usr/include/finclude/math-vector-fortran.h
REM seed 91323564 1888260620 1815638564 -235719661 1862613113 983920302 83677010 452055987 1179863446 1996968101 -695440540 1552115150 -192252957 -119140437 834463561 -2078218585 -2122706986 -1558698444 -1455990958 1896619719 -818514311 -1222463812 1553939962 1667396016 -304392070 1156030518 697959262 -1880615870 1854514171 300812248 2027793958 -1953584689 -735557648
REM
CELL 1.54180   15.00000   15.00000   15.00000   90.00000   90.00000   90.00000
LATT -1
SFAC C  
C      1  0.3985550000000  0.3903260000000  0.6263690000000 1.0
C      1  0.4411930000000  0.3910610000000  0.3453960000000 1.0
C      1  0.6567150000000  0.3945750000000  0.5253140000000 1.0
C      1  0.3224580000000  0.5920200000000  0.3494540000000 1.0
C      1  0.7083390000000  0.5938100000000  0.4125290000000 1.0
C      1  0.4590460000000  0.5988180000000  0.7187200000000 1.0
C      1  0.4692600000000  0.5613720000000  0.4020100000000 1.0
C      1  0.5925640000000  0.5651890000000  0.5128290000000 1.0
C      1  0.4362490000000  0.5576970000000  0.5636400000000 1.0
C      1  0.4449230000000  0.4667270000000  0.4204100000000 1.0
C      1  0.5917310000000  0.4719240000000  0.4840710000000 1.0
C      1  0.4644530000000  0.4620960000000  0.5785940000000 1.0
C      1  0.6468510000000  0.5757640000000  0.5914540000000 1.0
C      1  0.3404950000000  0.5700330000000  0.5744930000000 1.0
C      1  0.5050850000000  0.5692040000000  0.3132170000000 1.0
C      1  0.3371750000000  0.4669320000000  0.4289570000000 1.0
C      1  0.6368800000000  0.4637740000000  0.3883710000000 1.0
C      1  0.5218670000000  0.4736520000000  0.6681340000000 1.0
C      1  0.6058200000000  0.5247900000000  0.3149480000000 1.0
C      1  0.5967460000000  0.5400470000000  0.6757490000000 1.0
C      1  0.2910500000000  0.5321450000000  0.4903040000000 1.0
C      1  0.4093480000000  0.7016150000000  0.4412990000000 1.0
C      1  0.5833020000000  0.7050730000000  0.4459860000000 1.0
C      1  0.4927060000000  0.7017780000000  0.5958480000000 1.0
C      1  0.6729340000000  0.4737200000000  0.6573590000000 1.0
C      1  0.2697120000000  0.4640080000000  0.5686110000000 1.0
C      1  0.5486510000000  0.4626980000000  0.2615700000000 1.0
C      1  0.4641430000000  0.5062140000000  0.2525630000000 1.0
C      1  0.7221640000000  0.5155960000000  0.5881980000000 1.0
C      1  0.3057980000000  0.5106570000000  0.6424660000000 1.0
C      1  0.3366410000000  0.3723710000000  0.4613660000000 1.0
C      1  0.6069610000000  0.3710040000000  0.3748930000000 1.0
C      1  0.5497370000000  0.3737060000000  0.6637970000000 1.0
C      1  0.3213970000000  0.6934810000000  0.4641700000000 1.0
C      1  0.5914780000000  0.6811390000000  0.3601190000000 1.0
C      1  0.5564180000000  0.7008350000000  0.6617350000000 1.0
C      1  0.4048440000000  0.6296090000000  0.3748150000000 1.0
C      1  0.6486810000000  0.6353020000000  0.4723150000000 1.0
C      1  0.4397010000000  0.6291820000000  0.6318420000000 1.0
C      1  0.3980210000000  0.3249970000000  0.4071450000000 1.0
C      1  0.6226780000000  0.3294400000000  0.4583020000000 1.0
C      1  0.4695440000000  0.3315270000000  0.6639860000000 1.0
C      1  0.5556030000000  0.6202170000000  0.7133520000000 1.0
C      1  0.2784840000000  0.6124510000000  0.4361270000000 1.0
C      1  0.6491310000000  0.6089930000000  0.3358130000000 1.0
C      1  0.3216080000000  0.3841390000000  0.5554980000000 1.0
C      1  0.5351940000000  0.3820260000000  0.3121860000000 1.0
C      1  0.6356400000000  0.3898360000000  0.6217900000000 1.0
C      1  0.7218680000000  0.4997450000000  0.4277550000000 1.0
C      1  0.4450030000000  0.5061770000000  0.7214690000000 1.0
C      1  0.3276760000000  0.4982220000000  0.3352050000000 1.0
C      1  0.7325310000000  0.4607600000000  0.5124450000000 1.0
C      1  0.3687340000000  0.4620010000000  0.6909310000000 1.0
C      1  0.3924570000000  0.4543330000000  0.2846990000000 1.0
C      1  0.5316420000000  0.3324100000000  0.4720500000000 1.0
C      1  0.4982460000000  0.5932990000000  0.4933510000000 1.0
C      1  0.4607050000000  0.1738420000000  0.4571220000000 1.0
C      1  0.5029460000000  0.4300400000000  0.4918430000000 1.0
C      1  0.4656790000000  0.2617310000000  0.4425030000000 1.0
C      1  0.4954310000000  0.6962690000000  0.4952500000000 1.0
END
