TITL C-2159255-4746-375 -0.00424165109982246 3375 -401.28233885741 0 0 60 (C3) n - 1
REM
REM in /scratch/bkarasulu/871
REM
REM
REM
REM
REM
REM ./C.cell (a2850807a9bf4ad07a5b6933b78d9264)
REM AIRSS Version 0.9.1 bugfix July 2018 build 013d7b7c2542+ Fri, 06 Jul 2018 19:26:36 +0100
REM compiler GCC version 9.2.1 20190827 (Red Hat 9.2.1-1)
REM options -cpp -mtune=generic -march=x86-64 -g -O0 -fpre-include=/usr/include/finclude/math-vector-fortran.h
REM seed 937375983 -791646241 197379243 2062240989 -908802106 -7946178 -460306268 -1816111575 1220901468 -1591140397 -728865316 2048368390 1134515465 965710967 427901885 670373677 -922414845 -1220122712 -1680027152 -442712615 1748361729 -1739722127 -545758114 -1248705072 918891666 -572992433 509612586 790172581 -796022033 -286004271 -924095606 -657467254 493362003
REM
CELL 1.54180   15.00000   15.00000   15.00000   90.00000   90.00000   90.00000
LATT -1
SFAC C  
C      1  0.5855500000000  0.4815380000000  0.4493100000000 1.0
C      1  0.5011250000000  0.4815370000000  0.5994330000000 1.0
C      1  0.4133270000000  0.4815380000000  0.4512570000000 1.0
C      1  0.5855500000000  0.4815380000000  0.5506900000000 1.0
C      1  0.5011250000000  0.4815370000000  0.4005670000000 1.0
C      1  0.4133270000000  0.4815380000000  0.5487430000000 1.0
C      1  0.6191580000000  0.6264490000000  0.6101220000000 1.0
C      1  0.3450490000000  0.6264480000000  0.5481340000000 1.0
C      1  0.5357880000000  0.6264480000000  0.3417440000000 1.0
C      1  0.6191580000000  0.6264490000000  0.3898780000000 1.0
C      1  0.3450490000000  0.6264480000000  0.4518660000000 1.0
C      1  0.5357880000000  0.6264480000000  0.6582560000000 1.0
C      1  0.5855710000000  0.3117640000000  0.4524740000000 1.0
C      1  0.4983750000000  0.3117640000000  0.5978680000000 1.0
C      1  0.4160580000000  0.3117640000000  0.4496580000000 1.0
C      1  0.5855710000000  0.3117640000000  0.5475260000000 1.0
C      1  0.4983750000000  0.3117640000000  0.4021320000000 1.0
C      1  0.4160580000000  0.3117640000000  0.5503420000000 1.0
C      1  0.4257400000000  0.4134730000000  0.7267070000000 1.0
C      1  0.3407960000000  0.4134730000000  0.3223360000000 1.0
C      1  0.7334660000000  0.4134750000000  0.4509570000000 1.0
C      1  0.4257400000000  0.4134730000000  0.2732930000000 1.0
C      1  0.3407960000000  0.4134730000000  0.6776640000000 1.0
C      1  0.7334660000000  0.4134750000000  0.5490430000000 1.0
C      1  0.3834240000000  0.3932160000000  0.4076880000000 1.0
C      1  0.6382350000000  0.3932170000000  0.4451980000000 1.0
C      1  0.4783440000000  0.3932160000000  0.6471150000000 1.0
C      1  0.3834240000000  0.3932160000000  0.5923120000000 1.0
C      1  0.6382350000000  0.3932170000000  0.5548020000000 1.0
C      1  0.4783440000000  0.3932160000000  0.3528850000000 1.0
C      1  0.6532400000000  0.5451070000000  0.4172970000000 1.0
C      1  0.4950030000000  0.5451060000000  0.6740610000000 1.0
C      1  0.3517560000000  0.5451060000000  0.4086420000000 1.0
C      1  0.6532400000000  0.5451070000000  0.5827030000000 1.0
C      1  0.4950030000000  0.5451060000000  0.3259390000000 1.0
C      1  0.3517560000000  0.5451060000000  0.5913580000000 1.0
C      1  0.5287030000000  0.2205410000000  0.3663580000000 1.0
C      1  0.6013900000000  0.2205420000000  0.5916780000000 1.0
C      1  0.3699110000000  0.2205420000000  0.5419660000000 1.0
C      1  0.5287030000000  0.2205410000000  0.6336420000000 1.0
C      1  0.6013900000000  0.2205420000000  0.4083220000000 1.0
C      1  0.3699110000000  0.2205420000000  0.4580340000000 1.0
C      1  0.4241450000000  0.5115040000000  0.2722730000000 1.0
C      1  0.7351460000000  0.5115070000000  0.5481710000000 1.0
C      1  0.3407100000000  0.5115040000000  0.6795560000000 1.0
C      1  0.4241450000000  0.5115040000000  0.7277270000000 1.0
C      1  0.7351460000000  0.5115070000000  0.4518290000000 1.0
C      1  0.3407100000000  0.5115040000000  0.3204440000000 1.0
C      1  0.4150120000000  0.7980170000000  0.5486940000000 1.0
C      1  0.5003210000000  0.7980170000000  0.4020530000000 1.0
C      1  0.5846610000000  0.7980180000000  0.5492530000000 1.0
C      1  0.4150120000000  0.7980170000000  0.4513060000000 1.0
C      1  0.5003210000000  0.7980170000000  0.5979470000000 1.0
C      1  0.5846610000000  0.7980180000000  0.4507470000000 1.0
C      1  0.4973580000000  0.6983890000000  0.3983510000000 1.0
C      1  0.5893490000000  0.6983900000000  0.5485380000000 1.0
C      1  0.4132870000000  0.6983890000000  0.5531110000000 1.0
C      1  0.4973580000000  0.6983890000000  0.6016490000000 1.0
C      1  0.5893490000000  0.6983900000000  0.4514620000000 1.0
C      1  0.4132870000000  0.6983890000000  0.4468890000000 1.0
END
