TITL C-2158984-8299-252 -0.00226431433364404 3375 -416.448250015627 0 0 60 (C2) n - 1
REM
REM in /scratch/bkarasulu/869
REM
REM
REM
REM
REM
REM ./C.cell (a2850807a9bf4ad07a5b6933b78d9264)
REM AIRSS Version 0.9.1 bugfix July 2018 build 013d7b7c2542+ Fri, 06 Jul 2018 19:26:36 +0100
REM compiler GCC version 9.2.1 20190827 (Red Hat 9.2.1-1)
REM options -cpp -mtune=generic -march=x86-64 -g -O0 -fpre-include=/usr/include/finclude/math-vector-fortran.h
REM seed -1739386862 -1074516895 127732811 -324770135 2125618666 -1315694294 -701930102 41507796 -1932403758 918100771 -2050209332 -966177918 -1189985507 -1031276907 -1916035937 -505506249 -681358658 1430717352 -111534082 -1207707993 -270471410 48945946 1746975855 -442748314 1501828153 -1398430582 -1659301311 1229668848 -292864715 520655007 -985167883 -752346545 1731211718
REM
CELL 1.54180   15.00000   15.00000   15.00000   90.00000   90.00000   90.00000
LATT -1
SFAC C  
C      1  0.4414700000000  0.6935170000000  0.5936360000000 1.0
C      1  0.5585300000000  0.6935170000000  0.4063640000000 1.0
C      1  0.5979320000000  0.3499530000000  0.3488020000000 1.0
C      1  0.4020680000000  0.3499530000000  0.6511980000000 1.0
C      1  0.4157060000000  0.5626630000000  0.3892080000000 1.0
C      1  0.5842940000000  0.5626630000000  0.6107920000000 1.0
C      1  0.2373450000000  0.5989180000000  0.5457100000000 1.0
C      1  0.7626550000000  0.5989180000000  0.4542900000000 1.0
C      1  0.4179730000000  0.2883570000000  0.5798650000000 1.0
C      1  0.5820270000000  0.2883570000000  0.4201350000000 1.0
C      1  0.2909030000000  0.4600630000000  0.3347720000000 1.0
C      1  0.7090970000000  0.4600630000000  0.6652280000000 1.0
C      1  0.4222930000000  0.3131930000000  0.4235460000000 1.0
C      1  0.5777070000000  0.3131930000000  0.5764540000000 1.0
C      1  0.4913840000000  0.5655750000000  0.7403510000000 1.0
C      1  0.5086160000000  0.5655750000000  0.2596490000000 1.0
C      1  0.3647200000000  0.3114380000000  0.5023300000000 1.0
C      1  0.6352800000000  0.3114380000000  0.4976700000000 1.0
C      1  0.5047540000000  0.5499900000000  0.4488690000000 1.0
C      1  0.4952460000000  0.5499900000000  0.5511310000000 1.0
C      1  0.4528660000000  0.7416550000000  0.5097330000000 1.0
C      1  0.5471340000000  0.7416550000000  0.4902670000000 1.0
C      1  0.4584640000000  0.6174230000000  0.3128290000000 1.0
C      1  0.5415360000000  0.6174230000000  0.6871710000000 1.0
C      1  0.3202980000000  0.3920760000000  0.6282250000000 1.0
C      1  0.6797020000000  0.3920760000000  0.3717750000000 1.0
C      1  0.5071930000000  0.4528450000000  0.4535630000000 1.0
C      1  0.4928070000000  0.4528450000000  0.5464370000000 1.0
C      1  0.7018680000000  0.3709110000000  0.4632080000000 1.0
C      1  0.2981320000000  0.3709110000000  0.5367920000000 1.0
C      1  0.3600800000000  0.6340360000000  0.4349240000000 1.0
C      1  0.6399200000000  0.6340360000000  0.5650760000000 1.0
C      1  0.3245420000000  0.6145100000000  0.5212730000000 1.0
C      1  0.6754580000000  0.6145100000000  0.4787270000000 1.0
C      1  0.5273570000000  0.4050150000000  0.3185010000000 1.0
C      1  0.4726430000000  0.4050150000000  0.6814990000000 1.0
C      1  0.7538500000000  0.5122080000000  0.4356230000000 1.0
C      1  0.2461500000000  0.5122080000000  0.5643770000000 1.0
C      1  0.5879180000000  0.7117700000000  0.5722780000000 1.0
C      1  0.4120820000000  0.7117700000000  0.4277220000000 1.0
C      1  0.4474350000000  0.4030540000000  0.3810530000000 1.0
C      1  0.5525650000000  0.4030540000000  0.6189470000000 1.0
C      1  0.3754020000000  0.5383860000000  0.6575730000000 1.0
C      1  0.6245980000000  0.5383860000000  0.3424270000000 1.0
C      1  0.5225620000000  0.6978020000000  0.6412750000000 1.0
C      1  0.4774380000000  0.6978020000000  0.3587250000000 1.0
C      1  0.3817010000000  0.4722510000000  0.3620650000000 1.0
C      1  0.6182990000000  0.4722510000000  0.6379350000000 1.0
C      1  0.6975300000000  0.4838910000000  0.3606980000000 1.0
C      1  0.3024700000000  0.4838910000000  0.6393020000000 1.0
C      1  0.7550640000000  0.4402460000000  0.5020120000000 1.0
C      1  0.2449360000000  0.4402460000000  0.4979880000000 1.0
C      1  0.5532900000000  0.4948710000000  0.2950350000000 1.0
C      1  0.4467100000000  0.4948710000000  0.7049650000000 1.0
C      1  0.4978780000000  0.2621870000000  0.4503830000000 1.0
C      1  0.5021220000000  0.2621870000000  0.5496170000000 1.0
C      1  0.4023610000000  0.6017670000000  0.5863090000000 1.0
C      1  0.5976390000000  0.6017670000000  0.4136910000000 1.0
C      1  0.7555730000000  0.4594310000000  0.5935400000000 1.0
C      1  0.2444270000000  0.4594310000000  0.4064600000000 1.0
END
