TITL C-2159252-5904-86 -0.00418775662438877 3375 -392.171451833675 0 0 60 (C1) n - 1
REM
REM in /scratch/bkarasulu/870
REM
REM
REM
REM
REM
REM ./C.cell (a2850807a9bf4ad07a5b6933b78d9264)
REM AIRSS Version 0.9.1 bugfix July 2018 build 013d7b7c2542+ Fri, 06 Jul 2018 19:26:36 +0100
REM compiler GCC version 9.2.1 20190827 (Red Hat 9.2.1-1)
REM options -cpp -mtune=generic -march=x86-64 -g -O0 -fpre-include=/usr/include/finclude/math-vector-fortran.h
REM seed 1924287969 -459218521 -528792262 -2058418260 1825152711 1549385643 -931004604 452082407 1166141365 -73454848 -913167848 709054771 -1892929584 -940538633 2038788556 -1603957007 -54870844 -1461944755 -317371597 -1003124656 982564817 1312002278 2095140513 -243162776 759970527 1048679063 666166557 -1841760004 382205214 2090687047 -644620124 1498626424 1670781827
REM
CELL 1.54180   15.00000   15.00000   15.00000   90.00000   90.00000   90.00000
LATT -1
SFAC C  
C      1  0.6920230000000  0.3186790000000  0.4847780000000 1.0
C      1  0.5629930000000  0.2421610000000  0.4846910000000 1.0
C      1  0.4131310000000  0.2476600000000  0.4850990000000 1.0
C      1  0.2899650000000  0.3332580000000  0.4849030000000 1.0
C      1  0.2326810000000  0.4718760000000  0.4851180000000 1.0
C      1  0.2593540000000  0.6194470000000  0.4847260000000 1.0
C      1  0.3616890000000  0.7291360000000  0.4848140000000 1.0
C      1  0.5069800000000  0.7661210000000  0.4845040000000 1.0
C      1  0.6492670000000  0.7186370000000  0.4845170000000 1.0
C      1  0.7432560000000  0.6018540000000  0.4845080000000 1.0
C      1  0.7592180000000  0.4527060000000  0.4844740000000 1.0
C      1  0.6177860000000  0.5970620000000  0.6342110000000 1.0
C      1  0.6512820000000  0.5161560000000  0.6345130000000 1.0
C      1  0.6357410000000  0.4299400000000  0.6354910000000 1.0
C      1  0.5760620000000  0.3657110000000  0.6367170000000 1.0
C      1  0.4910550000000  0.3439300000000  0.6379180000000 1.0
C      1  0.4077250000000  0.3716300000000  0.6386200000000 1.0
C      1  0.3526570000000  0.4400580000000  0.6386120000000 1.0
C      1  0.3434180000000  0.5273820000000  0.6378990000000 1.0
C      1  0.3828690000000  0.6057630000000  0.6366930000000 1.0
C      1  0.4583690000000  0.6503300000000  0.6354700000000 1.0
C      1  0.5459120000000  0.6470790000000  0.6345020000000 1.0
C      1  0.1962150000000  0.5547220000000  0.4977190000000 1.0
C      1  0.2735270000000  0.7088350000000  0.4971170000000 1.0
C      1  0.4219140000000  0.7966720000000  0.4976950000000 1.0
C      1  0.5941610000000  0.7903870000000  0.4966660000000 1.0
C      1  0.7356720000000  0.6919620000000  0.4975850000000 1.0
C      1  0.8015680000000  0.5326810000000  0.4966440000000 1.0
C      1  0.7708740000000  0.3630730000000  0.4976550000000 1.0
C      1  0.6533450000000  0.2368920000000  0.4970770000000 1.0
C      1  0.4862650000000  0.1943180000000  0.4976780000000 1.0
C      1  0.3226380000000  0.2488800000000  0.4975000000000 1.0
C      1  0.2145230000000  0.3832140000000  0.4975040000000 1.0
C      1  0.3485330000000  0.5746950000000  0.4576230000000 1.0
C      1  0.4124300000000  0.6433420000000  0.4576720000000 1.0
C      1  0.5033340000000  0.6665240000000  0.4572790000000 1.0
C      1  0.5924130000000  0.6369220000000  0.4572160000000 1.0
C      1  0.6512690000000  0.5637870000000  0.4572140000000 1.0
C      1  0.6611390000000  0.4704400000000  0.4572650000000 1.0
C      1  0.6190590000000  0.3865950000000  0.4576550000000 1.0
C      1  0.5383400000000  0.3388530000000  0.4576040000000 1.0
C      1  0.4446690000000  0.3423010000000  0.4580520000000 1.0
C      1  0.3677270000000  0.3958420000000  0.4578470000000 1.0
C      1  0.3318750000000  0.4824510000000  0.4580620000000 1.0
C      1  0.3457670000000  0.5283830000000  0.2581070000000 1.0
C      1  0.3829640000000  0.6082920000000  0.2571910000000 1.0
C      1  0.4603290000000  0.6498270000000  0.2561720000000 1.0
C      1  0.5484440000000  0.6512250000000  0.2553440000000 1.0
C      1  0.6180630000000  0.5973580000000  0.2550390000000 1.0
C      1  0.6557860000000  0.5178300000000  0.2553530000000 1.0
C      1  0.6356010000000  0.4320450000000  0.2561870000000 1.0
C      1  0.5784690000000  0.3653690000000  0.2572060000000 1.0
C      1  0.4924660000000  0.3460630000000  0.2581180000000 1.0
C      1  0.4088370000000  0.3723720000000  0.2586880000000 1.0
C      1  0.3535280000000  0.4410550000000  0.2586840000000 1.0
C      1  0.4951750000000  0.4983640000000  0.5612480000000 1.0
C      1  0.4944040000000  0.4977470000000  0.3946800000000 1.0
C      1  0.5010880000000  0.5032350000000  0.4827910000000 1.0
C      1  0.4978070000000  0.5005110000000  0.7406980000000 1.0
C      1  0.5002370000000  0.5025560000000  0.3205330000000 1.0
END
