TITL C-2158984-8299-506 -0.00305546396961025 3375 -432.849122290704 0 0 60 (S10) n - 1
REM
REM in /scratch/bkarasulu/869
REM
REM
REM
REM
REM
REM ./C.cell (a2850807a9bf4ad07a5b6933b78d9264)
REM AIRSS Version 0.9.1 bugfix July 2018 build 013d7b7c2542+ Fri, 06 Jul 2018 19:26:36 +0100
REM compiler GCC version 9.2.1 20190827 (Red Hat 9.2.1-1)
REM options -cpp -mtune=generic -march=x86-64 -g -O0 -fpre-include=/usr/include/finclude/math-vector-fortran.h
REM seed -875493315 -575786120 905013956 -1949164923 1368761932 -2019227410 -1605697475 -1812174112 -1768360444 -934002568 521049289 1769526337 22884376 -1921743881 1666337840 -1158534864 -887246944 1472354698 -575705171 318389809 382455736 -437532927 1480077846 21527553 -1730558441 232407831 -561976520 -1162795996 -1616289990 -1813949370 832312782 -1853129272 -1921523371
REM
CELL 1.54180   15.00000   15.00000   15.00000   90.00000   90.00000   90.00000
LATT -1
SFAC C  
C      1  0.3084650000000  0.6122510000000  0.3818690000000 1.0
C      1  0.5475710000000  0.7168500000000  0.3818670000000 1.0
C      1  0.7209360000000  0.5217660000000  0.3818690000000 1.0
C      1  0.5889750000000  0.2966020000000  0.3818710000000 1.0
C      1  0.3340550000000  0.3525260000000  0.3818710000000 1.0
C      1  0.6915350000000  0.6122510000000  0.3818690000000 1.0
C      1  0.4524290000000  0.7168500000000  0.3818670000000 1.0
C      1  0.2790640000000  0.5217660000000  0.3818690000000 1.0
C      1  0.4110250000000  0.2966020000000  0.3818710000000 1.0
C      1  0.6659450000000  0.3525260000000  0.3818710000000 1.0
C      1  0.7209360000000  0.4782340000000  0.6181310000000 1.0
C      1  0.5475710000000  0.2831500000000  0.6181330000000 1.0
C      1  0.3084650000000  0.3877490000000  0.6181310000000 1.0
C      1  0.3340550000000  0.6474740000000  0.6181290000000 1.0
C      1  0.5889750000000  0.7033980000000  0.6181290000000 1.0
C      1  0.2790640000000  0.4782340000000  0.6181310000000 1.0
C      1  0.4524290000000  0.2831500000000  0.6181330000000 1.0
C      1  0.6915350000000  0.3877490000000  0.6181310000000 1.0
C      1  0.6659450000000  0.6474740000000  0.6181290000000 1.0
C      1  0.4110250000000  0.7033980000000  0.6181290000000 1.0
C      1  0.5503200000000  0.6464950000000  0.3126440000000 1.0
C      1  0.6548750000000  0.4974100000000  0.3126450000000 1.0
C      1  0.5453980000000  0.3519020000000  0.3126460000000 1.0
C      1  0.3731820000000  0.4110580000000  0.3126460000000 1.0
C      1  0.3762250000000  0.5931250000000  0.3126450000000 1.0
C      1  0.4496800000000  0.6464950000000  0.3126440000000 1.0
C      1  0.3451250000000  0.4974100000000  0.3126450000000 1.0
C      1  0.4546020000000  0.3519020000000  0.3126460000000 1.0
C      1  0.6268180000000  0.4110580000000  0.3126460000000 1.0
C      1  0.6237750000000  0.5931250000000  0.3126450000000 1.0
C      1  0.4516510000000  0.7336960000000  0.5402400000000 1.0
C      1  0.7073140000000  0.6181980000000  0.5402400000000 1.0
C      1  0.6764750000000  0.3393580000000  0.5402430000000 1.0
C      1  0.4017540000000  0.2825190000000  0.5402430000000 1.0
C      1  0.2628030000000  0.5262330000000  0.5402410000000 1.0
C      1  0.5483490000000  0.7336960000000  0.5402400000000 1.0
C      1  0.2926860000000  0.6181980000000  0.5402400000000 1.0
C      1  0.3235250000000  0.3393580000000  0.5402430000000 1.0
C      1  0.5982460000000  0.2825190000000  0.5402430000000 1.0
C      1  0.7371970000000  0.5262330000000  0.5402410000000 1.0
C      1  0.3235250000000  0.6606420000000  0.4597570000000 1.0
C      1  0.5982450000000  0.7174810000000  0.4597570000000 1.0
C      1  0.7371960000000  0.4737670000000  0.4597590000000 1.0
C      1  0.5483490000000  0.2663040000000  0.4597600000000 1.0
C      1  0.2926860000000  0.3818030000000  0.4597600000000 1.0
C      1  0.6764750000000  0.6606420000000  0.4597570000000 1.0
C      1  0.4017550000000  0.7174810000000  0.4597570000000 1.0
C      1  0.2628040000000  0.4737670000000  0.4597590000000 1.0
C      1  0.4516510000000  0.2663040000000  0.4597600000000 1.0
C      1  0.7073140000000  0.3818030000000  0.4597600000000 1.0
C      1  0.3451250000000  0.5025900000000  0.6873550000000 1.0
C      1  0.4546020000000  0.6480980000000  0.6873540000000 1.0
C      1  0.6268180000000  0.5889420000000  0.6873540000000 1.0
C      1  0.6237750000000  0.4068750000000  0.6873550000000 1.0
C      1  0.4496800000000  0.3535050000000  0.6873560000000 1.0
C      1  0.6548750000000  0.5025900000000  0.6873550000000 1.0
C      1  0.5453980000000  0.6480980000000  0.6873540000000 1.0
C      1  0.3731820000000  0.5889420000000  0.6873540000000 1.0
C      1  0.3762250000000  0.4068750000000  0.6873550000000 1.0
C      1  0.5503200000000  0.3535050000000  0.6873560000000 1.0
END
