TITL C-2158988-7926-317 -0.00172388022344589 3375 -402.735904744273 0 0 60 (C3) n - 1
REM
REM in /scratch/bkarasulu/868
REM
REM
REM
REM
REM
REM ./C.cell (a2850807a9bf4ad07a5b6933b78d9264)
REM AIRSS Version 0.9.1 bugfix July 2018 build 013d7b7c2542+ Fri, 06 Jul 2018 19:26:36 +0100
REM compiler GCC version 9.2.1 20190827 (Red Hat 9.2.1-1)
REM options -cpp -mtune=generic -march=x86-64 -g -O0 -fpre-include=/usr/include/finclude/math-vector-fortran.h
REM seed -234737617 1784530515 142333695 607629573 1412101239 -1339589780 1295093388 1053020725 573635092 1323402503 2018331303 -645780411 714070206 1020871261 -1623382210 1131204197 101578734 1665266116 -988999494 836620410 -1663788503 1560103795 469714096 1925820031 947365619 891841800 1298605090 545986983 -471954660 1976421359 -1001132669 -510663507 -430036048
REM
CELL 1.54180   15.00000   15.00000   15.00000   90.00000   90.00000   90.00000
LATT -1
SFAC C  
C      1  0.2859610000000  0.4144690000000  0.4537980000000 1.0
C      1  0.2859620000000  0.5027540000000  0.5971760000000 1.0
C      1  0.2859620000000  0.5827800000000  0.4490310000000 1.0
C      1  0.3721060000000  0.4006180000000  0.6826040000000 1.0
C      1  0.3721060000000  0.7078310000000  0.4947680000000 1.0
C      1  0.3721030000000  0.3915540000000  0.3226310000000 1.0
C      1  0.6577910000000  0.4385060000000  0.4163110000000 1.0
C      1  0.6577920000000  0.4582690000000  0.5950980000000 1.0
C      1  0.6577920000000  0.6032220000000  0.4885890000000 1.0
C      1  0.4621790000000  0.7375950000000  0.4766980000000 1.0
C      1  0.4621760000000  0.3610230000000  0.3058880000000 1.0
C      1  0.4621800000000  0.4013840000000  0.7174140000000 1.0
C      1  0.5816450000000  0.5741020000000  0.3226350000000 1.0
C      1  0.5816450000000  0.3093460000000  0.5245070000000 1.0
C      1  0.5816470000000  0.6165500000000  0.6528550000000 1.0
C      1  0.3396150000000  0.6584530000000  0.4209190000000 1.0
C      1  0.3396130000000  0.3522870000000  0.4023190000000 1.0
C      1  0.3396160000000  0.4892630000000  0.6767670000000 1.0
C      1  0.7387320000000  0.5535530000000  0.4887770000000 1.0
C      1  0.7387320000000  0.4635030000000  0.4592300000000 1.0
C      1  0.7387320000000  0.4829400000000  0.5519890000000 1.0
C      1  0.5236260000000  0.7210940000000  0.5443550000000 1.0
C      1  0.5236230000000  0.4278660000000  0.2863480000000 1.0
C      1  0.5236250000000  0.3510400000000  0.6692950000000 1.0
C      1  0.5784470000000  0.3005410000000  0.4237180000000 1.0
C      1  0.5784500000000  0.5336670000000  0.7108760000000 1.0
C      1  0.5784480000000  0.6657900000000  0.3654040000000 1.0
C      1  0.4470840000000  0.5865100000000  0.5548850000000 1.0
C      1  0.4470820000000  0.5042770000000  0.3976380000000 1.0
C      1  0.4470830000000  0.4092130000000  0.5474770000000 1.0
C      1  0.4742080000000  0.4978050000000  0.5893790000000 1.0
C      1  0.4742080000000  0.5785010000000  0.4572110000000 1.0
C      1  0.4742070000000  0.4236940000000  0.4534100000000 1.0
C      1  0.4255840000000  0.3299880000000  0.4337970000000 1.0
C      1  0.4255870000000  0.5276720000000  0.6803380000000 1.0
C      1  0.4255850000000  0.6423400000000  0.3858690000000 1.0
C      1  0.2894470000000  0.5816250000000  0.5451300000000 1.0
C      1  0.2894460000000  0.4982710000000  0.4067480000000 1.0
C      1  0.2894470000000  0.4201060000000  0.5481260000000 1.0
C      1  0.6144420000000  0.4113750000000  0.2963100000000 1.0
C      1  0.6144440000000  0.3679120000000  0.6785940000000 1.0
C      1  0.6144450000000  0.7207120000000  0.5250930000000 1.0
C      1  0.6353910000000  0.6853250000000  0.4390050000000 1.0
C      1  0.6353890000000  0.3545140000000  0.3700000000000 1.0
C      1  0.6353920000000  0.4601600000000  0.6909930000000 1.0
C      1  0.4920940000000  0.2967990000000  0.3772680000000 1.0
C      1  0.4920980000000  0.4953120000000  0.7373440000000 1.0
C      1  0.4920960000000  0.7078900000000  0.3853900000000 1.0
C      1  0.6427420000000  0.6476280000000  0.5838160000000 1.0
C      1  0.6427400000000  0.4987730000000  0.3302400000000 1.0
C      1  0.6427410000000  0.3535960000000  0.5859400000000 1.0
C      1  0.5700690000000  0.4547460000000  0.4661270000000 1.0
C      1  0.5700700000000  0.4932920000000  0.5561260000000 1.0
C      1  0.5700700000000  0.5519600000000  0.4777450000000 1.0
C      1  0.3608830000000  0.6422840000000  0.5612990000000 1.0
C      1  0.3608810000000  0.4819450000000  0.3461300000000 1.0
C      1  0.3608820000000  0.3757730000000  0.5925730000000 1.0
C      1  0.5079530000000  0.5155470000000  0.3187500000000 1.0
C      1  0.5079530000000  0.3352610000000  0.5771610000000 1.0
C      1  0.5079550000000  0.6491920000000  0.6040870000000 1.0
END
