TITL C-2158984-8299-674 -0.00143747044002236 3375 -406.583207002093 0 0 60 (C1) n - 1
REM
REM in /scratch/bkarasulu/869
REM
REM
REM
REM
REM
REM ./C.cell (a2850807a9bf4ad07a5b6933b78d9264)
REM AIRSS Version 0.9.1 bugfix July 2018 build 013d7b7c2542+ Fri, 06 Jul 2018 19:26:36 +0100
REM compiler GCC version 9.2.1 20190827 (Red Hat 9.2.1-1)
REM options -cpp -mtune=generic -march=x86-64 -g -O0 -fpre-include=/usr/include/finclude/math-vector-fortran.h
REM seed 26351474 -1655807949 12497837 -2053946005 1247335989 243634392 -1793864377 1234979741 325344308 572444960 871749871 1354552907 -1360184273 774313631 -2054448782 -1227962091 2138139063 -1435975644 -493698365 73135877 -1863464572 1785490945 -760818111 1935285031 1874015006 -1808453498 -503111425 886141087 -2142721591 -543796234 -1203162441 551907336 -856924401
REM
CELL 1.54180   15.00000   15.00000   15.00000   90.00000   90.00000   90.00000
LATT -1
SFAC C  
C      1  0.3956460000000  0.5151290000000  0.6577470000000 1.0
C      1  0.5796450000000  0.6404660000000  0.6856850000000 1.0
C      1  0.5688700000000  0.5123160000000  0.2937210000000 1.0
C      1  0.6981200000000  0.5277320000000  0.6575880000000 1.0
C      1  0.4376510000000  0.4688890000000  0.5791830000000 1.0
C      1  0.6711890000000  0.4046020000000  0.6442050000000 1.0
C      1  0.5532390000000  0.3790440000000  0.4530050000000 1.0
C      1  0.5604600000000  0.3297180000000  0.2889610000000 1.0
C      1  0.5456390000000  0.5560490000000  0.4747890000000 1.0
C      1  0.2841460000000  0.4845500000000  0.4071400000000 1.0
C      1  0.4551440000000  0.7065300000000  0.5525990000000 1.0
C      1  0.4575590000000  0.5554940000000  0.4444080000000 1.0
C      1  0.6337820000000  0.4603190000000  0.3411180000000 1.0
C      1  0.4672340000000  0.5386370000000  0.7157370000000 1.0
C      1  0.6678850000000  0.6331340000000  0.5453760000000 1.0
C      1  0.7036220000000  0.5510660000000  0.5641570000000 1.0
C      1  0.3991070000000  0.7041350000000  0.4793820000000 1.0
C      1  0.6813720000000  0.4753130000000  0.5027040000000 1.0
C      1  0.6096080000000  0.6807540000000  0.6076070000000 1.0
C      1  0.4847850000000  0.6301360000000  0.6972900000000 1.0
C      1  0.5485540000000  0.7029680000000  0.5381780000000 1.0
C      1  0.5577520000000  0.6032920000000  0.3170320000000 1.0
C      1  0.4647500000000  0.6242290000000  0.3107770000000 1.0
C      1  0.4209690000000  0.6642690000000  0.6345320000000 1.0
C      1  0.6934790000000  0.4982550000000  0.4059780000000 1.0
C      1  0.4510300000000  0.4746690000000  0.3942810000000 1.0
C      1  0.7006860000000  0.5849790000000  0.3851960000000 1.0
C      1  0.2892150000000  0.3428370000000  0.5981320000000 1.0
C      1  0.6195570000000  0.5566100000000  0.7059940000000 1.0
C      1  0.6248080000000  0.6375440000000  0.3772220000000 1.0
C      1  0.7313890000000  0.4497630000000  0.6916680000000 1.0
C      1  0.3582660000000  0.2986550000000  0.6317680000000 1.0
C      1  0.3248750000000  0.5479930000000  0.3455010000000 1.0
C      1  0.4112620000000  0.5449090000000  0.2897840000000 1.0
C      1  0.5864930000000  0.3168430000000  0.5266550000000 1.0
C      1  0.3533910000000  0.5970430000000  0.6261680000000 1.0
C      1  0.4104950000000  0.3855580000000  0.5278530000000 1.0
C      1  0.5964820000000  0.3749980000000  0.3617670000000 1.0
C      1  0.3076570000000  0.3983830000000  0.5198510000000 1.0
C      1  0.4776970000000  0.4699730000000  0.2969780000000 1.0
C      1  0.6938360000000  0.3868600000000  0.5505660000000 1.0
C      1  0.3999590000000  0.5279710000000  0.5141310000000 1.0
C      1  0.5789380000000  0.4713840000000  0.5039320000000 1.0
C      1  0.3284770000000  0.3274390000000  0.3658100000000 1.0
C      1  0.3266160000000  0.6295050000000  0.3890580000000 1.0
C      1  0.3025340000000  0.5004020000000  0.5031450000000 1.0
C      1  0.6760190000000  0.3011200000000  0.5239290000000 1.0
C      1  0.4419260000000  0.3130220000000  0.5967860000000 1.0
C      1  0.5332810000000  0.3301480000000  0.6082790000000 1.0
C      1  0.4565880000000  0.3885730000000  0.4399700000000 1.0
C      1  0.4227300000000  0.6534200000000  0.3946840000000 1.0
C      1  0.3133230000000  0.6568630000000  0.4806270000000 1.0
C      1  0.5736840000000  0.4054550000000  0.6599810000000 1.0
C      1  0.4801130000000  0.3680820000000  0.2915980000000 1.0
C      1  0.5504210000000  0.4910970000000  0.7131610000000 1.0
C      1  0.2855000000000  0.3883510000000  0.4188200000000 1.0
C      1  0.3011290000000  0.5892150000000  0.5465250000000 1.0
C      1  0.4173090000000  0.3343220000000  0.3600060000000 1.0
C      1  0.5345600000000  0.4629880000000  0.5887220000000 1.0
C      1  0.5995480000000  0.6460030000000  0.4725520000000 1.0
END
