TITL C-2158984-8299-69 -0.00253695392478406 3375 -391.119452764118 0 0 60 (Td) n - 1
REM
REM in /scratch/bkarasulu/869
REM
REM
REM
REM
REM
REM ./C.cell (a2850807a9bf4ad07a5b6933b78d9264)
REM AIRSS Version 0.9.1 bugfix July 2018 build 013d7b7c2542+ Fri, 06 Jul 2018 19:26:36 +0100
REM compiler GCC version 9.2.1 20190827 (Red Hat 9.2.1-1)
REM options -cpp -mtune=generic -march=x86-64 -g -O0 -fpre-include=/usr/include/finclude/math-vector-fortran.h
REM seed 518981282 176119177 176159528 697807402 1862008799 -576520738 431371930 700095212 -1536710380 193940510 513501419 1005115675 -400932021 -663850339 -1046142746 -1311870452 -2108530069 -406418921 -1806737778 -1407051104 159511281 -1092655787 -1347221059 2130511058 -1003182026 -1722214724 -1619758849 464478770 99440973 58151805 430786945 -1785731618 -998619217
REM
CELL 1.54180   15.00000   15.00000   15.00000   90.00000   90.00000   90.00000
LATT -1
SFAC C  
C      1  0.3973420000000  0.6718150000000  0.4753900000000 1.0
C      1  0.6718150000000  0.4753900000000  0.3973420000000 1.0
C      1  0.4753900000000  0.3973420000000  0.6718150000000 1.0
C      1  0.6026580000000  0.3281850000000  0.4753900000000 1.0
C      1  0.3973420000000  0.3281850000000  0.5246100000000 1.0
C      1  0.6026580000000  0.6718150000000  0.5246100000000 1.0
C      1  0.3281850000000  0.5246100000000  0.3973420000000 1.0
C      1  0.6718150000000  0.5246100000000  0.6026580000000 1.0
C      1  0.3281850000000  0.4753900000000  0.6026580000000 1.0
C      1  0.5246100000000  0.6026580000000  0.6718150000000 1.0
C      1  0.4753900000000  0.6026580000000  0.3281850000000 1.0
C      1  0.5246100000000  0.3973420000000  0.3281850000000 1.0
C      1  0.6718150000000  0.3973420000000  0.4753900000000 1.0
C      1  0.4753900000000  0.6718150000000  0.3973420000000 1.0
C      1  0.3973420000000  0.4753900000000  0.6718150000000 1.0
C      1  0.3281850000000  0.6026580000000  0.4753900000000 1.0
C      1  0.3281850000000  0.3973420000000  0.5246100000000 1.0
C      1  0.6718150000000  0.6026580000000  0.5246100000000 1.0
C      1  0.5246100000000  0.3281850000000  0.3973420000000 1.0
C      1  0.5246100000000  0.6718150000000  0.6026580000000 1.0
C      1  0.4753900000000  0.3281850000000  0.6026580000000 1.0
C      1  0.6026580000000  0.5246100000000  0.6718150000000 1.0
C      1  0.6026580000000  0.4753900000000  0.3281850000000 1.0
C      1  0.3973420000000  0.5246100000000  0.3281850000000 1.0
C      1  0.3436830000000  0.4116370000000  0.7264070000000 1.0
C      1  0.4116370000000  0.7264070000000  0.3436830000000 1.0
C      1  0.7264070000000  0.3436830000000  0.4116370000000 1.0
C      1  0.6563170000000  0.5883630000000  0.7264070000000 1.0
C      1  0.3436830000000  0.5883630000000  0.2735930000000 1.0
C      1  0.6563170000000  0.4116370000000  0.2735930000000 1.0
C      1  0.5883630000000  0.2735930000000  0.3436830000000 1.0
C      1  0.4116370000000  0.2735930000000  0.6563170000000 1.0
C      1  0.5883630000000  0.7264070000000  0.6563170000000 1.0
C      1  0.2735930000000  0.6563170000000  0.4116370000000 1.0
C      1  0.7264070000000  0.6563170000000  0.5883630000000 1.0
C      1  0.2735930000000  0.3436830000000  0.5883630000000 1.0
C      1  0.4116370000000  0.3436830000000  0.7264070000000 1.0
C      1  0.7264070000000  0.4116370000000  0.3436830000000 1.0
C      1  0.3436830000000  0.7264070000000  0.4116370000000 1.0
C      1  0.5883630000000  0.6563170000000  0.7264070000000 1.0
C      1  0.5883630000000  0.3436830000000  0.2735930000000 1.0
C      1  0.4116370000000  0.6563170000000  0.2735930000000 1.0
C      1  0.2735930000000  0.5883630000000  0.3436830000000 1.0
C      1  0.2735930000000  0.4116370000000  0.6563170000000 1.0
C      1  0.7264070000000  0.5883630000000  0.6563170000000 1.0
C      1  0.6563170000000  0.2735930000000  0.4116370000000 1.0
C      1  0.6563170000000  0.7264070000000  0.5883630000000 1.0
C      1  0.3436830000000  0.2735930000000  0.5883630000000 1.0
C      1  0.5337850000000  0.2905470000000  0.5337850000000 1.0
C      1  0.2905470000000  0.5337850000000  0.5337850000000 1.0
C      1  0.5337850000000  0.5337850000000  0.2905470000000 1.0
C      1  0.4662150000000  0.7094530000000  0.5337850000000 1.0
C      1  0.5337850000000  0.7094530000000  0.4662150000000 1.0
C      1  0.4662150000000  0.2905470000000  0.4662150000000 1.0
C      1  0.7094530000000  0.4662150000000  0.5337850000000 1.0
C      1  0.2905470000000  0.4662150000000  0.4662150000000 1.0
C      1  0.7094530000000  0.5337850000000  0.4662150000000 1.0
C      1  0.4662150000000  0.4662150000000  0.2905470000000 1.0
C      1  0.5337850000000  0.4662150000000  0.7094530000000 1.0
C      1  0.4662150000000  0.5337850000000  0.7094530000000 1.0
END
