TITL C-2159255-4746-1270 -0.00160246672486626 3375 -405.559840697891 0 0 60 (D5h) n - 1
REM
REM in /scratch/bkarasulu/871
REM
REM
REM
REM
REM
REM ./C.cell (a2850807a9bf4ad07a5b6933b78d9264)
REM AIRSS Version 0.9.1 bugfix July 2018 build 013d7b7c2542+ Fri, 06 Jul 2018 19:26:36 +0100
REM compiler GCC version 9.2.1 20190827 (Red Hat 9.2.1-1)
REM options -cpp -mtune=generic -march=x86-64 -g -O0 -fpre-include=/usr/include/finclude/math-vector-fortran.h
REM seed 689456971 -1019798690 -936122742 981777021 -12726673 893966615 1804361557 1449440637 555116622 1428020701 159160987 -959821263 -575919872 -1563615550 1606725547 1854880373 -1368417307 -1301562095 -1826593336 188873525 1234890905 1110201200 1709462449 307244551 623190913 890930814 -807029934 1696878974 -199898970 -1751825212 -824109614 -524951323 -199431582
REM
CELL 1.54180   15.00000   15.00000   15.00000   90.00000   90.00000   90.00000
LATT -1
SFAC C  
C      1  0.3748010000000  0.5640000000000  0.7083410000000 1.0
C      1  0.4004440000000  0.4007050000000  0.7083410000000 1.0
C      1  0.5636700000000  0.3746330000000  0.7083410000000 1.0
C      1  0.6389070000000  0.5218140000000  0.7083410000000 1.0
C      1  0.5221790000000  0.6388490000000  0.7083410000000 1.0
C      1  0.3748010000000  0.5640000000000  0.2916590000000 1.0
C      1  0.4004440000000  0.4007050000000  0.2916590000000 1.0
C      1  0.5636700000000  0.3746330000000  0.2916590000000 1.0
C      1  0.6389070000000  0.5218140000000  0.2916590000000 1.0
C      1  0.5221790000000  0.6388490000000  0.2916590000000 1.0
C      1  0.3830760000000  0.3141860000000  0.4522130000000 1.0
C      1  0.6405870000000  0.3313790000000  0.4522130000000 1.0
C      1  0.7038130000000  0.5816000000000  0.4522120000000 1.0
C      1  0.4853750000000  0.7190530000000  0.4522120000000 1.0
C      1  0.2871490000000  0.5537810000000  0.4522120000000 1.0
C      1  0.3830760000000  0.3141860000000  0.5477870000000 1.0
C      1  0.6405870000000  0.3313790000000  0.5477870000000 1.0
C      1  0.7038130000000  0.5816000000000  0.5477880000000 1.0
C      1  0.4853750000000  0.7190530000000  0.5477880000000 1.0
C      1  0.2871490000000  0.5537810000000  0.5477880000000 1.0
C      1  0.4774420000000  0.3587760000000  0.3162460000000 1.0
C      1  0.6273410000000  0.4349060000000  0.3162470000000 1.0
C      1  0.6012590000000  0.6009930000000  0.3162470000000 1.0
C      1  0.4352410000000  0.6275110000000  0.3162470000000 1.0
C      1  0.3587180000000  0.4778130000000  0.3162460000000 1.0
C      1  0.4774420000000  0.3587760000000  0.6837540000000 1.0
C      1  0.6273410000000  0.4349060000000  0.6837530000000 1.0
C      1  0.6012590000000  0.6009930000000  0.6837530000000 1.0
C      1  0.4352410000000  0.6275110000000  0.6837530000000 1.0
C      1  0.3587180000000  0.4778130000000  0.6837540000000 1.0
C      1  0.4189130000000  0.4872660000000  0.5513760000000 1.0
C      1  0.4870530000000  0.4189470000000  0.5513760000000 1.0
C      1  0.5730860000000  0.4626400000000  0.5513760000000 1.0
C      1  0.5581160000000  0.5579640000000  0.5513760000000 1.0
C      1  0.4628320000000  0.5731840000000  0.5513760000000 1.0
C      1  0.4189130000000  0.4872660000000  0.4486240000000 1.0
C      1  0.4870530000000  0.4189470000000  0.4486240000000 1.0
C      1  0.5730860000000  0.4626400000000  0.4486240000000 1.0
C      1  0.5581160000000  0.5579640000000  0.4486240000000 1.0
C      1  0.4628320000000  0.5731840000000  0.4486240000000 1.0
C      1  0.4213610000000  0.6548410000000  0.5865990000000 1.0
C      1  0.3284360000000  0.4730580000000  0.5865990000000 1.0
C      1  0.4726070000000  0.3285080000000  0.5865990000000 1.0
C      1  0.6546340000000  0.4209540000000  0.5865990000000 1.0
C      1  0.6229620000000  0.6226390000000  0.5865980000000 1.0
C      1  0.4213610000000  0.6548410000000  0.4134010000000 1.0
C      1  0.3284360000000  0.4730580000000  0.4134010000000 1.0
C      1  0.4726070000000  0.3285080000000  0.4134010000000 1.0
C      1  0.6546340000000  0.4209540000000  0.4134010000000 1.0
C      1  0.6229620000000  0.6226390000000  0.4134020000000 1.0
C      1  0.5532210000000  0.2870080000000  0.4522120000000 1.0
C      1  0.7190140000000  0.4847990000000  0.4522120000000 1.0
C      1  0.5821350000000  0.7035980000000  0.4522120000000 1.0
C      1  0.3317490000000  0.6410300000000  0.4522120000000 1.0
C      1  0.3138800000000  0.3835650000000  0.4522120000000 1.0
C      1  0.5532210000000  0.2870080000000  0.5477880000000 1.0
C      1  0.7190140000000  0.4847990000000  0.5477880000000 1.0
C      1  0.5821350000000  0.7035980000000  0.5477880000000 1.0
C      1  0.3317490000000  0.6410300000000  0.5477880000000 1.0
C      1  0.3138800000000  0.3835650000000  0.5477880000000 1.0
END
