TITL C-2159255-4746-237 -0.00220193328872707 3375 -421.354101249876 0 0 60 (Cs) n - 1
REM
REM in /scratch/bkarasulu/871
REM
REM
REM
REM
REM
REM ./C.cell (a2850807a9bf4ad07a5b6933b78d9264)
REM AIRSS Version 0.9.1 bugfix July 2018 build 013d7b7c2542+ Fri, 06 Jul 2018 19:26:36 +0100
REM compiler GCC version 9.2.1 20190827 (Red Hat 9.2.1-1)
REM options -cpp -mtune=generic -march=x86-64 -g -O0 -fpre-include=/usr/include/finclude/math-vector-fortran.h
REM seed 2123709569 -1373363113 -13077405 -1676184356 485698979 -2015586674 -506405657 1989799099 -1148249765 1966593390 1905158202 183009763 1632985362 569587992 -42117469 1971956178 1987720562 1427930576 554207178 788706624 1623862704 999658730 -1529537483 -1067688297 1195350029 -1348761437 -72616338 -1904923969 1219760949 584446947 858242124 1758952974 -824929477
REM
CELL 1.54180   15.00000   15.00000   15.00000   90.00000   90.00000   90.00000
LATT -1
SFAC C  
C      1  0.3516570000000  0.3772220000000  0.7329900000000 1.0
C      1  0.3140570000000  0.5403420000000  0.7327060000000 1.0
C      1  0.4182460000000  0.6715270000000  0.7325730000000 1.0
C      1  0.5857720000000  0.6717520000000  0.7326760000000 1.0
C      1  0.6902980000000  0.5410000000000  0.7329530000000 1.0
C      1  0.6533450000000  0.3777040000000  0.7331060000000 1.0
C      1  0.5026080000000  0.3048010000000  0.7331220000000 1.0
C      1  0.6758670000000  0.4583060000000  0.5176890000000 1.0
C      1  0.5798320000000  0.3373670000000  0.5177470000000 1.0
C      1  0.4254030000000  0.3371750000000  0.5177150000000 1.0
C      1  0.3297560000000  0.4577930000000  0.5173570000000 1.0
C      1  0.3640480000000  0.6074420000000  0.5171950000000 1.0
C      1  0.5020960000000  0.6742060000000  0.5171800000000 1.0
C      1  0.6406980000000  0.6081740000000  0.5173230000000 1.0
C      1  0.5856060000000  0.6713110000000  0.4721550000000 1.0
C      1  0.6909350000000  0.5409540000000  0.4723040000000 1.0
C      1  0.6536910000000  0.3773100000000  0.4723560000000 1.0
C      1  0.5026560000000  0.3042630000000  0.4723730000000 1.0
C      1  0.3512520000000  0.3766740000000  0.4723410000000 1.0
C      1  0.3144590000000  0.5401760000000  0.4721850000000 1.0
C      1  0.4185950000000  0.6707480000000  0.4721340000000 1.0
C      1  0.4275970000000  0.3418640000000  0.6952020000000 1.0
C      1  0.3338320000000  0.4589290000000  0.6949280000000 1.0
C      1  0.3668250000000  0.6053530000000  0.6948120000000 1.0
C      1  0.5020400000000  0.6707470000000  0.6947970000000 1.0
C      1  0.6373080000000  0.6056990000000  0.6948950000000 1.0
C      1  0.6708590000000  0.4595130000000  0.6951760000000 1.0
C      1  0.5775690000000  0.3420870000000  0.6952730000000 1.0
C      1  0.4550030000000  0.4012310000000  0.2621040000000 1.0
C      1  0.3954040000000  0.4745030000000  0.2601610000000 1.0
C      1  0.4157100000000  0.5673340000000  0.2592170000000 1.0
C      1  0.5014110000000  0.6087800000000  0.2592090000000 1.0
C      1  0.5867910000000  0.5670620000000  0.2601420000000 1.0
C      1  0.6072280000000  0.4748510000000  0.2620890000000 1.0
C      1  0.5487850000000  0.4015060000000  0.2630610000000 1.0
C      1  0.3823220000000  0.4699670000000  0.6018740000000 1.0
C      1  0.4057260000000  0.5743960000000  0.6021860000000 1.0
C      1  0.5021380000000  0.6210240000000  0.6021750000000 1.0
C      1  0.5985320000000  0.5745320000000  0.6018500000000 1.0
C      1  0.6225690000000  0.4703770000000  0.6019270000000 1.0
C      1  0.5560350000000  0.3865920000000  0.6020460000000 1.0
C      1  0.4490470000000  0.3864560000000  0.6019450000000 1.0
C      1  0.3312640000000  0.4590360000000  0.3316660000000 1.0
C      1  0.3647880000000  0.6073880000000  0.3315440000000 1.0
C      1  0.5016440000000  0.6735740000000  0.3315290000000 1.0
C      1  0.6387520000000  0.6077450000000  0.3316330000000 1.0
C      1  0.6720300000000  0.4597660000000  0.3324840000000 1.0
C      1  0.5777050000000  0.3417230000000  0.3330080000000 1.0
C      1  0.4266070000000  0.3410720000000  0.3325110000000 1.0
C      1  0.6520710000000  0.3787590000000  0.3780680000000 1.0
C      1  0.5025090000000  0.3064240000000  0.3780840000000 1.0
C      1  0.3517430000000  0.3775260000000  0.3775700000000 1.0
C      1  0.3144540000000  0.5405300000000  0.3774510000000 1.0
C      1  0.4184580000000  0.6710080000000  0.3775360000000 1.0
C      1  0.5853140000000  0.6715250000000  0.3774210000000 1.0
C      1  0.6899440000000  0.5410890000000  0.3775340000000 1.0
C      1  0.5023180000000  0.4976960000000  0.7521730000000 1.0
C      1  0.5022810000000  0.4977550000000  0.6736130000000 1.0
C      1  0.5124150000000  0.4767630000000  0.4134780000000 1.0
C      1  0.4997390000000  0.5029670000000  0.4892540000000 1.0
END
