TITL C-2159252-5904-37 -0.00469505058937874 3375 -421.058040145767 0 0 60 (C6h) n - 1
REM
REM in /scratch/bkarasulu/870
REM
REM
REM
REM
REM
REM ./C.cell (a2850807a9bf4ad07a5b6933b78d9264)
REM AIRSS Version 0.9.1 bugfix July 2018 build 013d7b7c2542+ Fri, 06 Jul 2018 19:26:36 +0100
REM compiler GCC version 9.2.1 20190827 (Red Hat 9.2.1-1)
REM options -cpp -mtune=generic -march=x86-64 -g -O0 -fpre-include=/usr/include/finclude/math-vector-fortran.h
REM seed -1870634148 -1743448877 1208154776 1717752303 -1986046941 948306869 1614434627 646270180 753709400 -1226264333 818895485 -1754357642 -1218375956 -412119507 -1303464444 -851165430 157748538 -1660631746 1421778528 -1030157354 -1069144504 35421630 2072010095 1116390847 1779612910 1438898299 1320580921 -1654084399 257965893 -2047713177 777461638 1380912584 1910086139
REM
CELL 1.54180   15.00000   15.00000   15.00000   90.00000   90.00000   90.00000
LATT -1
SFAC C  
C      1  0.4198170000000  0.7557370000000  0.4532610000000 1.0
C      1  0.4198190000000  0.6683420000000  0.6980980000000 1.0
C      1  0.4198180000000  0.4126120000000  0.7448400000000 1.0
C      1  0.4198170000000  0.2442630000000  0.5467390000000 1.0
C      1  0.4198190000000  0.3316580000000  0.3019020000000 1.0
C      1  0.4198180000000  0.5873880000000  0.2551600000000 1.0
C      1  0.4198170000000  0.7557370000000  0.5467390000000 1.0
C      1  0.4198190000000  0.6683420000000  0.3019020000000 1.0
C      1  0.4198180000000  0.4126120000000  0.2551600000000 1.0
C      1  0.4198170000000  0.2442630000000  0.4532610000000 1.0
C      1  0.4198190000000  0.3316580000000  0.6980980000000 1.0
C      1  0.4198180000000  0.5873880000000  0.7448400000000 1.0
C      1  0.5000000000000  0.4530070000000  0.7732980000000 1.0
C      1  0.5000000000000  0.2398190000000  0.5959500000000 1.0
C      1  0.5000000000000  0.2868170000000  0.3226580000000 1.0
C      1  0.5000000000000  0.5469930000000  0.2267020000000 1.0
C      1  0.5000000000000  0.7601810000000  0.4040500000000 1.0
C      1  0.5000000000000  0.7131830000000  0.6773420000000 1.0
C      1  0.5000000000000  0.4530070000000  0.2267020000000 1.0
C      1  0.5000000000000  0.2398190000000  0.4040500000000 1.0
C      1  0.5000000000000  0.2868170000000  0.6773420000000 1.0
C      1  0.5000000000000  0.5469930000000  0.7732980000000 1.0
C      1  0.5000000000000  0.7601810000000  0.5959500000000 1.0
C      1  0.5000000000000  0.7131830000000  0.3226580000000 1.0
C      1  0.6443440000000  0.5454940000000  0.3212560000000 1.0
C      1  0.6443430000000  0.6775470000000  0.4500280000000 1.0
C      1  0.6443420000000  0.6320500000000  0.6287700000000 1.0
C      1  0.6443440000000  0.4545060000000  0.6787440000000 1.0
C      1  0.6443430000000  0.3224530000000  0.5499720000000 1.0
C      1  0.6443420000000  0.3679500000000  0.3712300000000 1.0
C      1  0.6443440000000  0.5454940000000  0.6787440000000 1.0
C      1  0.6443430000000  0.6775470000000  0.5499720000000 1.0
C      1  0.6443420000000  0.6320500000000  0.3712300000000 1.0
C      1  0.6443440000000  0.4545060000000  0.3212560000000 1.0
C      1  0.6443430000000  0.3224530000000  0.4500280000000 1.0
C      1  0.6443420000000  0.3679500000000  0.6287700000000 1.0
C      1  0.3556560000000  0.4545060000000  0.6787440000000 1.0
C      1  0.3556570000000  0.3224530000000  0.5499720000000 1.0
C      1  0.3556580000000  0.3679500000000  0.3712300000000 1.0
C      1  0.3556560000000  0.5454940000000  0.3212560000000 1.0
C      1  0.3556570000000  0.6775470000000  0.4500280000000 1.0
C      1  0.3556580000000  0.6320500000000  0.6287700000000 1.0
C      1  0.3556560000000  0.4545060000000  0.3212560000000 1.0
C      1  0.3556570000000  0.3224530000000  0.4500280000000 1.0
C      1  0.3556580000000  0.3679500000000  0.6287700000000 1.0
C      1  0.3556560000000  0.5454940000000  0.6787440000000 1.0
C      1  0.3556570000000  0.6775470000000  0.5499720000000 1.0
C      1  0.3556580000000  0.6320500000000  0.3712300000000 1.0
C      1  0.5801810000000  0.3316580000000  0.3019020000000 1.0
C      1  0.5801820000000  0.5873880000000  0.2551600000000 1.0
C      1  0.5801830000000  0.7557370000000  0.4532610000000 1.0
C      1  0.5801810000000  0.6683420000000  0.6980980000000 1.0
C      1  0.5801820000000  0.4126120000000  0.7448400000000 1.0
C      1  0.5801830000000  0.2442630000000  0.5467390000000 1.0
C      1  0.5801810000000  0.3316580000000  0.6980980000000 1.0
C      1  0.5801820000000  0.5873880000000  0.7448400000000 1.0
C      1  0.5801830000000  0.7557370000000  0.5467390000000 1.0
C      1  0.5801810000000  0.6683420000000  0.3019020000000 1.0
C      1  0.5801820000000  0.4126120000000  0.2551600000000 1.0
C      1  0.5801830000000  0.2442630000000  0.4532610000000 1.0
END
