TITL C-2159255-4746-117 -0.00329549527944403 3375 -419.253687022291 0 0 60 (C1) n - 1
REM
REM in /scratch/bkarasulu/871
REM
REM
REM
REM
REM
REM ./C.cell (a2850807a9bf4ad07a5b6933b78d9264)
REM AIRSS Version 0.9.1 bugfix July 2018 build 013d7b7c2542+ Fri, 06 Jul 2018 19:26:36 +0100
REM compiler GCC version 9.2.1 20190827 (Red Hat 9.2.1-1)
REM options -cpp -mtune=generic -march=x86-64 -g -O0 -fpre-include=/usr/include/finclude/math-vector-fortran.h
REM seed -2012245729 -477090082 2022153494 -778567065 1929966281 1156828309 819352406 -322363505 849135691 501121776 -979633775 -1212618009 -1870567674 912607414 1769836471 53201501 -1149146363 1692444950 -1846132480 601542088 805069513 -846703228 968209224 350963407 1211513524 -835646146 -367324454 548870073 704897596 -1489632182 2110595335 1353527007 1482126238
REM
CELL 1.54180   15.00000   15.00000   15.00000   90.00000   90.00000   90.00000
LATT -1
SFAC C  
C      1  0.2640190000000  0.3606320000000  0.5509580000000 1.0
C      1  0.3008830000000  0.3648300000000  0.6381550000000 1.0
C      1  0.4506930000000  0.3889020000000  0.7320650000000 1.0
C      1  0.5913810000000  0.3440670000000  0.7267910000000 1.0
C      1  0.6693260000000  0.3477160000000  0.6773090000000 1.0
C      1  0.7417190000000  0.3607820000000  0.5179330000000 1.0
C      1  0.7309100000000  0.3641030000000  0.4247910000000 1.0
C      1  0.6181340000000  0.3651370000000  0.2885030000000 1.0
C      1  0.5282920000000  0.3643390000000  0.2606700000000 1.0
C      1  0.3583460000000  0.3607560000000  0.3080340000000 1.0
C      1  0.2956970000000  0.3601760000000  0.3781430000000 1.0
C      1  0.7062440000000  0.4319570000000  0.6560280000000 1.0
C      1  0.7482820000000  0.4377510000000  0.5710120000000 1.0
C      1  0.7269860000000  0.4439420000000  0.3765360000000 1.0
C      1  0.6665750000000  0.4441020000000  0.3025110000000 1.0
C      1  0.4799500000000  0.4421130000000  0.2423240000000 1.0
C      1  0.3876270000000  0.4397970000000  0.2668520000000 1.0
C      1  0.2556640000000  0.4379460000000  0.4110690000000 1.0
C      1  0.2381420000000  0.4382430000000  0.5046650000000 1.0
C      1  0.3070580000000  0.4447510000000  0.6863570000000 1.0
C      1  0.3848470000000  0.4536900000000  0.7394660000000 1.0
C      1  0.5390980000000  0.4166010000000  0.7530240000000 1.0
C      1  0.6661480000000  0.5857030000000  0.5390990000000 1.0
C      1  0.6559590000000  0.5897350000000  0.4348070000000 1.0
C      1  0.5977210000000  0.5911480000000  0.3616340000000 1.0
C      1  0.4989660000000  0.5912210000000  0.3283290000000 1.0
C      1  0.4084870000000  0.5894710000000  0.3506210000000 1.0
C      1  0.3383900000000  0.5889380000000  0.4262670000000 1.0
C      1  0.3224590000000  0.5878890000000  0.5183080000000 1.0
C      1  0.3601430000000  0.5868820000000  0.6123760000000 1.0
C      1  0.4393370000000  0.5857970000000  0.6712570000000 1.0
C      1  0.5351460000000  0.5725290000000  0.6716560000000 1.0
C      1  0.6233250000000  0.5787560000000  0.6227330000000 1.0
C      1  0.2898070000000  0.5182220000000  0.3753660000000 1.0
C      1  0.2547480000000  0.5201370000000  0.5483520000000 1.0
C      1  0.2899210000000  0.5227900000000  0.6371050000000 1.0
C      1  0.4122300000000  0.5414810000000  0.7529010000000 1.0
C      1  0.5724970000000  0.5022380000000  0.7292620000000 1.0
C      1  0.6584180000000  0.5078660000000  0.6835560000000 1.0
C      1  0.7376740000000  0.5187070000000  0.5245810000000 1.0
C      1  0.7276840000000  0.5218550000000  0.4295570000000 1.0
C      1  0.6162510000000  0.5227820000000  0.2920760000000 1.0
C      1  0.5258130000000  0.5220920000000  0.2621320000000 1.0
C      1  0.3546950000000  0.5189070000000  0.3056380000000 1.0
C      1  0.3519620000000  0.2964110000000  0.4319040000000 1.0
C      1  0.3382000000000  0.2983040000000  0.5219190000000 1.0
C      1  0.3760260000000  0.3063070000000  0.6136080000000 1.0
C      1  0.4530600000000  0.3136420000000  0.6651980000000 1.0
C      1  0.5444480000000  0.2884110000000  0.6598980000000 1.0
C      1  0.6267070000000  0.2856350000000  0.6063450000000 1.0
C      1  0.6686660000000  0.2922090000000  0.5261840000000 1.0
C      1  0.6575560000000  0.2957390000000  0.4285360000000 1.0
C      1  0.5992130000000  0.2967750000000  0.3592600000000 1.0
C      1  0.5042070000000  0.2967490000000  0.3309640000000 1.0
C      1  0.4174250000000  0.2960570000000  0.3571800000000 1.0
C      1  0.4999310000000  0.4430700000000  0.5008440000000 1.0
C      1  0.5041590000000  0.7795730000000  0.4556630000000 1.0
C      1  0.4967950000000  0.6152060000000  0.5010620000000 1.0
C      1  0.5006620000000  0.6993740000000  0.4857180000000 1.0
C      1  0.4970540000000  0.5272980000000  0.4974550000000 1.0
END
