TITL C-2159255-4746-706 -0.00162544345031318 3375 -407.982169127454 0 0 60 (S4) n - 1
REM
REM in /scratch/bkarasulu/871
REM
REM
REM
REM
REM
REM ./C.cell (a2850807a9bf4ad07a5b6933b78d9264)
REM AIRSS Version 0.9.1 bugfix July 2018 build 013d7b7c2542+ Fri, 06 Jul 2018 19:26:36 +0100
REM compiler GCC version 9.2.1 20190827 (Red Hat 9.2.1-1)
REM options -cpp -mtune=generic -march=x86-64 -g -O0 -fpre-include=/usr/include/finclude/math-vector-fortran.h
REM seed -517997179 -91296088 698206641 83576870 1164422895 -767600516 -1681184948 -1076258973 371198647 -1836875417 188409550 646090115 1108314021 916355282 1908321155 -77871472 -290220189 147030988 -1628862141 388446777 -173110086 1880950471 556577148 533531124 699572319 319754615 1615096595 1510531893 -2083727989 1788068982 641701470 1542327318 428831369
REM
CELL 1.54180   15.00000   15.00000   15.00000   90.00000   90.00000   90.00000
LATT -1
SFAC C  
C      1  0.7158860000000  0.5599330000000  0.6412830000000 1.0
C      1  0.6590510000000  0.5321800000000  0.3092340000000 1.0
C      1  0.2841130000000  0.5599300000000  0.3587180000000 1.0
C      1  0.3409480000000  0.5321730000000  0.6907670000000 1.0
C      1  0.6907670000000  0.4673320000000  0.6590520000000 1.0
C      1  0.6412830000000  0.4395800000000  0.2841130000000 1.0
C      1  0.3092330000000  0.4673300000000  0.3409480000000 1.0
C      1  0.3587190000000  0.4395720000000  0.7158860000000 1.0
C      1  0.4150830000000  0.5432280000000  0.5521870000000 1.0
C      1  0.6445540000000  0.6145280000000  0.6578810000000 1.0
C      1  0.5849160000000  0.5432310000000  0.4478140000000 1.0
C      1  0.3554430000000  0.6145280000000  0.3421210000000 1.0
C      1  0.3421220000000  0.3849760000000  0.6445550000000 1.0
C      1  0.5521880000000  0.4562760000000  0.5849170000000 1.0
C      1  0.6578810000000  0.3849830000000  0.3554430000000 1.0
C      1  0.4478130000000  0.4562760000000  0.4150820000000 1.0
C      1  0.3110110000000  0.5338740000000  0.5953030000000 1.0
C      1  0.5820780000000  0.5640060000000  0.7087080000000 1.0
C      1  0.6889880000000  0.5338810000000  0.4046980000000 1.0
C      1  0.4179210000000  0.5640080000000  0.2912940000000 1.0
C      1  0.2912940000000  0.4354970000000  0.5820780000000 1.0
C      1  0.5953040000000  0.4656290000000  0.6889900000000 1.0
C      1  0.7087070000000  0.4355030000000  0.4179210000000 1.0
C      1  0.4046970000000  0.4656300000000  0.3110100000000 1.0
C      1  0.4362520000000  0.3538460000000  0.4289290000000 1.0
C      1  0.4079630000000  0.3296620000000  0.6018620000000 1.0
C      1  0.5637510000000  0.3538460000000  0.5710680000000 1.0
C      1  0.5920410000000  0.3296670000000  0.3981350000000 1.0
C      1  0.3981350000000  0.6698420000000  0.4079630000000 1.0
C      1  0.4289290000000  0.6456580000000  0.5637500000000 1.0
C      1  0.6018610000000  0.6698430000000  0.5920410000000 1.0
C      1  0.5710670000000  0.6456610000000  0.4362530000000 1.0
C      1  0.2723220000000  0.4465080000000  0.4280540000000 1.0
C      1  0.4481050000000  0.4529350000000  0.7446920000000 1.0
C      1  0.7276790000000  0.4465120000000  0.5719450000000 1.0
C      1  0.5518960000000  0.4529410000000  0.2553070000000 1.0
C      1  0.2553080000000  0.5465670000000  0.4481050000000 1.0
C      1  0.4280540000000  0.5529940000000  0.7276790000000 1.0
C      1  0.7446910000000  0.5465710000000  0.5518960000000 1.0
C      1  0.5719450000000  0.5530000000000  0.2723220000000 1.0
C      1  0.4802240000000  0.4005080000000  0.2858430000000 1.0
C      1  0.3028330000000  0.3955780000000  0.4982820000000 1.0
C      1  0.5197780000000  0.4005040000000  0.7141550000000 1.0
C      1  0.6971700000000  0.3955820000000  0.5017160000000 1.0
C      1  0.5017160000000  0.6039290000000  0.3028330000000 1.0
C      1  0.2858440000000  0.5989980000000  0.5197770000000 1.0
C      1  0.4982820000000  0.6039250000000  0.6971690000000 1.0
C      1  0.7141540000000  0.5990030000000  0.4802250000000 1.0
C      1  0.4975700000000  0.3313480000000  0.6376970000000 1.0
C      1  0.6165800000000  0.3374910000000  0.4949090000000 1.0
C      1  0.5024340000000  0.3313510000000  0.3622990000000 1.0
C      1  0.3834240000000  0.3374880000000  0.5050880000000 1.0
C      1  0.5050880000000  0.6620160000000  0.6165800000000 1.0
C      1  0.6376960000000  0.6681580000000  0.5024340000000 1.0
C      1  0.4949080000000  0.6620180000000  0.3834230000000 1.0
C      1  0.3623000000000  0.6681550000000  0.4975690000000 1.0
C      1  0.5379030000000  0.4765490000000  0.4081290000000 1.0
C      1  0.4081290000000  0.5229580000000  0.4620960000000 1.0
C      1  0.4620970000000  0.4765460000000  0.5918700000000 1.0
C      1  0.5918700000000  0.5229590000000  0.5379040000000 1.0
END
