TITL C-2158988-7926-870 -0.00334515633745206 3375 -413.069395562515 0 0 60 (C1) n - 1
REM
REM in /scratch/bkarasulu/868
REM
REM
REM
REM
REM
REM ./C.cell (a2850807a9bf4ad07a5b6933b78d9264)
REM AIRSS Version 0.9.1 bugfix July 2018 build 013d7b7c2542+ Fri, 06 Jul 2018 19:26:36 +0100
REM compiler GCC version 9.2.1 20190827 (Red Hat 9.2.1-1)
REM options -cpp -mtune=generic -march=x86-64 -g -O0 -fpre-include=/usr/include/finclude/math-vector-fortran.h
REM seed -884778040 -722079427 -1183396355 150131388 2029886217 -1524360672 270039634 1919775393 1633045742 -595434957 725664924 1149397735 2023062872 -1351077851 -1926819178 -659046377 -1135663631 -337437435 -451384177 350420069 718186932 -359209644 1791254074 -81459228 -1649327583 -820100284 1600999995 875133612 -1268504716 -361955359 100581920 -1388491392 -573568618
REM
CELL 1.54180   15.00000   15.00000   15.00000   90.00000   90.00000   90.00000
LATT -1
SFAC C  
C      1  0.4259830000000  0.3353040000000  0.6790510000000 1.0
C      1  0.3315670000000  0.6670900000000  0.4863450000000 1.0
C      1  0.6985410000000  0.3928980000000  0.3601290000000 1.0
C      1  0.5553170000000  0.3349580000000  0.2474670000000 1.0
C      1  0.5054140000000  0.6674950000000  0.7055700000000 1.0
C      1  0.4969810000000  0.6704870000000  0.3345200000000 1.0
C      1  0.6626890000000  0.6782580000000  0.5730260000000 1.0
C      1  0.6527510000000  0.3241320000000  0.4023920000000 1.0
C      1  0.3800770000000  0.2997200000000  0.6059340000000 1.0
C      1  0.3141000000000  0.5176960000000  0.6623480000000 1.0
C      1  0.3355130000000  0.4936340000000  0.3372530000000 1.0
C      1  0.6961240000000  0.6048200000000  0.6197400000000 1.0
C      1  0.4205710000000  0.6606730000000  0.7537790000000 1.0
C      1  0.3403830000000  0.3374370000000  0.5262720000000 1.0
C      1  0.6784820000000  0.4798020000000  0.3224070000000 1.0
C      1  0.5796900000000  0.6720860000000  0.2830560000000 1.0
C      1  0.5238290000000  0.3333740000000  0.6613440000000 1.0
C      1  0.4765360000000  0.3423900000000  0.3085150000000 1.0
C      1  0.6775120000000  0.3258930000000  0.4992980000000 1.0
C      1  0.6630450000000  0.6644420000000  0.4731290000000 1.0
C      1  0.3393070000000  0.6760320000000  0.5859470000000 1.0
C      1  0.2930780000000  0.6062320000000  0.6273850000000 1.0
C      1  0.3037700000000  0.4038330000000  0.3569100000000 1.0
C      1  0.6600770000000  0.5180190000000  0.6499850000000 1.0
C      1  0.4183770000000  0.7053260000000  0.4770960000000 1.0
C      1  0.7487160000000  0.4358350000000  0.4301490000000 1.0
C      1  0.4357630000000  0.4205290000000  0.7183950000000 1.0
C      1  0.5788410000000  0.7204180000000  0.5659880000000 1.0
C      1  0.5666000000000  0.2907660000000  0.4253790000000 1.0
C      1  0.4466990000000  0.2601080000000  0.5508930000000 1.0
C      1  0.2666420000000  0.4764590000000  0.5869360000000 1.0
C      1  0.2757170000000  0.5293980000000  0.4048440000000 1.0
C      1  0.7427000000000  0.5594390000000  0.5497500000000 1.0
C      1  0.5525310000000  0.4277870000000  0.2383170000000 1.0
C      1  0.5268930000000  0.5755200000000  0.7261650000000 1.0
C      1  0.4732840000000  0.5858890000000  0.2963460000000 1.0
C      1  0.4116770000000  0.2965740000000  0.4698220000000 1.0
C      1  0.7285040000000  0.5223950000000  0.3953450000000 1.0
C      1  0.4351660000000  0.5680560000000  0.7557530000000 1.0
C      1  0.5966490000000  0.2824260000000  0.5193080000000 1.0
C      1  0.5765620000000  0.7068920000000  0.4697580000000 1.0
C      1  0.4252850000000  0.7136780000000  0.5742990000000 1.0
C      1  0.2452940000000  0.5635170000000  0.5558160000000 1.0
C      1  0.2599800000000  0.4371740000000  0.4333820000000 1.0
C      1  0.7164160000000  0.4729760000000  0.5829540000000 1.0
C      1  0.5645990000000  0.5813250000000  0.2624100000000 1.0
C      1  0.5311590000000  0.4205490000000  0.7000870000000 1.0
C      1  0.4633280000000  0.4307240000000  0.2736600000000 1.0
C      1  0.3825110000000  0.4964350000000  0.7222420000000 1.0
C      1  0.6118530000000  0.5004630000000  0.2612310000000 1.0
C      1  0.4767360000000  0.3066020000000  0.3978930000000 1.0
C      1  0.5050900000000  0.7136460000000  0.6219780000000 1.0
C      1  0.7211210000000  0.5906460000000  0.4599190000000 1.0
C      1  0.5797570000000  0.5027300000000  0.6972140000000 1.0
C      1  0.2720530000000  0.5958830000000  0.4689120000000 1.0
C      1  0.2782490000000  0.4075200000000  0.5212680000000 1.0
C      1  0.7261180000000  0.4038190000000  0.5186680000000 1.0
C      1  0.4190380000000  0.5101240000000  0.2976120000000 1.0
C      1  0.4945550000000  0.7037200000000  0.4220570000000 1.0
C      1  0.5341980000000  0.2779470000000  0.5863520000000 1.0
END
