TITL C-2158984-8299-557 -0.00170814349079831 3375 -422.503274256784 0 0 60 (D2) n - 1
REM
REM in /scratch/bkarasulu/869
REM
REM
REM
REM
REM
REM ./C.cell (a2850807a9bf4ad07a5b6933b78d9264)
REM AIRSS Version 0.9.1 bugfix July 2018 build 013d7b7c2542+ Fri, 06 Jul 2018 19:26:36 +0100
REM compiler GCC version 9.2.1 20190827 (Red Hat 9.2.1-1)
REM options -cpp -mtune=generic -march=x86-64 -g -O0 -fpre-include=/usr/include/finclude/math-vector-fortran.h
REM seed -416150146 -1387071190 -483398570 1215215911 199342932 -272188862 699901187 659392142 96553412 -965295615 -1990995102 -1110761058 -1045788369 1853081957 45927552 -1934197325 -1187771372 955763742 -36646999 -1939901739 -1072725244 1113840157 72016679 -915847272 -111387107 518547384 1502426660 827220375 -667870808 291356733 993330670 -794587196 -1908023190
REM
CELL 1.54180   15.00000   15.00000   15.00000   90.00000   90.00000   90.00000
LATT -1
SFAC C  
C      1  0.4903490000000  0.3767710000000  0.7106110000000 1.0
C      1  0.5096510000000  0.3767710000000  0.2893890000000 1.0
C      1  0.4903490000000  0.6232290000000  0.2893890000000 1.0
C      1  0.5096510000000  0.6232290000000  0.7106110000000 1.0
C      1  0.6871260000000  0.5481190000000  0.4142000000000 1.0
C      1  0.3128740000000  0.5481190000000  0.5858000000000 1.0
C      1  0.6871260000000  0.4518810000000  0.5858000000000 1.0
C      1  0.3128740000000  0.4518810000000  0.4142000000000 1.0
C      1  0.4281330000000  0.3564770000000  0.3348550000000 1.0
C      1  0.5718670000000  0.3564770000000  0.6651450000000 1.0
C      1  0.4281330000000  0.6435230000000  0.6651450000000 1.0
C      1  0.5718670000000  0.6435230000000  0.3348550000000 1.0
C      1  0.3629980000000  0.4277370000000  0.3364070000000 1.0
C      1  0.6370020000000  0.4277370000000  0.6635930000000 1.0
C      1  0.3629980000000  0.5722630000000  0.6635930000000 1.0
C      1  0.6370020000000  0.5722630000000  0.3364070000000 1.0
C      1  0.5478780000000  0.3077130000000  0.5837690000000 1.0
C      1  0.4521220000000  0.3077130000000  0.4162310000000 1.0
C      1  0.5478780000000  0.6922870000000  0.4162310000000 1.0
C      1  0.4521220000000  0.6922870000000  0.5837690000000 1.0
C      1  0.3843400000000  0.4892870000000  0.7067450000000 1.0
C      1  0.6156600000000  0.4892870000000  0.2932550000000 1.0
C      1  0.3843400000000  0.5107130000000  0.2932550000000 1.0
C      1  0.6156600000000  0.5107130000000  0.7067450000000 1.0
C      1  0.5833970000000  0.3458270000000  0.3426880000000 1.0
C      1  0.4166030000000  0.3458270000000  0.6573120000000 1.0
C      1  0.5833970000000  0.6541730000000  0.6573120000000 1.0
C      1  0.4166030000000  0.6541730000000  0.3426880000000 1.0
C      1  0.5508580000000  0.6957950000000  0.5786590000000 1.0
C      1  0.4491420000000  0.6957950000000  0.4213410000000 1.0
C      1  0.5508580000000  0.3042050000000  0.4213410000000 1.0
C      1  0.4491420000000  0.3042050000000  0.5786590000000 1.0
C      1  0.3086640000000  0.4490960000000  0.5798150000000 1.0
C      1  0.6913360000000  0.4490960000000  0.4201850000000 1.0
C      1  0.3086640000000  0.5509040000000  0.4201850000000 1.0
C      1  0.6913360000000  0.5509040000000  0.5798150000000 1.0
C      1  0.4028850000000  0.6782240000000  0.5037940000000 1.0
C      1  0.5971150000000  0.6782240000000  0.4962060000000 1.0
C      1  0.4028850000000  0.3217760000000  0.4962060000000 1.0
C      1  0.5971150000000  0.3217760000000  0.5037940000000 1.0
C      1  0.4295890000000  0.4494460000000  0.4998930000000 1.0
C      1  0.5704110000000  0.4494460000000  0.5001070000000 1.0
C      1  0.4295890000000  0.5505540000000  0.5001070000000 1.0
C      1  0.5704110000000  0.5505540000000  0.4998930000000 1.0
C      1  0.5309180000000  0.4651980000000  0.2581320000000 1.0
C      1  0.4690820000000  0.4651980000000  0.7418680000000 1.0
C      1  0.5309180000000  0.5348020000000  0.7418680000000 1.0
C      1  0.4690820000000  0.5348020000000  0.2581320000000 1.0
C      1  0.5013060000000  0.4519630000000  0.4272790000000 1.0
C      1  0.4986940000000  0.4519630000000  0.5727210000000 1.0
C      1  0.5013060000000  0.5480370000000  0.5727210000000 1.0
C      1  0.4986940000000  0.5480370000000  0.4272790000000 1.0
C      1  0.3521920000000  0.5850070000000  0.3446650000000 1.0
C      1  0.6478080000000  0.5850070000000  0.6553350000000 1.0
C      1  0.3521920000000  0.4149930000000  0.6553350000000 1.0
C      1  0.6478080000000  0.4149930000000  0.3446650000000 1.0
C      1  0.6620270000000  0.4048010000000  0.5036290000000 1.0
C      1  0.3379730000000  0.4048010000000  0.4963710000000 1.0
C      1  0.6620270000000  0.5951990000000  0.4963710000000 1.0
C      1  0.3379730000000  0.5951990000000  0.5036290000000 1.0
END
