TITL C-2159255-4746-1136 -0.00229302549559779 3375 -408.184489861091 0 0 60 (D2) n - 1
REM
REM in /scratch/bkarasulu/871
REM
REM
REM
REM
REM
REM ./C.cell (a2850807a9bf4ad07a5b6933b78d9264)
REM AIRSS Version 0.9.1 bugfix July 2018 build 013d7b7c2542+ Fri, 06 Jul 2018 19:26:36 +0100
REM compiler GCC version 9.2.1 20190827 (Red Hat 9.2.1-1)
REM options -cpp -mtune=generic -march=x86-64 -g -O0 -fpre-include=/usr/include/finclude/math-vector-fortran.h
REM seed 1824381064 -427705125 1269783819 -1203411571 -1606613834 -603238427 -308215208 -510060472 1477934112 -634066361 -1921068009 1345472450 2093897823 -774997380 438143341 585999911 1277231995 1051039478 1311965379 -1958662898 861223910 -427615610 1941320328 1786756562 1363485611 1964988244 -2092865593 -1545847610 1551391688 -1476239194 -1833142712 -583590198 1704445373
REM
CELL 1.54180   15.00000   15.00000   15.00000   90.00000   90.00000   90.00000
LATT -1
SFAC C  
C      1  0.3478700000000  0.3868830000000  0.6409120000000 1.0
C      1  0.6521300000000  0.6131170000000  0.6409120000000 1.0
C      1  0.6521300000000  0.3868830000000  0.3590880000000 1.0
C      1  0.3478700000000  0.6131170000000  0.3590880000000 1.0
C      1  0.6152630000000  0.3054610000000  0.5934670000000 1.0
C      1  0.3847370000000  0.6945390000000  0.5934670000000 1.0
C      1  0.3847370000000  0.3054610000000  0.4065330000000 1.0
C      1  0.6152630000000  0.6945390000000  0.4065330000000 1.0
C      1  0.4318690000000  0.5110430000000  0.7520190000000 1.0
C      1  0.5681310000000  0.4889570000000  0.7520190000000 1.0
C      1  0.5681310000000  0.5110430000000  0.2479810000000 1.0
C      1  0.4318690000000  0.4889570000000  0.2479810000000 1.0
C      1  0.4418600000000  0.6947350000000  0.4352820000000 1.0
C      1  0.5581400000000  0.3052650000000  0.4352820000000 1.0
C      1  0.5581400000000  0.6947350000000  0.5647180000000 1.0
C      1  0.4418600000000  0.3052650000000  0.5647180000000 1.0
C      1  0.6738200000000  0.5175130000000  0.6363750000000 1.0
C      1  0.3261800000000  0.4824870000000  0.6363750000000 1.0
C      1  0.3261800000000  0.5175130000000  0.3636250000000 1.0
C      1  0.6738200000000  0.4824870000000  0.3636250000000 1.0
C      1  0.4086370000000  0.6431560000000  0.6648920000000 1.0
C      1  0.5913630000000  0.3568440000000  0.6648920000000 1.0
C      1  0.5913630000000  0.6431560000000  0.3351080000000 1.0
C      1  0.4086370000000  0.3568440000000  0.3351080000000 1.0
C      1  0.4795080000000  0.6044460000000  0.4604210000000 1.0
C      1  0.5204920000000  0.3955540000000  0.4604210000000 1.0
C      1  0.5204920000000  0.6044460000000  0.5395790000000 1.0
C      1  0.4795080000000  0.3955540000000  0.5395790000000 1.0
C      1  0.5139960000000  0.4322840000000  0.2442550000000 1.0
C      1  0.4860040000000  0.5677160000000  0.2442550000000 1.0
C      1  0.4860040000000  0.4322840000000  0.7557450000000 1.0
C      1  0.5139960000000  0.5677160000000  0.7557450000000 1.0
C      1  0.4908610000000  0.4589450000000  0.4067480000000 1.0
C      1  0.5091390000000  0.5410550000000  0.4067480000000 1.0
C      1  0.5091390000000  0.4589450000000  0.5932520000000 1.0
C      1  0.4908610000000  0.5410550000000  0.5932520000000 1.0
C      1  0.5789160000000  0.6734600000000  0.6559140000000 1.0
C      1  0.4210840000000  0.3265400000000  0.6559140000000 1.0
C      1  0.4210840000000  0.6734600000000  0.3440860000000 1.0
C      1  0.5789160000000  0.3265400000000  0.3440860000000 1.0
C      1  0.6302350000000  0.4506350000000  0.6923300000000 1.0
C      1  0.3697650000000  0.5493650000000  0.6923300000000 1.0
C      1  0.3697650000000  0.4506350000000  0.3076700000000 1.0
C      1  0.6302350000000  0.5493650000000  0.3076700000000 1.0
C      1  0.5028620000000  0.6453220000000  0.7057660000000 1.0
C      1  0.4971380000000  0.3546780000000  0.7057660000000 1.0
C      1  0.4971380000000  0.6453220000000  0.2942340000000 1.0
C      1  0.5028620000000  0.3546780000000  0.2942340000000 1.0
C      1  0.6319700000000  0.3064270000000  0.5035050000000 1.0
C      1  0.3680300000000  0.6935730000000  0.5035050000000 1.0
C      1  0.3680300000000  0.3064270000000  0.4964950000000 1.0
C      1  0.6319700000000  0.6935730000000  0.4964950000000 1.0
C      1  0.6821050000000  0.3762400000000  0.4534650000000 1.0
C      1  0.3178950000000  0.6237600000000  0.4534650000000 1.0
C      1  0.3178950000000  0.3762400000000  0.5465350000000 1.0
C      1  0.6821050000000  0.6237600000000  0.5465350000000 1.0
C      1  0.7018350000000  0.4709770000000  0.4602580000000 1.0
C      1  0.2981650000000  0.5290230000000  0.4602580000000 1.0
C      1  0.2981650000000  0.4709770000000  0.5397420000000 1.0
C      1  0.7018350000000  0.5290230000000  0.5397420000000 1.0
END
