TITL C-2159255-4746-276 -0.00511610299910658 3375 -403.654117661939 0 0 60 (C1) n - 1
REM
REM in /scratch/bkarasulu/871
REM
REM
REM
REM
REM
REM ./C.cell (a2850807a9bf4ad07a5b6933b78d9264)
REM AIRSS Version 0.9.1 bugfix July 2018 build 013d7b7c2542+ Fri, 06 Jul 2018 19:26:36 +0100
REM compiler GCC version 9.2.1 20190827 (Red Hat 9.2.1-1)
REM options -cpp -mtune=generic -march=x86-64 -g -O0 -fpre-include=/usr/include/finclude/math-vector-fortran.h
REM seed 1529341834 -525209623 -1151332791 -1296666315 1069134333 1448429108 -120591841 -417155624 -436919534 -1938675595 -214845535 -1706154607 -1754486193 -1095097282 -926750674 -1295196440 -1938274111 -1301463788 1768114138 -1919491237 923155026 625349687 -1703879576 335246297 -853527578 -2000924922 -498204171 888780503 507961011 970398144 659348632 168025068 -1133636850
REM
CELL 1.54180   15.00000   15.00000   15.00000   90.00000   90.00000   90.00000
LATT -1
SFAC C  
C      1  0.1680100000000  0.3838650000000  0.3933880000000 1.0
C      1  0.1790560000000  0.3492850000000  0.4730940000000 1.0
C      1  0.1901010000000  0.3656840000000  0.5583330000000 1.0
C      1  0.1958180000000  0.4244800000000  0.6225640000000 1.0
C      1  0.1990730000000  0.5086950000000  0.6451630000000 1.0
C      1  0.1996450000000  0.5914230000000  0.6176870000000 1.0
C      1  0.1949380000000  0.6454240000000  0.5495430000000 1.0
C      1  0.1884360000000  0.6552420000000  0.4630510000000 1.0
C      1  0.1789350000000  0.6175870000000  0.3849690000000 1.0
C      1  0.1712260000000  0.5433070000000  0.3389970000000 1.0
C      1  0.1691770000000  0.4559760000000  0.3438710000000 1.0
C      1  0.4249250000000  0.7423040000000  0.6395020000000 1.0
C      1  0.4227380000000  0.7038040000000  0.3486880000000 1.0
C      1  0.4539140000000  0.6523480000000  0.2755470000000 1.0
C      1  0.4512550000000  0.5601020000000  0.2374870000000 1.0
C      1  0.4171940000000  0.4741630000000  0.2565070000000 1.0
C      1  0.4213500000000  0.2579820000000  0.4525610000000 1.0
C      1  0.4569760000000  0.2312850000000  0.5354540000000 1.0
C      1  0.4610230000000  0.2591890000000  0.6311200000000 1.0
C      1  0.4298720000000  0.3254410000000  0.6905530000000 1.0
C      1  0.4272220000000  0.6116250000000  0.7578820000000 1.0
C      1  0.4504710000000  0.6947750000000  0.7178190000000 1.0
C      1  0.5205480000000  0.3488670000000  0.3333340000000 1.0
C      1  0.5747870000000  0.2504480000000  0.4334420000000 1.0
C      1  0.6085460000000  0.2447010000000  0.5769980000000 1.0
C      1  0.5840090000000  0.3312660000000  0.6940140000000 1.0
C      1  0.5336830000000  0.4675780000000  0.7298040000000 1.0
C      1  0.5787590000000  0.6104920000000  0.7291970000000 1.0
C      1  0.5770800000000  0.7178450000000  0.6327420000000 1.0
C      1  0.5287140000000  0.7316060000000  0.4914770000000 1.0
C      1  0.5769240000000  0.7109920000000  0.3511830000000 1.0
C      1  0.6022100000000  0.6036440000000  0.2521750000000 1.0
C      1  0.5711950000000  0.4592950000000  0.2442410000000 1.0
C      1  0.6257320000000  0.5715420000000  0.6526700000000 1.0
C      1  0.6248150000000  0.6467130000000  0.5851810000000 1.0
C      1  0.6072870000000  0.6680400000000  0.4929340000000 1.0
C      1  0.6290030000000  0.6449740000000  0.4013030000000 1.0
C      1  0.6443410000000  0.5675820000000  0.3363020000000 1.0
C      1  0.6274460000000  0.4678520000000  0.3254610000000 1.0
C      1  0.6088410000000  0.3854280000000  0.3719090000000 1.0
C      1  0.6299570000000  0.3311640000000  0.4488220000000 1.0
C      1  0.6485810000000  0.3323510000000  0.5486930000000 1.0
C      1  0.6330150000000  0.3890970000000  0.6319900000000 1.0
C      1  0.6101600000000  0.4773480000000  0.6645740000000 1.0
C      1  0.5459170000000  0.5426180000000  0.2122080000000 1.0
C      1  0.4889300000000  0.4106200000000  0.2672330000000 1.0
C      1  0.4913950000000  0.2762690000000  0.3887720000000 1.0
C      1  0.5516800000000  0.2098550000000  0.5136090000000 1.0
C      1  0.5574620000000  0.2526200000000  0.6529730000000 1.0
C      1  0.5037280000000  0.3763930000000  0.7266220000000 1.0
C      1  0.5043870000000  0.5551160000000  0.7551090000000 1.0
C      1  0.5525750000000  0.6981630000000  0.7193410000000 1.0
C      1  0.5010890000000  0.7477090000000  0.5817060000000 1.0
C      1  0.4968210000000  0.7371010000000  0.4010490000000 1.0
C      1  0.5495000000000  0.6770230000000  0.2693630000000 1.0
C      1  0.3752850000000  0.5090980000000  0.5159280000000 1.0
C      1  0.5396810000000  0.4955220000000  0.4928220000000 1.0
C      1  0.7139200000000  0.4997650000000  0.4958740000000 1.0
C      1  0.4608440000000  0.5140330000000  0.5232890000000 1.0
C      1  0.6296310000000  0.4985810000000  0.4959750000000 1.0
END
