TITL C-2159255-4746-1324 -0.00693960278913826 3375 -389.986668171627 0 0 60 (C6) n - 1
REM
REM in /scratch/bkarasulu/871
REM
REM
REM
REM
REM
REM ./C.cell (a2850807a9bf4ad07a5b6933b78d9264)
REM AIRSS Version 0.9.1 bugfix July 2018 build 013d7b7c2542+ Fri, 06 Jul 2018 19:26:36 +0100
REM compiler GCC version 9.2.1 20190827 (Red Hat 9.2.1-1)
REM options -cpp -mtune=generic -march=x86-64 -g -O0 -fpre-include=/usr/include/finclude/math-vector-fortran.h
REM seed -530262800 -1597996282 837614584 1488548122 1095710819 -73085771 2140023365 -196405141 -625806648 -707629098 1946877168 259622515 136587928 -1396746083 1502509952 2116466577 1160304221 673506062 764158342 1532996456 574558556 1061438479 388535191 1594245969 -585594704 1654505331 -382384076 852989630 -138955161 178544195 -1228504378 1768716258 -2111687309
REM
CELL 1.54180   15.00000   15.00000   15.00000   90.00000   90.00000   90.00000
LATT -1
SFAC C  
C      1  0.4500130000000  0.5197230000000  0.6872230000000 1.0
C      1  0.3127980000000  0.5196760000000  0.5503370000000 1.0
C      1  0.3628060000000  0.5197110000000  0.3631010000000 1.0
C      1  0.5499870000000  0.5197230000000  0.3127770000000 1.0
C      1  0.6872020000000  0.5196760000000  0.4496630000000 1.0
C      1  0.6371940000000  0.5197110000000  0.6368990000000 1.0
C      1  0.4500130000000  0.5197230000000  0.3127770000000 1.0
C      1  0.3127980000000  0.5196760000000  0.4496630000000 1.0
C      1  0.3628060000000  0.5197110000000  0.6368990000000 1.0
C      1  0.5499870000000  0.5197230000000  0.6872230000000 1.0
C      1  0.6872020000000  0.5196760000000  0.5503370000000 1.0
C      1  0.6371940000000  0.5197110000000  0.3631010000000 1.0
C      1  0.4549830000000  0.3496190000000  0.3244190000000 1.0
C      1  0.6295480000000  0.3496120000000  0.3732210000000 1.0
C      1  0.6745680000000  0.3495820000000  0.5488070000000 1.0
C      1  0.5450170000000  0.3496190000000  0.6755810000000 1.0
C      1  0.3704520000000  0.3496120000000  0.6267790000000 1.0
C      1  0.3254320000000  0.3495820000000  0.4511930000000 1.0
C      1  0.4549830000000  0.3496190000000  0.6755810000000 1.0
C      1  0.6295480000000  0.3496120000000  0.6267790000000 1.0
C      1  0.6745680000000  0.3495820000000  0.4511930000000 1.0
C      1  0.5450170000000  0.3496190000000  0.3244190000000 1.0
C      1  0.3704520000000  0.3496120000000  0.3732210000000 1.0
C      1  0.3254320000000  0.3495820000000  0.5488070000000 1.0
C      1  0.4523670000000  0.5829710000000  0.7686490000000 1.0
C      1  0.2434400000000  0.5829010000000  0.5930900000000 1.0
C      1  0.2911070000000  0.5829520000000  0.3244230000000 1.0
C      1  0.5476330000000  0.5829710000000  0.2313510000000 1.0
C      1  0.7565600000000  0.5829010000000  0.4069100000000 1.0
C      1  0.7088930000000  0.5829520000000  0.6755770000000 1.0
C      1  0.4523670000000  0.5829710000000  0.2313510000000 1.0
C      1  0.2434400000000  0.5829010000000  0.4069100000000 1.0
C      1  0.2911070000000  0.5829520000000  0.6755770000000 1.0
C      1  0.5476330000000  0.5829710000000  0.7686490000000 1.0
C      1  0.7565600000000  0.5829010000000  0.5930900000000 1.0
C      1  0.7088930000000  0.5829520000000  0.3244230000000 1.0
C      1  0.6231650000000  0.6181920000000  0.8026250000000 1.0
C      1  0.2994680000000  0.6181950000000  0.7579680000000 1.0
C      1  0.1762130000000  0.6180650000000  0.4553320000000 1.0
C      1  0.3768350000000  0.6181920000000  0.1973750000000 1.0
C      1  0.7005320000000  0.6181950000000  0.2420320000000 1.0
C      1  0.8237870000000  0.6180650000000  0.5446680000000 1.0
C      1  0.6231650000000  0.6181920000000  0.1973750000000 1.0
C      1  0.2994680000000  0.6181950000000  0.2420320000000 1.0
C      1  0.1762130000000  0.6180650000000  0.5446680000000 1.0
C      1  0.3768350000000  0.6181920000000  0.8026250000000 1.0
C      1  0.7005320000000  0.6181950000000  0.7579680000000 1.0
C      1  0.8237870000000  0.6180650000000  0.4553320000000 1.0
C      1  0.7347370000000  0.4295600000000  0.4538930000000 1.0
C      1  0.6572870000000  0.4296140000000  0.6802110000000 1.0
C      1  0.4225780000000  0.4296260000000  0.7263090000000 1.0
C      1  0.2652630000000  0.4295600000000  0.5461070000000 1.0
C      1  0.3427130000000  0.4296140000000  0.3197890000000 1.0
C      1  0.5774220000000  0.4296260000000  0.2736910000000 1.0
C      1  0.7347370000000  0.4295600000000  0.5461070000000 1.0
C      1  0.6572870000000  0.4296140000000  0.3197890000000 1.0
C      1  0.4225780000000  0.4296260000000  0.2736910000000 1.0
C      1  0.2652630000000  0.4295600000000  0.4538930000000 1.0
C      1  0.3427130000000  0.4296140000000  0.6802110000000 1.0
C      1  0.5774220000000  0.4296260000000  0.7263090000000 1.0
END
