TITL C-2159255-4746-1407 -0.00319783528528199 3375 -431.829778876445 0 0 60 (C2v) n - 1
REM
REM in /scratch/bkarasulu/871
REM
REM
REM
REM
REM
REM ./C.cell (a2850807a9bf4ad07a5b6933b78d9264)
REM AIRSS Version 0.9.1 bugfix July 2018 build 013d7b7c2542+ Fri, 06 Jul 2018 19:26:36 +0100
REM compiler GCC version 9.2.1 20190827 (Red Hat 9.2.1-1)
REM options -cpp -mtune=generic -march=x86-64 -g -O0 -fpre-include=/usr/include/finclude/math-vector-fortran.h
REM seed -1189873984 57144174 954421107 -44544509 -1592917812 1114487641 -1264751926 -685635969 1166199522 -1239136578 -654910344 1519213726 -594675033 -1900502271 857731430 177341221 -2108155646 -1665347037 17668089 -40826348 1866651700 1456470511 -1775441717 -1152536800 -2096907399 1801370867 455323678 1594698903 1042306596 1202430600 455025799 358230345 -1752655531
REM
CELL 1.54180   15.00000   15.00000   15.00000   90.00000   90.00000   90.00000
LATT -1
SFAC C  
C      1  0.4481590000000  0.4285640000000  0.2537230000000 1.0
C      1  0.4402950000000  0.2876840000000  0.3357350000000 1.0
C      1  0.4481590000000  0.2436750000000  0.4926940000000 1.0
C      1  0.4481240000000  0.2835710000000  0.6416400000000 1.0
C      1  0.4481240000000  0.4172440000000  0.7450640000000 1.0
C      1  0.4481590000000  0.5714360000000  0.7462770000000 1.0
C      1  0.4402960000000  0.7123160000000  0.6642640000000 1.0
C      1  0.4481590000000  0.7563250000000  0.5073060000000 1.0
C      1  0.4481250000000  0.7164290000000  0.3583600000000 1.0
C      1  0.4481240000000  0.5827560000000  0.2549360000000 1.0
C      1  0.3459500000000  0.4112030000000  0.3711760000000 1.0
C      1  0.3459490000000  0.3530050000000  0.4463970000000 1.0
C      1  0.3421490000000  0.3500370000000  0.5436580000000 1.0
C      1  0.3476550000000  0.4055850000000  0.6220330000000 1.0
C      1  0.3421500000000  0.4953970000000  0.6561210000000 1.0
C      1  0.3459500000000  0.5887970000000  0.6288240000000 1.0
C      1  0.3459490000000  0.6469950000000  0.5536030000000 1.0
C      1  0.3421500000000  0.6499630000000  0.4563420000000 1.0
C      1  0.3476550000000  0.5944150000000  0.3779670000000 1.0
C      1  0.3421500000000  0.5046030000000  0.3438790000000 1.0
C      1  0.3953340000000  0.2712240000000  0.5656820000000 1.0
C      1  0.4104250000000  0.3563970000000  0.6856110000000 1.0
C      1  0.3953340000000  0.4938690000000  0.7379400000000 1.0
C      1  0.4008800000000  0.6346640000000  0.6978440000000 1.0
C      1  0.4008790000000  0.7253220000000  0.5806690000000 1.0
C      1  0.3953350000000  0.7287760000000  0.4343180000000 1.0
C      1  0.4104260000000  0.6436040000000  0.3143890000000 1.0
C      1  0.3953350000000  0.5061320000000  0.2620600000000 1.0
C      1  0.4008800000000  0.3653360000000  0.3021560000000 1.0
C      1  0.4008780000000  0.2746780000000  0.4193310000000 1.0
C      1  0.5842360000000  0.6722390000000  0.6332590000000 1.0
C      1  0.6017550000000  0.6875350000000  0.5394680000000 1.0
C      1  0.6076510000000  0.6806930000000  0.3466330000000 1.0
C      1  0.6076510000000  0.6030790000000  0.2865840000000 1.0
C      1  0.6017540000000  0.4147060000000  0.3283850000000 1.0
C      1  0.5842360000000  0.3277600000000  0.3667410000000 1.0
C      1  0.6017540000000  0.3124650000000  0.4605320000000 1.0
C      1  0.6076510000000  0.3193070000000  0.6533670000000 1.0
C      1  0.6076510000000  0.3969200000000  0.7134160000000 1.0
C      1  0.6017540000000  0.5852940000000  0.6716150000000 1.0
C      1  0.5397730000000  0.4475290000000  0.7477290000000 1.0
C      1  0.5411380000000  0.5450960000000  0.7359440000000 1.0
C      1  0.5281940000000  0.7315430000000  0.6791390000000 1.0
C      1  0.5411380000000  0.7397080000000  0.4844060000000 1.0
C      1  0.5397730000000  0.7266130000000  0.3870050000000 1.0
C      1  0.5397740000000  0.5524710000000  0.2522710000000 1.0
C      1  0.5411380000000  0.4549040000000  0.2640560000000 1.0
C      1  0.5281940000000  0.2684570000000  0.3208610000000 1.0
C      1  0.5411380000000  0.2602910000000  0.5155940000000 1.0
C      1  0.5397730000000  0.2733870000000  0.6129950000000 1.0
C      1  0.6733070000000  0.5599230000000  0.3440890000000 1.0
C      1  0.6606280000000  0.4738750000000  0.3767660000000 1.0
C      1  0.6795000000000  0.4609310000000  0.4697730000000 1.0
C      1  0.6606280000000  0.3741540000000  0.5056570000000 1.0
C      1  0.6733060000000  0.3641320000000  0.5971540000000 1.0
C      1  0.6733070000000  0.4400760000000  0.6559110000000 1.0
C      1  0.6606280000000  0.5261240000000  0.6232340000000 1.0
C      1  0.6795000000000  0.5390690000000  0.5302270000000 1.0
C      1  0.6606280000000  0.6258450000000  0.4943430000000 1.0
C      1  0.6733070000000  0.6358680000000  0.4028460000000 1.0
END
