TITL C-2158988-7926-75 -0.00333356855645518 3375 -392.232610570342 0 0 60 (Cs) n - 1
REM
REM in /scratch/bkarasulu/868
REM
REM
REM
REM
REM
REM ./C.cell (a2850807a9bf4ad07a5b6933b78d9264)
REM AIRSS Version 0.9.1 bugfix July 2018 build 013d7b7c2542+ Fri, 06 Jul 2018 19:26:36 +0100
REM compiler GCC version 9.2.1 20190827 (Red Hat 9.2.1-1)
REM options -cpp -mtune=generic -march=x86-64 -g -O0 -fpre-include=/usr/include/finclude/math-vector-fortran.h
REM seed -704218832 1106435607 1845864145 33399864 281744503 -2122239250 -325070384 2085314898 652231334 -1765629781 417608329 -1287330270 -1217080304 -1902076968 236575845 -605726882 1295758645 1421595282 -329177127 1373706327 846950210 -258265309 1910779867 1631397988 -204061752 -1778217032 -1410801723 -755380485 -1164746090 -1458324021 487140081 -2120438228 -1448143823
REM
CELL 1.54180   15.00000   15.00000   15.00000   90.00000   90.00000   90.00000
LATT -1
SFAC C  
C      1  0.6405030000000  0.6152700000000  0.3381120000000 1.0
C      1  0.7155640000000  0.6183730000000  0.5065690000000 1.0
C      1  0.6279630000000  0.6188700000000  0.6695060000000 1.0
C      1  0.4459990000000  0.6170150000000  0.6994150000000 1.0
C      1  0.3091110000000  0.6147390000000  0.5775090000000 1.0
C      1  0.3192040000000  0.6138630000000  0.3965370000000 1.0
C      1  0.4651960000000  0.6135600000000  0.2904750000000 1.0
C      1  0.7340010000000  0.5319170000000  0.6357050000000 1.0
C      1  0.5378450000000  0.5316110000000  0.7642220000000 1.0
C      1  0.3150080000000  0.5287470000000  0.6894860000000 1.0
C      1  0.2344050000000  0.5267080000000  0.4700040000000 1.0
C      1  0.3547240000000  0.5261670000000  0.2705370000000 1.0
C      1  0.5861750000000  0.5272320000000  0.2400030000000 1.0
C      1  0.7543660000000  0.5301960000000  0.4026970000000 1.0
C      1  0.5819630000000  0.3793560000000  0.3421170000000 1.0
C      1  0.6680640000000  0.3857590000000  0.4643590000000 1.0
C      1  0.6289210000000  0.3889270000000  0.6059680000000 1.0
C      1  0.4940550000000  0.3857700000000  0.6642430000000 1.0
C      1  0.3611210000000  0.3793680000000  0.5958080000000 1.0
C      1  0.3309130000000  0.3757510000000  0.4473590000000 1.0
C      1  0.4307650000000  0.3757470000000  0.3326540000000 1.0
C      1  0.4398960000000  0.5267030000000  0.2339500000000 1.0
C      1  0.6683860000000  0.5287410000000  0.2835470000000 1.0
C      1  0.7731120000000  0.5316090000000  0.4939610000000 1.0
C      1  0.6728500000000  0.5319180000000  0.7059520000000 1.0
C      1  0.4448690000000  0.5302000000000  0.7582310000000 1.0
C      1  0.2605560000000  0.5272370000000  0.6140550000000 1.0
C      1  0.2589080000000  0.5261690000000  0.3806040000000 1.0
C      1  0.3021800000000  0.4660670000000  0.3215350000000 1.0
C      1  0.5130860000000  0.4666710000000  0.2312540000000 1.0
C      1  0.7146840000000  0.4693060000000  0.3407900000000 1.0
C      1  0.7560150000000  0.4720240000000  0.5655570000000 1.0
C      1  0.6064030000000  0.4720260000000  0.7374180000000 1.0
C      1  0.3780850000000  0.4693120000000  0.7274530000000 1.0
C      1  0.2418210000000  0.4666760000000  0.5428670000000 1.0
C      1  0.5850950000000  0.3872930000000  0.6893510000000 1.0
C      1  0.4009390000000  0.3835190000000  0.6821770000000 1.0
C      1  0.2888920000000  0.3791360000000  0.5332720000000 1.0
C      1  0.3370250000000  0.3772140000000  0.3518670000000 1.0
C      1  0.5100690000000  0.3791280000000  0.2791960000000 1.0
C      1  0.6729950000000  0.3835070000000  0.3696580000000 1.0
C      1  0.7054730000000  0.3872890000000  0.5510730000000 1.0
C      1  0.4938000000000  0.4587290000000  0.5967540000000 1.0
C      1  0.4138320000000  0.4502160000000  0.5530530000000 1.0
C      1  0.3955350000000  0.4493110000000  0.4634870000000 1.0
C      1  0.4556480000000  0.4493090000000  0.3944340000000 1.0
C      1  0.5468810000000  0.4502070000000  0.4002160000000 1.0
C      1  0.6011830000000  0.4587200000000  0.4734000000000 1.0
C      1  0.5784730000000  0.4656270000000  0.5620460000000 1.0
C      1  0.5424050000000  0.6183750000000  0.7054880000000 1.0
C      1  0.3652110000000  0.6152760000000  0.6543510000000 1.0
C      1  0.2938780000000  0.6135630000000  0.4872750000000 1.0
C      1  0.3788140000000  0.6138600000000  0.3280620000000 1.0
C      1  0.5566670000000  0.6147340000000  0.2931320000000 1.0
C      1  0.6962660000000  0.6170110000000  0.4119200000000 1.0
C      1  0.6917180000000  0.6188700000000  0.5962690000000 1.0
C      1  0.5095940000000  0.5868300000000  0.5021000000000 1.0
C      1  0.5208230000000  0.7488090000000  0.5118720000000 1.0
C      1  0.5017950000000  0.3140620000000  0.4953030000000 1.0
C      1  0.5375780000000  0.6662130000000  0.5264620000000 1.0
END
