TITL C-2158984-8299-534 -0.00192391546652675 3375 -427.333095893673 0 0 60 (C2) n - 1
REM
REM in /scratch/bkarasulu/869
REM
REM
REM
REM
REM
REM ./C.cell (a2850807a9bf4ad07a5b6933b78d9264)
REM AIRSS Version 0.9.1 bugfix July 2018 build 013d7b7c2542+ Fri, 06 Jul 2018 19:26:36 +0100
REM compiler GCC version 9.2.1 20190827 (Red Hat 9.2.1-1)
REM options -cpp -mtune=generic -march=x86-64 -g -O0 -fpre-include=/usr/include/finclude/math-vector-fortran.h
REM seed -842244972 257095723 1714749415 -877532373 -989622112 1075929422 1301978181 -1249586294 -1046527949 270565711 685211414 820314750 1407210144 1021251416 -1430640298 2087933641 -2050098939 692057941 -1597213670 1635260094 1583643544 -1489927421 1523778668 -645563581 1460852758 -887905467 -1001958322 -548455386 -247766723 -640860035 1443912600 -914939461 850878572
REM
CELL 1.54180   15.00000   15.00000   15.00000   90.00000   90.00000   90.00000
LATT -1
SFAC C  
C      1  0.5136070000000  0.4508340000000  0.2667520000000 1.0
C      1  0.4878170000000  0.5436980000000  0.2690220000000 1.0
C      1  0.4878160000000  0.4563020000000  0.7309780000000 1.0
C      1  0.5136070000000  0.5491660000000  0.7332480000000 1.0
C      1  0.3498170000000  0.6463130000000  0.5829290000000 1.0
C      1  0.6498960000000  0.3565740000000  0.5802290000000 1.0
C      1  0.6498960000000  0.6434260000000  0.4197710000000 1.0
C      1  0.3498170000000  0.3536870000000  0.4170710000000 1.0
C      1  0.3173510000000  0.5605910000000  0.6090680000000 1.0
C      1  0.6826670000000  0.4421410000000  0.6080070000000 1.0
C      1  0.6826680000000  0.5578590000000  0.3919930000000 1.0
C      1  0.3173510000000  0.4394090000000  0.3909320000000 1.0
C      1  0.5731420000000  0.6657180000000  0.3662400000000 1.0
C      1  0.4266280000000  0.3282650000000  0.3612370000000 1.0
C      1  0.4266280000000  0.6717350000000  0.6387620000000 1.0
C      1  0.5731420000000  0.3342820000000  0.6337600000000 1.0
C      1  0.6081780000000  0.5527000000000  0.7099520000000 1.0
C      1  0.3939610000000  0.4518490000000  0.7064940000000 1.0
C      1  0.3939610000000  0.5481510000000  0.2935060000000 1.0
C      1  0.6081780000000  0.4473000000000  0.2900480000000 1.0
C      1  0.5872780000000  0.7217380000000  0.5545130000000 1.0
C      1  0.4141100000000  0.2823650000000  0.5492200000000 1.0
C      1  0.4141100000000  0.7176350000000  0.4507800000000 1.0
C      1  0.5872780000000  0.2782620000000  0.4454870000000 1.0
C      1  0.4371240000000  0.3986860000000  0.2959840000000 1.0
C      1  0.5630180000000  0.5965190000000  0.2991600000000 1.0
C      1  0.5630180000000  0.4034810000000  0.7008410000000 1.0
C      1  0.4371230000000  0.6013140000000  0.7040160000000 1.0
C      1  0.3448670000000  0.3341800000000  0.5082530000000 1.0
C      1  0.6526890000000  0.6659580000000  0.5108280000000 1.0
C      1  0.6526890000000  0.3340420000000  0.4891720000000 1.0
C      1  0.3448670000000  0.6658200000000  0.4917460000000 1.0
C      1  0.4936750000000  0.4489070000000  0.4430050000000 1.0
C      1  0.4963550000000  0.5359630000000  0.4681910000000 1.0
C      1  0.4963550000000  0.4640370000000  0.5318090000000 1.0
C      1  0.4936750000000  0.5510930000000  0.5569950000000 1.0
C      1  0.3658340000000  0.4609990000000  0.3121370000000 1.0
C      1  0.6344600000000  0.5344200000000  0.3136330000000 1.0
C      1  0.6344600000000  0.4655800000000  0.6863680000000 1.0
C      1  0.3658330000000  0.5390010000000  0.6878630000000 1.0
C      1  0.6818030000000  0.4000840000000  0.4270560000000 1.0
C      1  0.3173130000000  0.5984900000000  0.4288840000000 1.0
C      1  0.3173130000000  0.4015100000000  0.5711160000000 1.0
C      1  0.6818030000000  0.5999160000000  0.5729450000000 1.0
C      1  0.4162370000000  0.3073480000000  0.6398850000000 1.0
C      1  0.5866060000000  0.6974230000000  0.6452930000000 1.0
C      1  0.5866070000000  0.3025770000000  0.3547070000000 1.0
C      1  0.4162370000000  0.6926520000000  0.3601150000000 1.0
C      1  0.7036040000000  0.4889280000000  0.4539790000000 1.0
C      1  0.2954660000000  0.5093680000000  0.4536160000000 1.0
C      1  0.2954650000000  0.4906320000000  0.5463840000000 1.0
C      1  0.7036040000000  0.5110720000000  0.5460220000000 1.0
C      1  0.3615090000000  0.3828890000000  0.6529910000000 1.0
C      1  0.6427960000000  0.6218760000000  0.6577650000000 1.0
C      1  0.6427960000000  0.3781240000000  0.3422350000000 1.0
C      1  0.3615090000000  0.6171110000000  0.3470090000000 1.0
C      1  0.5044490000000  0.2804470000000  0.3870220000000 1.0
C      1  0.4977440000000  0.7128030000000  0.3962690000000 1.0
C      1  0.4977440000000  0.2871970000000  0.6037310000000 1.0
C      1  0.5044490000000  0.7195530000000  0.6129780000000 1.0
END
