TITL C-2158988-7926-165 -0.00167659905847715 3375 -406.260047381164 0 0 60 (C6) n - 1
REM
REM in /scratch/bkarasulu/868
REM
REM
REM
REM
REM
REM ./C.cell (a2850807a9bf4ad07a5b6933b78d9264)
REM AIRSS Version 0.9.1 bugfix July 2018 build 013d7b7c2542+ Fri, 06 Jul 2018 19:26:36 +0100
REM compiler GCC version 9.2.1 20190827 (Red Hat 9.2.1-1)
REM options -cpp -mtune=generic -march=x86-64 -g -O0 -fpre-include=/usr/include/finclude/math-vector-fortran.h
REM seed 2119011396 -1672157338 -1567567131 91730002 -817426847 2124356017 -1209142292 -1640374706 -1345884023 -1363890471 519682340 -166352102 -1970267343 355497367 110404038 -265016781 1878809000 -1272099637 1509844505 60552246 -824546526 1872378394 -326586834 -1494404988 100676174 -736314545 214098096 -893108234 407294736 -1964691778 878661468 126321957 444850934
REM
CELL 1.54180   15.00000   15.00000   15.00000   90.00000   90.00000   90.00000
LATT -1
SFAC C  
C      1  0.6020590000000  0.4477360000000  0.4992550000000 1.0
C      1  0.5503840000000  0.4477360000000  0.4112420000000 1.0
C      1  0.4483250000000  0.4477360000000  0.4119870000000 1.0
C      1  0.3979410000000  0.4477360000000  0.5007450000000 1.0
C      1  0.4496160000000  0.4477360000000  0.5887580000000 1.0
C      1  0.5516750000000  0.4477360000000  0.5880130000000 1.0
C      1  0.6020590000000  0.5522640000000  0.5007450000000 1.0
C      1  0.5503840000000  0.5522640000000  0.5887580000000 1.0
C      1  0.4483250000000  0.5522640000000  0.5880130000000 1.0
C      1  0.3979410000000  0.5522640000000  0.4992550000000 1.0
C      1  0.4496160000000  0.5522640000000  0.4112420000000 1.0
C      1  0.5516750000000  0.5522640000000  0.4119870000000 1.0
C      1  0.4440900000000  0.3552020000000  0.2734610000000 1.0
C      1  0.2758560000000  0.3552010000000  0.4351500000000 1.0
C      1  0.3317670000000  0.3552020000000  0.6616890000000 1.0
C      1  0.5559100000000  0.3552020000000  0.7265390000000 1.0
C      1  0.7241440000000  0.3552010000000  0.5648500000000 1.0
C      1  0.6682330000000  0.3552020000000  0.3383110000000 1.0
C      1  0.4440900000000  0.6447980000000  0.7265390000000 1.0
C      1  0.2758560000000  0.6447990000000  0.5648500000000 1.0
C      1  0.3317670000000  0.6447980000000  0.3383110000000 1.0
C      1  0.5559100000000  0.6447980000000  0.2734610000000 1.0
C      1  0.7241440000000  0.6447990000000  0.4351500000000 1.0
C      1  0.6682330000000  0.6447980000000  0.6616890000000 1.0
C      1  0.4865630000000  0.3253890000000  0.6787530000000 1.0
C      1  0.6480860000000  0.3253890000000  0.6010130000000 1.0
C      1  0.6615230000000  0.3253890000000  0.4222610000000 1.0
C      1  0.5134370000000  0.3253890000000  0.3212470000000 1.0
C      1  0.3519140000000  0.3253890000000  0.3989870000000 1.0
C      1  0.3384770000000  0.3253890000000  0.5777390000000 1.0
C      1  0.4865630000000  0.6746110000000  0.3212470000000 1.0
C      1  0.6480860000000  0.6746110000000  0.3989870000000 1.0
C      1  0.6615230000000  0.6746110000000  0.5777390000000 1.0
C      1  0.5134370000000  0.6746110000000  0.6787530000000 1.0
C      1  0.3519140000000  0.6746110000000  0.6010130000000 1.0
C      1  0.3384770000000  0.6746110000000  0.4222610000000 1.0
C      1  0.4951550000000  0.7209870000000  0.4066270000000 1.0
C      1  0.4167140000000  0.7209870000000  0.4575100000000 1.0
C      1  0.4215590000000  0.7209870000000  0.5508830000000 1.0
C      1  0.5048450000000  0.7209870000000  0.5933730000000 1.0
C      1  0.5832860000000  0.7209870000000  0.5424900000000 1.0
C      1  0.5784410000000  0.7209870000000  0.4491170000000 1.0
C      1  0.4951550000000  0.2790130000000  0.5933730000000 1.0
C      1  0.4167140000000  0.2790130000000  0.5424900000000 1.0
C      1  0.4215590000000  0.2790130000000  0.4491170000000 1.0
C      1  0.5048450000000  0.2790130000000  0.4066270000000 1.0
C      1  0.5832860000000  0.2790130000000  0.4575100000000 1.0
C      1  0.5784410000000  0.2790130000000  0.5508830000000 1.0
C      1  0.3998670000000  0.3894400000000  0.3443830000000 1.0
C      1  0.3151650000000  0.3894400000000  0.5089090000000 1.0
C      1  0.4152990000000  0.3894400000000  0.6645260000000 1.0
C      1  0.6001330000000  0.3894400000000  0.6556170000000 1.0
C      1  0.6848350000000  0.3894400000000  0.4910910000000 1.0
C      1  0.5847010000000  0.3894400000000  0.3354740000000 1.0
C      1  0.3998670000000  0.6105600000000  0.6556170000000 1.0
C      1  0.3151650000000  0.6105600000000  0.4910910000000 1.0
C      1  0.4152990000000  0.6105600000000  0.3354740000000 1.0
C      1  0.6001330000000  0.6105600000000  0.3443830000000 1.0
C      1  0.6848350000000  0.6105600000000  0.5089090000000 1.0
C      1  0.5847010000000  0.6105600000000  0.6645260000000 1.0
END
