TITL C-2159255-4746-1307 -0.00215877003207718 3375 -416.44043837599 0 0 60 (C1) n - 1
REM
REM in /scratch/bkarasulu/871
REM
REM
REM
REM
REM
REM ./C.cell (a2850807a9bf4ad07a5b6933b78d9264)
REM AIRSS Version 0.9.1 bugfix July 2018 build 013d7b7c2542+ Fri, 06 Jul 2018 19:26:36 +0100
REM compiler GCC version 9.2.1 20190827 (Red Hat 9.2.1-1)
REM options -cpp -mtune=generic -march=x86-64 -g -O0 -fpre-include=/usr/include/finclude/math-vector-fortran.h
REM seed 1012547297 -1539934714 -896066830 -1448876300 1435758949 1406163356 -397472059 1787846376 291085239 -1657568546 586619441 256250986 262621832 1006410259 1968031914 -932238573 -2052982689 1294618700 -860228910 -2052139851 -559735980 -1312969706 71527121 -1655504945 541561302 283238690 -995778388 -1436631570 -517087647 202045222 2084856943 -1748513543 1034717360
REM
CELL 1.54180   15.00000   15.00000   15.00000   90.00000   90.00000   90.00000
LATT -1
SFAC C  
C      1  0.4668800000000  0.5889370000000  0.2622990000000 1.0
C      1  0.4778110000000  0.6646060000000  0.7141400000000 1.0
C      1  0.4770080000000  0.2410270000000  0.5449440000000 1.0
C      1  0.5374630000000  0.5787370000000  0.5156250000000 1.0
C      1  0.5431260000000  0.4301230000000  0.5191370000000 1.0
C      1  0.5500560000000  0.5037280000000  0.4666690000000 1.0
C      1  0.3554080000000  0.3640880000000  0.6287680000000 1.0
C      1  0.3660620000000  0.4468480000000  0.3344420000000 1.0
C      1  0.3648260000000  0.7038460000000  0.5466500000000 1.0
C      1  0.5654650000000  0.2624230000000  0.5139930000000 1.0
C      1  0.5589350000000  0.6057200000000  0.2891820000000 1.0
C      1  0.5643630000000  0.6312160000000  0.6977390000000 1.0
C      1  0.6641840000000  0.3653450000000  0.4413840000000 1.0
C      1  0.6598070000000  0.6162360000000  0.4123060000000 1.0
C      1  0.6539080000000  0.5178060000000  0.6353220000000 1.0
C      1  0.6775680000000  0.6008720000000  0.5910010000000 1.0
C      1  0.6813980000000  0.3678480000000  0.5374870000000 1.0
C      1  0.6781100000000  0.5323420000000  0.3666360000000 1.0
C      1  0.6719920000000  0.6445740000000  0.5020510000000 1.0
C      1  0.6656400000000  0.4275190000000  0.6148240000000 1.0
C      1  0.6709100000000  0.4329310000000  0.3755200000000 1.0
C      1  0.3478440000000  0.5357520000000  0.3660520000000 1.0
C      1  0.3630500000000  0.6814730000000  0.6408290000000 1.0
C      1  0.3343530000000  0.3242160000000  0.5418860000000 1.0
C      1  0.5001500000000  0.5099080000000  0.3945040000000 1.0
C      1  0.4762790000000  0.5919400000000  0.5676100000000 1.0
C      1  0.4671220000000  0.4055180000000  0.5349560000000 1.0
C      1  0.4973880000000  0.4781680000000  0.7014880000000 1.0
C      1  0.5095660000000  0.3188350000000  0.3701170000000 1.0
C      1  0.5096760000000  0.7040350000000  0.4131600000000 1.0
C      1  0.5785340000000  0.6561150000000  0.3666540000000 1.0
C      1  0.5750160000000  0.5368110000000  0.6925030000000 1.0
C      1  0.5843560000000  0.3017460000000  0.4296380000000 1.0
C      1  0.4419580000000  0.4364140000000  0.2724880000000 1.0
C      1  0.4534170000000  0.7518640000000  0.5588360000000 1.0
C      1  0.4383030000000  0.3274690000000  0.6712640000000 1.0
C      1  0.4014090000000  0.6081600000000  0.3292990000000 1.0
C      1  0.3957000000000  0.6110430000000  0.7003850000000 1.0
C      1  0.4008060000000  0.2690300000000  0.4944900000000 1.0
C      1  0.4498150000000  0.7321290000000  0.6521200000000 1.0
C      1  0.4651300000000  0.2494030000000  0.6347590000000 1.0
C      1  0.4569940000000  0.5087970000000  0.2225970000000 1.0
C      1  0.4200830000000  0.3087450000000  0.4093340000000 1.0
C      1  0.4194460000000  0.6688210000000  0.3973760000000 1.0
C      1  0.4053040000000  0.5148310000000  0.6811810000000 1.0
C      1  0.5208110000000  0.3861030000000  0.3047030000000 1.0
C      1  0.5285210000000  0.7398730000000  0.5013980000000 1.0
C      1  0.5146290000000  0.3859840000000  0.6912420000000 1.0
C      1  0.3121270000000  0.3948250000000  0.4816540000000 1.0
C      1  0.3277300000000  0.5550760000000  0.4589020000000 1.0
C      1  0.3167070000000  0.4808040000000  0.5237650000000 1.0
C      1  0.6212600000000  0.6708050000000  0.6303090000000 1.0
C      1  0.6218460000000  0.3017520000000  0.5790740000000 1.0
C      1  0.6167400000000  0.5293430000000  0.2900040000000 1.0
C      1  0.3549910000000  0.3793150000000  0.3972190000000 1.0
C      1  0.3577590000000  0.6479720000000  0.4700660000000 1.0
C      1  0.3476600000000  0.4622320000000  0.6204030000000 1.0
C      1  0.6113840000000  0.7136100000000  0.5430300000000 1.0
C      1  0.6007720000000  0.3605240000000  0.6537980000000 1.0
C      1  0.6044440000000  0.4337860000000  0.3007900000000 1.0
END
