TITL C-2159255-4746-1171 -0.00199891624598381 3375 -377.22528492815 0 0 60 (Td) n - 1
REM
REM in /scratch/bkarasulu/871
REM
REM
REM
REM
REM
REM ./C.cell (a2850807a9bf4ad07a5b6933b78d9264)
REM AIRSS Version 0.9.1 bugfix July 2018 build 013d7b7c2542+ Fri, 06 Jul 2018 19:26:36 +0100
REM compiler GCC version 9.2.1 20190827 (Red Hat 9.2.1-1)
REM options -cpp -mtune=generic -march=x86-64 -g -O0 -fpre-include=/usr/include/finclude/math-vector-fortran.h
REM seed -847689622 -736492 791822966 -1073163100 -1025385988 110178535 -1124569684 405948095 994792870 -1812336711 1481850942 713375964 -944564472 1428662020 -1619531058 368724076 960244873 -481649295 -1307393036 -1286291949 -2001625263 -1039483686 -1060089993 -1351637552 1782139547 1514390892 811476073 1739640237 -766191608 -1894105282 594111612 -877745363 -2799888
REM
CELL 1.54180   15.00000   15.00000   15.00000   90.00000   90.00000   90.00000
LATT -1
SFAC C  
C      1  0.7200630000000  0.6591510000000  0.4878440000000 1.0
C      1  0.4878440000000  0.7200630000000  0.6591510000000 1.0
C      1  0.6591510000000  0.4878440000000  0.7200630000000 1.0
C      1  0.2799370000000  0.6591510000000  0.5121560000000 1.0
C      1  0.7200630000000  0.3408490000000  0.5121560000000 1.0
C      1  0.2799370000000  0.3408490000000  0.4878440000000 1.0
C      1  0.5121560000000  0.7200630000000  0.3408490000000 1.0
C      1  0.4878440000000  0.2799370000000  0.3408490000000 1.0
C      1  0.5121560000000  0.2799370000000  0.6591510000000 1.0
C      1  0.3408490000000  0.4878440000000  0.2799370000000 1.0
C      1  0.6591510000000  0.5121560000000  0.2799370000000 1.0
C      1  0.3408490000000  0.5121560000000  0.7200630000000 1.0
C      1  0.4878440000000  0.6591510000000  0.7200630000000 1.0
C      1  0.6591510000000  0.7200630000000  0.4878440000000 1.0
C      1  0.7200630000000  0.4878440000000  0.6591510000000 1.0
C      1  0.5121560000000  0.6591510000000  0.2799370000000 1.0
C      1  0.5121560000000  0.3408490000000  0.7200630000000 1.0
C      1  0.4878440000000  0.3408490000000  0.2799370000000 1.0
C      1  0.3408490000000  0.7200630000000  0.5121560000000 1.0
C      1  0.3408490000000  0.2799370000000  0.4878440000000 1.0
C      1  0.6591510000000  0.2799370000000  0.5121560000000 1.0
C      1  0.2799370000000  0.4878440000000  0.3408490000000 1.0
C      1  0.2799370000000  0.5121560000000  0.6591510000000 1.0
C      1  0.7200630000000  0.5121560000000  0.3408490000000 1.0
C      1  0.4996520000000  0.6830260000000  0.5698300000000 1.0
C      1  0.5698300000000  0.4996520000000  0.6830260000000 1.0
C      1  0.6830260000000  0.5698300000000  0.4996520000000 1.0
C      1  0.5003480000000  0.6830260000000  0.4301700000000 1.0
C      1  0.4996520000000  0.3169740000000  0.4301700000000 1.0
C      1  0.5003480000000  0.3169740000000  0.5698300000000 1.0
C      1  0.4301700000000  0.4996520000000  0.3169740000000 1.0
C      1  0.5698300000000  0.5003480000000  0.3169740000000 1.0
C      1  0.4301700000000  0.5003480000000  0.6830260000000 1.0
C      1  0.3169740000000  0.5698300000000  0.5003480000000 1.0
C      1  0.6830260000000  0.4301700000000  0.5003480000000 1.0
C      1  0.3169740000000  0.4301700000000  0.4996520000000 1.0
C      1  0.5698300000000  0.6830260000000  0.4996520000000 1.0
C      1  0.6830260000000  0.4996520000000  0.5698300000000 1.0
C      1  0.4996520000000  0.5698300000000  0.6830260000000 1.0
C      1  0.4301700000000  0.6830260000000  0.5003480000000 1.0
C      1  0.4301700000000  0.3169740000000  0.4996520000000 1.0
C      1  0.5698300000000  0.3169740000000  0.5003480000000 1.0
C      1  0.3169740000000  0.4996520000000  0.4301700000000 1.0
C      1  0.3169740000000  0.5003480000000  0.5698300000000 1.0
C      1  0.6830260000000  0.5003480000000  0.4301700000000 1.0
C      1  0.5003480000000  0.5698300000000  0.3169740000000 1.0
C      1  0.5003480000000  0.4301700000000  0.6830260000000 1.0
C      1  0.4996520000000  0.4301700000000  0.3169740000000 1.0
C      1  0.4234530000000  0.4992770000000  0.5765470000000 1.0
C      1  0.5765470000000  0.4992770000000  0.4234530000000 1.0
C      1  0.4992770000000  0.4234530000000  0.5765470000000 1.0
C      1  0.4992770000000  0.5765470000000  0.4234530000000 1.0
C      1  0.5765470000000  0.4234530000000  0.4992770000000 1.0
C      1  0.4234530000000  0.5765470000000  0.4992770000000 1.0
C      1  0.4234530000000  0.5007230000000  0.4234530000000 1.0
C      1  0.4234530000000  0.4234530000000  0.5007230000000 1.0
C      1  0.5007230000000  0.4234530000000  0.4234530000000 1.0
C      1  0.5765470000000  0.5765470000000  0.5007230000000 1.0
C      1  0.5765470000000  0.5007230000000  0.5765470000000 1.0
C      1  0.5007230000000  0.5765470000000  0.5765470000000 1.0
END
