TITL C-2158984-8299-23 -0.000998486124113022 3375 -394.15576237874 0 0 60 (C4) n - 1
REM
REM in /scratch/bkarasulu/869
REM
REM
REM
REM
REM
REM ./C.cell (a2850807a9bf4ad07a5b6933b78d9264)
REM AIRSS Version 0.9.1 bugfix July 2018 build 013d7b7c2542+ Fri, 06 Jul 2018 19:26:36 +0100
REM compiler GCC version 9.2.1 20190827 (Red Hat 9.2.1-1)
REM options -cpp -mtune=generic -march=x86-64 -g -O0 -fpre-include=/usr/include/finclude/math-vector-fortran.h
REM seed 411592888 -1023075018 1801752915 895871683 -1887736952 1297870078 -757153578 1156407528 1209715603 -1632850757 -1783634932 -1548174321 1091839454 1211505459 -1964373944 2137847652 -136668897 -1124680938 -1756174598 1049383219 1042205320 -1777793497 -704070513 1057570812 1836437364 -813201272 616276617 -1144831722 -2051378503 1269216906 90959069 415989800 -1583491001
REM
CELL 1.54180   15.00000   15.00000   15.00000   90.00000   90.00000   90.00000
LATT -1
SFAC C  
C      1  0.7305490000000  0.6656470000000  0.4997920000000 1.0
C      1  0.6656470000000  0.2694510000000  0.4997920000000 1.0
C      1  0.2694510000000  0.3343530000000  0.4997920000000 1.0
C      1  0.3343530000000  0.7305490000000  0.4997920000000 1.0
C      1  0.5326000000000  0.4374100000000  0.4002690000000 1.0
C      1  0.4374100000000  0.4674000000000  0.4002690000000 1.0
C      1  0.4674000000000  0.5625900000000  0.4002690000000 1.0
C      1  0.5625900000000  0.5326000000000  0.4002690000000 1.0
C      1  0.5880890000000  0.5898110000000  0.6382560000000 1.0
C      1  0.5898110000000  0.4119110000000  0.6382560000000 1.0
C      1  0.4119110000000  0.4101890000000  0.6382560000000 1.0
C      1  0.4101890000000  0.5880890000000  0.6382560000000 1.0
C      1  0.5471480000000  0.5492230000000  0.7134950000000 1.0
C      1  0.5492230000000  0.4528520000000  0.7134950000000 1.0
C      1  0.4528520000000  0.4507770000000  0.7134950000000 1.0
C      1  0.4507770000000  0.5471480000000  0.7134950000000 1.0
C      1  0.5505040000000  0.6266290000000  0.3041270000000 1.0
C      1  0.6266290000000  0.4494960000000  0.3041270000000 1.0
C      1  0.4494960000000  0.3733710000000  0.3041270000000 1.0
C      1  0.3733710000000  0.5505040000000  0.3041270000000 1.0
C      1  0.5414270000000  0.4414240000000  0.5500040000000 1.0
C      1  0.4414240000000  0.4585730000000  0.5500040000000 1.0
C      1  0.4585730000000  0.5585760000000  0.5500040000000 1.0
C      1  0.5585760000000  0.5414270000000  0.5500040000000 1.0
C      1  0.3928840000000  0.7293140000000  0.5657240000000 1.0
C      1  0.7293140000000  0.6071160000000  0.5657240000000 1.0
C      1  0.6071160000000  0.2706860000000  0.5657240000000 1.0
C      1  0.2706860000000  0.3928840000000  0.5657240000000 1.0
C      1  0.6756560000000  0.4570960000000  0.6079690000000 1.0
C      1  0.4570960000000  0.3243440000000  0.6079690000000 1.0
C      1  0.3243440000000  0.5429040000000  0.6079690000000 1.0
C      1  0.5429040000000  0.6756560000000  0.6079690000000 1.0
C      1  0.5440850000000  0.4007190000000  0.3088600000000 1.0
C      1  0.4007190000000  0.4559150000000  0.3088600000000 1.0
C      1  0.4559150000000  0.5992810000000  0.3088600000000 1.0
C      1  0.5992810000000  0.5440850000000  0.3088600000000 1.0
C      1  0.5624190000000  0.3796850000000  0.4701920000000 1.0
C      1  0.3796850000000  0.4375810000000  0.4701920000000 1.0
C      1  0.4375810000000  0.6203150000000  0.4701920000000 1.0
C      1  0.6203150000000  0.5624190000000  0.4701920000000 1.0
C      1  0.6984360000000  0.4930850000000  0.4524130000000 1.0
C      1  0.4930850000000  0.3015640000000  0.4524130000000 1.0
C      1  0.3015640000000  0.5069150000000  0.4524130000000 1.0
C      1  0.5069150000000  0.6984360000000  0.4524130000000 1.0
C      1  0.3399780000000  0.6385570000000  0.4619370000000 1.0
C      1  0.6385570000000  0.6600220000000  0.4619370000000 1.0
C      1  0.6600220000000  0.3614430000000  0.4619370000000 1.0
C      1  0.3614430000000  0.3399780000000  0.4619370000000 1.0
C      1  0.3211540000000  0.4471380000000  0.6206020000000 1.0
C      1  0.4471380000000  0.6788460000000  0.6206020000000 1.0
C      1  0.6788460000000  0.5528620000000  0.6206020000000 1.0
C      1  0.5528620000000  0.3211540000000  0.6206020000000 1.0
C      1  0.4286230000000  0.3159250000000  0.3826570000000 1.0
C      1  0.3159250000000  0.5713770000000  0.3826570000000 1.0
C      1  0.5713770000000  0.6840750000000  0.3826570000000 1.0
C      1  0.6840750000000  0.4286230000000  0.3826570000000 1.0
C      1  0.2971840000000  0.5697280000000  0.5237030000000 1.0
C      1  0.5697280000000  0.7028160000000  0.5237030000000 1.0
C      1  0.7028160000000  0.4302720000000  0.5237030000000 1.0
C      1  0.4302720000000  0.2971840000000  0.5237030000000 1.0
END
