TITL C-2159252-5904-179 -0.00451714237361583 3375 -419.744098087207 0 0 60 (C2h) n - 1
REM
REM in /scratch/bkarasulu/870
REM
REM
REM
REM
REM
REM ./C.cell (a2850807a9bf4ad07a5b6933b78d9264)
REM AIRSS Version 0.9.1 bugfix July 2018 build 013d7b7c2542+ Fri, 06 Jul 2018 19:26:36 +0100
REM compiler GCC version 9.2.1 20190827 (Red Hat 9.2.1-1)
REM options -cpp -mtune=generic -march=x86-64 -g -O0 -fpre-include=/usr/include/finclude/math-vector-fortran.h
REM seed -466228204 1604830887 -1868614638 -1542135194 489749252 -222362470 -887168287 1766057949 1408517387 376165480 1510704032 -932540677 511279304 656517684 -666552682 394197586 149565446 872157772 -1176303977 -791780959 -462045610 -1983087811 -35424537 1062073049 1677030936 1843203393 2028301873 1354472100 -1679273725 -1281500736 52557159 -1885946260 -454131107
REM
CELL 1.54180   15.00000   15.00000   15.00000   90.00000   90.00000   90.00000
LATT -1
SFAC C  
C      1  0.6059530000000  0.4217000000000  0.6740240000000 1.0
C      1  0.6916880000000  0.5894420000000  0.5812140000000 1.0
C      1  0.6986900000000  0.4206490000000  0.4566830000000 1.0
C      1  0.6306780000000  0.5772100000000  0.3436630000000 1.0
C      1  0.5182980000000  0.4117330000000  0.2934070000000 1.0
C      1  0.3940470000000  0.5783000000000  0.3259760000000 1.0
C      1  0.3083120000000  0.4105580000000  0.4187860000000 1.0
C      1  0.3013100000000  0.5793510000000  0.5433170000000 1.0
C      1  0.3693220000000  0.4227900000000  0.6563370000000 1.0
C      1  0.4817020000000  0.5882670000000  0.7065930000000 1.0
C      1  0.5404090000000  0.3153110000000  0.4226430000000 1.0
C      1  0.4871310000000  0.6880560000000  0.4138460000000 1.0
C      1  0.4389760000000  0.3155720000000  0.4380830000000 1.0
C      1  0.4140420000000  0.6880560000000  0.4858790000000 1.0
C      1  0.4220630000000  0.3153110000000  0.5392810000000 1.0
C      1  0.4595910000000  0.6846890000000  0.5773570000000 1.0
C      1  0.5128690000000  0.3119440000000  0.5861540000000 1.0
C      1  0.5610240000000  0.6844280000000  0.5619170000000 1.0
C      1  0.5859580000000  0.3119440000000  0.5141210000000 1.0
C      1  0.5779370000000  0.6846890000000  0.4607190000000 1.0
C      1  0.5462020000000  0.5793500000000  0.3019610000000 1.0
C      1  0.4215810000000  0.4105570000000  0.3071520000000 1.0
C      1  0.3275350000000  0.5783000000000  0.3915280000000 1.0
C      1  0.2931630000000  0.4117340000000  0.5152930000000 1.0
C      1  0.3417800000000  0.5772110000000  0.6283900000000 1.0
C      1  0.4537980000000  0.4206500000000  0.6980390000000 1.0
C      1  0.5784190000000  0.5894430000000  0.6928480000000 1.0
C      1  0.6724650000000  0.4217000000000  0.6084720000000 1.0
C      1  0.7068370000000  0.5882660000000  0.4847070000000 1.0
C      1  0.6582200000000  0.4227890000000  0.3716100000000 1.0
C      1  0.5858100000000  0.4996670000000  0.7243430000000 1.0
C      1  0.7230720000000  0.4996660000000  0.5890620000000 1.0
C      1  0.7398100000000  0.4986160000000  0.4909370000000 1.0
C      1  0.6790000000000  0.4999990000000  0.3235840000000 1.0
C      1  0.5125480000000  0.5013830000000  0.2603470000000 1.0
C      1  0.4141900000000  0.5003330000000  0.2756570000000 1.0
C      1  0.2769280000000  0.5003340000000  0.4109380000000 1.0
C      1  0.2601900000000  0.5013840000000  0.5090630000000 1.0
C      1  0.3210000000000  0.5000010000000  0.6764160000000 1.0
C      1  0.4874520000000  0.4986170000000  0.7396530000000 1.0
C      1  0.4210380000000  0.7897440000000  0.4891170000000 1.0
C      1  0.4229970000000  0.2128500000000  0.5348930000000 1.0
C      1  0.4639940000000  0.7871510000000  0.5764870000000 1.0
C      1  0.5097340000000  0.2102560000000  0.5791130000000 1.0
C      1  0.5601680000000  0.7862460000000  0.5610470000000 1.0
C      1  0.5789620000000  0.2102560000000  0.5108830000000 1.0
C      1  0.5770030000000  0.7871500000000  0.4651070000000 1.0
C      1  0.5360060000000  0.2128490000000  0.4235130000000 1.0
C      1  0.4902660000000  0.7897440000000  0.4208870000000 1.0
C      1  0.4398320000000  0.2137540000000  0.4389530000000 1.0
C      1  0.3547290000000  0.3750130000000  0.5749390000000 1.0
C      1  0.4229570000000  0.6249880000000  0.6441660000000 1.0
C      1  0.5256450000000  0.3718060000000  0.6597070000000 1.0
C      1  0.6158000000000  0.6283130000000  0.6174960000000 1.0
C      1  0.6593160000000  0.3718050000000  0.5279640000000 1.0
C      1  0.6452710000000  0.6249870000000  0.4250610000000 1.0
C      1  0.5770430000000  0.3750120000000  0.3558340000000 1.0
C      1  0.4743550000000  0.6281940000000  0.3402930000000 1.0
C      1  0.3842000000000  0.3716870000000  0.3825040000000 1.0
C      1  0.3406840000000  0.6281950000000  0.4720360000000 1.0
END
