TITL C-2159255-4746-1188 -0.00159426176988265 3375 -411.989406489871 0 0 60 (C3) n - 1
REM
REM in /scratch/bkarasulu/871
REM
REM
REM
REM
REM
REM ./C.cell (a2850807a9bf4ad07a5b6933b78d9264)
REM AIRSS Version 0.9.1 bugfix July 2018 build 013d7b7c2542+ Fri, 06 Jul 2018 19:26:36 +0100
REM compiler GCC version 9.2.1 20190827 (Red Hat 9.2.1-1)
REM options -cpp -mtune=generic -march=x86-64 -g -O0 -fpre-include=/usr/include/finclude/math-vector-fortran.h
REM seed 866407890 386035626 -1625612645 1601660041 -305282479 305375291 -1033324864 1860206902 -1604285891 -463741595 -2035291878 1197574073 -278069297 -1079630462 -262301257 407552761 -2091705083 -1177150827 649122234 1120578105 549854334 -1740040083 -1400642856 537484075 1764928711 1154201770 2048325611 1278851588 -1465483269 -1421937211 118322716 1234748288 1259492028
REM
CELL 1.54180   15.00000   15.00000   15.00000   90.00000   90.00000   90.00000
LATT -1
SFAC C  
C      1  0.7423730000000  0.5054760000000  0.4301680000000 1.0
C      1  0.4392910000000  0.5054730000000  0.7448180000000 1.0
C      1  0.3183390000000  0.5054880000000  0.3250160000000 1.0
C      1  0.3935270000000  0.4570640000000  0.2957260000000 1.0
C      1  0.7301410000000  0.4570500000000  0.5099270000000 1.0
C      1  0.3763310000000  0.4570520000000  0.6943430000000 1.0
C      1  0.4036780000000  0.3755990000000  0.3563840000000 1.0
C      1  0.6725300000000  0.3755890000000  0.4883880000000 1.0
C      1  0.4237850000000  0.3755900000000  0.6552180000000 1.0
C      1  0.4344100000000  0.5989660000000  0.7230960000000 1.0
C      1  0.3395940000000  0.5989790000000  0.3316520000000 1.0
C      1  0.7260030000000  0.5989680000000  0.4452620000000 1.0
C      1  0.5515640000000  0.5003060000000  0.2692510000000 1.0
C      1  0.6740510000000  0.5002920000000  0.6600290000000 1.0
C      1  0.2743840000000  0.5003020000000  0.5707190000000 1.0
C      1  0.4909820000000  0.2677480000000  0.4463730000000 1.0
C      1  0.5509380000000  0.2677450000000  0.5189980000000 1.0
C      1  0.4580650000000  0.2677460000000  0.5346090000000 1.0
C      1  0.4517880000000  0.5252050000000  0.5770810000000 1.0
C      1  0.4573530000000  0.5252080000000  0.4197070000000 1.0
C      1  0.5908600000000  0.5252030000000  0.5032140000000 1.0
C      1  0.5474050000000  0.5152510000000  0.4234150000000 1.0
C      1  0.5426220000000  0.5152470000000  0.5793470000000 1.0
C      1  0.4099720000000  0.5152520000000  0.4972380000000 1.0
C      1  0.7158120000000  0.6569860000000  0.3774170000000 1.0
C      1  0.4982650000000  0.6569790000000  0.7481960000000 1.0
C      1  0.2859320000000  0.6569940000000  0.3744040000000 1.0
C      1  0.3969230000000  0.3278840000000  0.5761300000000 1.0
C      1  0.4855980000000  0.3278880000000  0.3726640000000 1.0
C      1  0.6174680000000  0.3278800000000  0.5511910000000 1.0
C      1  0.5664060000000  0.4109610000000  0.2620110000000 1.0
C      1  0.6728950000000  0.4109460000000  0.6765010000000 1.0
C      1  0.2606900000000  0.4109580000000  0.5614790000000 1.0
C      1  0.3259280000000  0.3617970000000  0.5179940000000 1.0
C      1  0.5714450000000  0.3617970000000  0.3402500000000 1.0
C      1  0.6026170000000  0.3617870000000  0.6417450000000 1.0
C      1  0.6830180000000  0.4714210000000  0.3664490000000 1.0
C      1  0.5241490000000  0.4714130000000  0.7252750000000 1.0
C      1  0.2928300000000  0.4714270000000  0.4082760000000 1.0
C      1  0.5167870000000  0.3864140000000  0.6816980000000 1.0
C      1  0.3342450000000  0.3864250000000  0.4236860000000 1.0
C      1  0.6489610000000  0.3864200000000  0.3946070000000 1.0
C      1  0.5818620000000  0.5365660000000  0.6713510000000 1.0
C      1  0.3106750000000  0.5365770000000  0.4852200000000 1.0
C      1  0.6074630000000  0.5365750000000  0.3434310000000 1.0
C      1  0.5631850000000  0.6755790000000  0.4288770000000 1.0
C      1  0.5300120000000  0.6755750000000  0.5902860000000 1.0
C      1  0.4068140000000  0.6755800000000  0.4808520000000 1.0
C      1  0.3263700000000  0.5248220000000  0.6460290000000 1.0
C      1  0.4603520000000  0.5248320000000  0.2766160000000 1.0
C      1  0.7132800000000  0.5248170000000  0.5773550000000 1.0
C      1  0.3927580000000  0.6000420000000  0.6368930000000 1.0
C      1  0.4350740000000  0.6000510000000  0.3386790000000 1.0
C      1  0.6721760000000  0.6000400000000  0.5244350000000 1.0
C      1  0.4352020000000  0.6700500000000  0.5695610000000 1.0
C      1  0.4721670000000  0.6700540000000  0.4091060000000 1.0
C      1  0.5926430000000  0.6700480000000  0.5213470000000 1.0
C      1  0.3208340000000  0.6318760000000  0.4543810000000 1.0
C      1  0.6290970000000  0.6318730000000  0.3676510000000 1.0
C      1  0.5500760000000  0.6318660000000  0.6779790000000 1.0
END
