TITL C-2158988-7926-307 -0.00163630310260307 3375 -402.198287642609 0 0 60 (Td) n - 1
REM
REM in /scratch/bkarasulu/868
REM
REM
REM
REM
REM
REM ./C.cell (a2850807a9bf4ad07a5b6933b78d9264)
REM AIRSS Version 0.9.1 bugfix July 2018 build 013d7b7c2542+ Fri, 06 Jul 2018 19:26:36 +0100
REM compiler GCC version 9.2.1 20190827 (Red Hat 9.2.1-1)
REM options -cpp -mtune=generic -march=x86-64 -g -O0 -fpre-include=/usr/include/finclude/math-vector-fortran.h
REM seed 1376920352 -1203171360 365713384 1254307993 28542185 -1546440592 720474837 552801741 1827875181 240560055 -1424888703 1453489698 -1326122467 -627015951 1887510194 256000360 1958992483 -444679627 1271649 1260525176 953153461 -2124501772 1287011646 -1772781473 1049835741 -813900443 -1609704089 1315195080 -261662991 59691657 -1071418784 -1456246849 -345369020
REM
CELL 1.54180   15.00000   15.00000   15.00000   90.00000   90.00000   90.00000
LATT -1
SFAC C  
C      1  0.6593510000000  0.5910030000000  0.4755710000000 1.0
C      1  0.5910030000000  0.4755710000000  0.6593510000000 1.0
C      1  0.4755710000000  0.6593510000000  0.5910030000000 1.0
C      1  0.3406490000000  0.4089970000000  0.4755710000000 1.0
C      1  0.6593510000000  0.4089970000000  0.5244290000000 1.0
C      1  0.3406490000000  0.5910030000000  0.5244290000000 1.0
C      1  0.4089970000000  0.5244290000000  0.6593510000000 1.0
C      1  0.5910030000000  0.5244290000000  0.3406490000000 1.0
C      1  0.4089970000000  0.4755710000000  0.3406490000000 1.0
C      1  0.5244290000000  0.3406490000000  0.5910030000000 1.0
C      1  0.4755710000000  0.3406490000000  0.4089970000000 1.0
C      1  0.5244290000000  0.6593510000000  0.4089970000000 1.0
C      1  0.5910030000000  0.6593510000000  0.4755710000000 1.0
C      1  0.4755710000000  0.5910030000000  0.6593510000000 1.0
C      1  0.6593510000000  0.4755710000000  0.5910030000000 1.0
C      1  0.4089970000000  0.3406490000000  0.4755710000000 1.0
C      1  0.4089970000000  0.6593510000000  0.5244290000000 1.0
C      1  0.5910030000000  0.3406490000000  0.5244290000000 1.0
C      1  0.5244290000000  0.4089970000000  0.6593510000000 1.0
C      1  0.5244290000000  0.5910030000000  0.3406490000000 1.0
C      1  0.4755710000000  0.4089970000000  0.3406490000000 1.0
C      1  0.3406490000000  0.5244290000000  0.5910030000000 1.0
C      1  0.3406490000000  0.4755710000000  0.4089970000000 1.0
C      1  0.6593510000000  0.5244290000000  0.4089970000000 1.0
C      1  0.3434150000000  0.2770940000000  0.5947700000000 1.0
C      1  0.2770940000000  0.5947700000000  0.3434150000000 1.0
C      1  0.5947700000000  0.3434150000000  0.2770940000000 1.0
C      1  0.6565850000000  0.7229060000000  0.5947700000000 1.0
C      1  0.3434150000000  0.7229060000000  0.4052300000000 1.0
C      1  0.6565850000000  0.2770940000000  0.4052300000000 1.0
C      1  0.7229060000000  0.4052300000000  0.3434150000000 1.0
C      1  0.2770940000000  0.4052300000000  0.6565850000000 1.0
C      1  0.7229060000000  0.5947700000000  0.6565850000000 1.0
C      1  0.4052300000000  0.6565850000000  0.2770940000000 1.0
C      1  0.5947700000000  0.6565850000000  0.7229060000000 1.0
C      1  0.4052300000000  0.3434150000000  0.7229060000000 1.0
C      1  0.2770940000000  0.3434150000000  0.5947700000000 1.0
C      1  0.5947700000000  0.2770940000000  0.3434150000000 1.0
C      1  0.3434150000000  0.5947700000000  0.2770940000000 1.0
C      1  0.7229060000000  0.6565850000000  0.5947700000000 1.0
C      1  0.7229060000000  0.3434150000000  0.4052300000000 1.0
C      1  0.2770940000000  0.6565850000000  0.4052300000000 1.0
C      1  0.4052300000000  0.7229060000000  0.3434150000000 1.0
C      1  0.4052300000000  0.2770940000000  0.6565850000000 1.0
C      1  0.5947700000000  0.7229060000000  0.6565850000000 1.0
C      1  0.6565850000000  0.4052300000000  0.2770940000000 1.0
C      1  0.6565850000000  0.5947700000000  0.7229060000000 1.0
C      1  0.3434150000000  0.4052300000000  0.7229060000000 1.0
C      1  0.4370700000000  0.4370700000000  0.6985580000000 1.0
C      1  0.5629300000000  0.3014420000000  0.4370700000000 1.0
C      1  0.3014420000000  0.4370700000000  0.5629300000000 1.0
C      1  0.4370700000000  0.5629300000000  0.3014420000000 1.0
C      1  0.4370700000000  0.6985580000000  0.4370700000000 1.0
C      1  0.5629300000000  0.6985580000000  0.5629300000000 1.0
C      1  0.4370700000000  0.3014420000000  0.5629300000000 1.0
C      1  0.6985580000000  0.5629300000000  0.5629300000000 1.0
C      1  0.3014420000000  0.5629300000000  0.4370700000000 1.0
C      1  0.6985580000000  0.4370700000000  0.4370700000000 1.0
C      1  0.5629300000000  0.4370700000000  0.3014420000000 1.0
C      1  0.5629300000000  0.5629300000000  0.6985580000000 1.0
END
