TITL C-2159255-4746-1422 -0.00143717457700512 3375 -407.200911691816 0 0 60 (C1) n - 1
REM
REM in /scratch/bkarasulu/871
REM
REM
REM
REM
REM
REM ./C.cell (a2850807a9bf4ad07a5b6933b78d9264)
REM AIRSS Version 0.9.1 bugfix July 2018 build 013d7b7c2542+ Fri, 06 Jul 2018 19:26:36 +0100
REM compiler GCC version 9.2.1 20190827 (Red Hat 9.2.1-1)
REM options -cpp -mtune=generic -march=x86-64 -g -O0 -fpre-include=/usr/include/finclude/math-vector-fortran.h
REM seed 1418390603 -1576723685 481842878 -1206681843 1026116060 -223459229 -2038296372 1556242941 -1463407770 2068635665 -1918791999 432847443 892652591 -2087678616 -2098467513 1302831336 432342893 -2036036683 486159155 -759661624 508986193 331684202 175294952 301637720 2021534058 1914119508 1814100609 -442921111 380362677 1106164365 1869759729 -1688914944 1807340409
REM
CELL 1.54180   15.00000   15.00000   15.00000   90.00000   90.00000   90.00000
LATT -1
SFAC C  
C      1  0.6995480000000  0.5474570000000  0.6052370000000 1.0
C      1  0.5062780000000  0.5957530000000  0.5017530000000 1.0
C      1  0.5074500000000  0.3381810000000  0.4202720000000 1.0
C      1  0.4851000000000  0.6421350000000  0.6678390000000 1.0
C      1  0.2744740000000  0.4217250000000  0.6396430000000 1.0
C      1  0.5260420000000  0.4224140000000  0.6975840000000 1.0
C      1  0.4848550000000  0.5505610000000  0.4198900000000 1.0
C      1  0.6072380000000  0.3284340000000  0.4360130000000 1.0
C      1  0.3560570000000  0.6383810000000  0.5295030000000 1.0
C      1  0.6060400000000  0.6414290000000  0.3610060000000 1.0
C      1  0.4136450000000  0.2891930000000  0.5510440000000 1.0
C      1  0.5732760000000  0.5434750000000  0.3831410000000 1.0
C      1  0.4442480000000  0.6847360000000  0.5241930000000 1.0
C      1  0.3088070000000  0.5178870000000  0.4280110000000 1.0
C      1  0.4376020000000  0.4190450000000  0.6518210000000 1.0
C      1  0.6325300000000  0.3978940000000  0.5908300000000 1.0
C      1  0.6724290000000  0.6536950000000  0.4383030000000 1.0
C      1  0.6462910000000  0.3698220000000  0.3602730000000 1.0
C      1  0.6181520000000  0.5980890000000  0.2732650000000 1.0
C      1  0.2604110000000  0.3435050000000  0.5763900000000 1.0
C      1  0.4577160000000  0.7142220000000  0.4298930000000 1.0
C      1  0.4230920000000  0.4402800000000  0.3128730000000 1.0
C      1  0.3398950000000  0.3552350000000  0.4319620000000 1.0
C      1  0.5024060000000  0.7061800000000  0.6006220000000 1.0
C      1  0.6734710000000  0.3543220000000  0.5161060000000 1.0
C      1  0.5918040000000  0.5112830000000  0.2890890000000 1.0
C      1  0.6406390000000  0.6259500000000  0.6226970000000 1.0
C      1  0.4324500000000  0.5937810000000  0.3372760000000 1.0
C      1  0.6137980000000  0.7156370000000  0.4820490000000 1.0
C      1  0.3359030000000  0.6103950000000  0.4414030000000 1.0
C      1  0.4994780000000  0.3840070000000  0.3276600000000 1.0
C      1  0.4243860000000  0.5257450000000  0.2784370000000 1.0
C      1  0.2692170000000  0.3798100000000  0.4908690000000 1.0
C      1  0.5649370000000  0.5830480000000  0.6654580000000 1.0
C      1  0.6653220000000  0.4706510000000  0.6506940000000 1.0
C      1  0.5856160000000  0.4950540000000  0.7004840000000 1.0
C      1  0.6328700000000  0.5032080000000  0.4461600000000 1.0
C      1  0.3390140000000  0.5783400000000  0.6022320000000 1.0
C      1  0.2626700000000  0.4765990000000  0.4990030000000 1.0
C      1  0.4418530000000  0.5068140000000  0.6177070000000 1.0
C      1  0.4429310000000  0.4717830000000  0.4481630000000 1.0
C      1  0.6950930000000  0.4320530000000  0.4116170000000 1.0
C      1  0.7467080000000  0.5159180000000  0.5308690000000 1.0
C      1  0.4118380000000  0.5842880000000  0.6617880000000 1.0
C      1  0.3662710000000  0.4403970000000  0.3925260000000 1.0
C      1  0.5491170000000  0.7136940000000  0.4074840000000 1.0
C      1  0.5038350000000  0.4091380000000  0.4911860000000 1.0
C      1  0.2754220000000  0.5039890000000  0.5900340000000 1.0
C      1  0.5847510000000  0.4131920000000  0.2984150000000 1.0
C      1  0.4135630000000  0.2989430000000  0.4556970000000 1.0
C      1  0.5783840000000  0.4663850000000  0.5249220000000 1.0
C      1  0.5261980000000  0.5348480000000  0.5712320000000 1.0
C      1  0.5962040000000  0.6997720000000  0.5729660000000 1.0
C      1  0.3363040000000  0.2977320000000  0.6080240000000 1.0
C      1  0.4796410000000  0.3560440000000  0.5777130000000 1.0
C      1  0.6978650000000  0.5714010000000  0.4730350000000 1.0
C      1  0.5578270000000  0.3573810000000  0.6363360000000 1.0
C      1  0.7383530000000  0.4199820000000  0.4936280000000 1.0
C      1  0.3513950000000  0.3762410000000  0.6742280000000 1.0
C      1  0.3912880000000  0.6624480000000  0.3814480000000 1.0
END
