TITL C-2158988-7926-47 -0.00220867590970657 3375 -411.914166072567 0 0 60 (Cs) n - 1
REM
REM in /scratch/bkarasulu/868
REM
REM
REM
REM
REM
REM ./C.cell (a2850807a9bf4ad07a5b6933b78d9264)
REM AIRSS Version 0.9.1 bugfix July 2018 build 013d7b7c2542+ Fri, 06 Jul 2018 19:26:36 +0100
REM compiler GCC version 9.2.1 20190827 (Red Hat 9.2.1-1)
REM options -cpp -mtune=generic -march=x86-64 -g -O0 -fpre-include=/usr/include/finclude/math-vector-fortran.h
REM seed 1821102433 1584410047 832972935 292293153 1679120655 -146815022 -1963191234 663228926 241564575 -911954936 278170649 379473270 630918110 1075387655 -1729417183 874720077 -1922883420 994611334 -1596929401 -182391553 1773530297 -768110912 -507862599 -1240904227 560649904 -1760983978 -675472404 -833361357 -2081995157 1740838192 -412467200 878966675 1367464254
REM
CELL 1.54180   15.00000   15.00000   15.00000   90.00000   90.00000   90.00000
LATT -1
SFAC C  
C      1  0.3106750000000  0.6645380000000  0.4551560000000 1.0
C      1  0.4329890000000  0.6599500000000  0.3512710000000 1.0
C      1  0.5864980000000  0.6257590000000  0.3471980000000 1.0
C      1  0.6901850000000  0.6096260000000  0.4558340000000 1.0
C      1  0.6520280000000  0.6095480000000  0.6209780000000 1.0
C      1  0.5111920000000  0.6256050000000  0.6731330000000 1.0
C      1  0.3750200000000  0.6598320000000  0.6021630000000 1.0
C      1  0.3093000000000  0.4264740000000  0.5338190000000 1.0
C      1  0.3439980000000  0.4265450000000  0.3836490000000 1.0
C      1  0.4843760000000  0.4385620000000  0.3253450000000 1.0
C      1  0.6212470000000  0.4707490000000  0.3980890000000 1.0
C      1  0.6866180000000  0.4664080000000  0.5419220000000 1.0
C      1  0.5647760000000  0.4706340000000  0.6425050000000 1.0
C      1  0.4098720000000  0.4384100000000  0.6478040000000 1.0
C      1  0.5880940000000  0.2857270000000  0.6761190000000 1.0
C      1  0.4225600000000  0.2712750000000  0.6880570000000 1.0
C      1  0.3605780000000  0.2466800000000  0.5380690000000 1.0
C      1  0.3919790000000  0.2467440000000  0.4021620000000 1.0
C      1  0.5134690000000  0.2714600000000  0.2945890000000 1.0
C      1  0.6569860000000  0.2858670000000  0.3779460000000 1.0
C      1  0.6908540000000  0.2860280000000  0.5428160000000 1.0
C      1  0.5266240000000  0.7041210000000  0.6222570000000 1.0
C      1  0.4419730000000  0.7240340000000  0.5745020000000 1.0
C      1  0.3389510000000  0.7494630000000  0.4617290000000 1.0
C      1  0.4810080000000  0.7241140000000  0.4055560000000 1.0
C      1  0.5780320000000  0.7042260000000  0.3997580000000 1.0
C      1  0.6512590000000  0.6994300000000  0.4658800000000 1.0
C      1  0.6214360000000  0.6993690000000  0.5949560000000 1.0
C      1  0.2996520000000  0.3759790000000  0.4524720000000 1.0
C      1  0.4079880000000  0.3850620000000  0.3245820000000 1.0
C      1  0.5740000000000  0.4127560000000  0.3302860000000 1.0
C      1  0.6822870000000  0.4229310000000  0.4588660000000 1.0
C      1  0.6463000000000  0.4228580000000  0.6146210000000 1.0
C      1  0.4925850000000  0.4125900000000  0.6826580000000 1.0
C      1  0.3409040000000  0.3849250000000  0.6149330000000 1.0
C      1  0.5890870000000  0.3181390000000  0.3236930000000 1.0
C      1  0.6820840000000  0.3250400000000  0.4582870000000 1.0
C      1  0.6458820000000  0.3249660000000  0.6149650000000 1.0
C      1  0.5032710000000  0.3179640000000  0.6951170000000 1.0
C      1  0.3616550000000  0.2906730000000  0.6211730000000 1.0
C      1  0.3223790000000  0.2824880000000  0.4576790000000 1.0
C      1  0.4293930000000  0.2908110000000  0.3279930000000 1.0
C      1  0.4981640000000  0.5959230000000  0.3303470000000 1.0
C      1  0.6530400000000  0.5658050000000  0.3799230000000 1.0
C      1  0.6704640000000  0.5593070000000  0.5382340000000 1.0
C      1  0.5853570000000  0.5656670000000  0.6728620000000 1.0
C      1  0.4244240000000  0.5957710000000  0.6494990000000 1.0
C      1  0.3170590000000  0.6147400000000  0.5367990000000 1.0
C      1  0.3522390000000  0.6148120000000  0.3845440000000 1.0
C      1  0.3699640000000  0.5191850000000  0.4126080000000 1.0
C      1  0.4702830000000  0.5161260000000  0.3827050000000 1.0
C      1  0.5356010000000  0.4990830000000  0.4552690000000 1.0
C      1  0.5629130000000  0.5695950000000  0.5133890000000 1.0
C      1  0.5128870000000  0.4990370000000  0.5535750000000 1.0
C      1  0.4223540000000  0.5160280000000  0.5901460000000 1.0
C      1  0.3453190000000  0.5191350000000  0.5192690000000 1.0
C      1  0.6709730000000  0.7522620000000  0.5384430000000 1.0
C      1  0.4450990000000  0.2290520000000  0.4860080000000 1.0
C      1  0.4284170000000  0.7539840000000  0.4824020000000 1.0
C      1  0.4906190000000  0.3095830000000  0.4965640000000 1.0
END
