TITL C-2158984-8299-514 -0.00158159400581475 3375 -402.874080537903 0 0 60 (C1) n - 1
REM
REM in /scratch/bkarasulu/869
REM
REM
REM
REM
REM
REM ./C.cell (a2850807a9bf4ad07a5b6933b78d9264)
REM AIRSS Version 0.9.1 bugfix July 2018 build 013d7b7c2542+ Fri, 06 Jul 2018 19:26:36 +0100
REM compiler GCC version 9.2.1 20190827 (Red Hat 9.2.1-1)
REM options -cpp -mtune=generic -march=x86-64 -g -O0 -fpre-include=/usr/include/finclude/math-vector-fortran.h
REM seed -477341820 169181257 1061776169 -2086662356 -824071802 -1217244633 -700460396 -1495003269 -1700079892 -368860464 1217354048 -1566148336 1308148186 1207839893 -1663971164 -337394804 -1500341599 1459129633 1123167012 879022884 -1475882021 -667611915 -1390727957 2081519565 2135448040 893038178 220538297 -1372813307 635972924 979830566 217351917 1133497627 118417037
REM
CELL 1.54180   15.00000   15.00000   15.00000   90.00000   90.00000   90.00000
LATT -1
SFAC C  
C      1  0.5523300000000  0.7304350000000  0.4955480000000 1.0
C      1  0.3660850000000  0.6365400000000  0.4909600000000 1.0
C      1  0.6616520000000  0.5790260000000  0.3870020000000 1.0
C      1  0.4610010000000  0.5973590000000  0.3037900000000 1.0
C      1  0.5407660000000  0.5796160000000  0.4736140000000 1.0
C      1  0.4973730000000  0.2779740000000  0.4612300000000 1.0
C      1  0.6347840000000  0.3292290000000  0.5046860000000 1.0
C      1  0.3941090000000  0.2829130000000  0.5801630000000 1.0
C      1  0.5662110000000  0.5909900000000  0.3785170000000 1.0
C      1  0.4429090000000  0.5684350000000  0.4988310000000 1.0
C      1  0.3231330000000  0.6127820000000  0.4036420000000 1.0
C      1  0.4954900000000  0.2752350000000  0.5602410000000 1.0
C      1  0.5646630000000  0.3349540000000  0.5822060000000 1.0
C      1  0.6050030000000  0.4499570000000  0.3241170000000 1.0
C      1  0.5778560000000  0.3568880000000  0.3297050000000 1.0
C      1  0.4859010000000  0.7249800000000  0.4213080000000 1.0
C      1  0.5015560000000  0.4077160000000  0.5469950000000 1.0
C      1  0.4245050000000  0.3743090000000  0.3474960000000 1.0
C      1  0.6070710000000  0.6526200000000  0.5165750000000 1.0
C      1  0.6779270000000  0.4861010000000  0.3751840000000 1.0
C      1  0.3518080000000  0.4225920000000  0.3059800000000 1.0
C      1  0.6009770000000  0.6412900000000  0.6126770000000 1.0
C      1  0.5792580000000  0.4975360000000  0.5061260000000 1.0
C      1  0.5359250000000  0.4237250000000  0.4548430000000 1.0
C      1  0.6871830000000  0.6126450000000  0.4717940000000 1.0
C      1  0.7234150000000  0.4625280000000  0.4587530000000 1.0
C      1  0.5075640000000  0.6656780000000  0.3526350000000 1.0
C      1  0.4108890000000  0.4052510000000  0.5140130000000 1.0
C      1  0.3614970000000  0.2665990000000  0.4922840000000 1.0
C      1  0.4976960000000  0.3369530000000  0.2958110000000 1.0
C      1  0.5746400000000  0.3325770000000  0.4281950000000 1.0
C      1  0.5287430000000  0.4882040000000  0.5946780000000 1.0
C      1  0.4639440000000  0.5605010000000  0.5938770000000 1.0
C      1  0.3583000000000  0.3697890000000  0.5945020000000 1.0
C      1  0.4645400000000  0.6472090000000  0.7174420000000 1.0
C      1  0.3706070000000  0.5870360000000  0.3214040000000 1.0
C      1  0.7286950000000  0.5425200000000  0.5157570000000 1.0
C      1  0.3814620000000  0.5378240000000  0.6430840000000 1.0
C      1  0.4658530000000  0.4553410000000  0.3923130000000 1.0
C      1  0.7011200000000  0.3922360000000  0.5187880000000 1.0
C      1  0.4020160000000  0.4868290000000  0.4623270000000 1.0
C      1  0.6008820000000  0.5351430000000  0.7272270000000 1.0
C      1  0.4141560000000  0.3243400000000  0.4390000000000 1.0
C      1  0.7068980000000  0.5206030000000  0.6059140000000 1.0
C      1  0.4828840000000  0.7223510000000  0.5608470000000 1.0
C      1  0.4172720000000  0.7187550000000  0.4916380000000 1.0
C      1  0.2799210000000  0.5125160000000  0.5524570000000 1.0
C      1  0.6503960000000  0.5776160000000  0.6576470000000 1.0
C      1  0.3197660000000  0.5039770000000  0.3103430000000 1.0
C      1  0.3227710000000  0.5937130000000  0.5740370000000 1.0
C      1  0.6137810000000  0.3847060000000  0.6532020000000 1.0
C      1  0.4304170000000  0.5625810000000  0.7300660000000 1.0
C      1  0.5211110000000  0.5154490000000  0.3312030000000 1.0
C      1  0.5607370000000  0.4579570000000  0.6865160000000 1.0
C      1  0.6900090000000  0.4263520000000  0.6079860000000 1.0
C      1  0.2646980000000  0.5386860000000  0.3910630000000 1.0
C      1  0.3331720000000  0.4556630000000  0.6158390000000 1.0
C      1  0.5021650000000  0.6510890000000  0.6269730000000 1.0
C      1  0.5134910000000  0.5203480000000  0.7466070000000 1.0
C      1  0.2990190000000  0.4952320000000  0.4623440000000 1.0
END
