TITL C-2159255-4746-896 -0.00258064642437599 3375 -431.663235220614 0 0 60 (C3) n - 1
REM
REM in /scratch/bkarasulu/871
REM
REM
REM
REM
REM
REM ./C.cell (a2850807a9bf4ad07a5b6933b78d9264)
REM AIRSS Version 0.9.1 bugfix July 2018 build 013d7b7c2542+ Fri, 06 Jul 2018 19:26:36 +0100
REM compiler GCC version 9.2.1 20190827 (Red Hat 9.2.1-1)
REM options -cpp -mtune=generic -march=x86-64 -g -O0 -fpre-include=/usr/include/finclude/math-vector-fortran.h
REM seed 927201215 -892772685 -1525629702 -985938127 -1624994750 234874480 1031175659 -1603621963 1112005291 1689516245 100364887 108882891 -298786396 1746547541 1166069620 140169671 -393196003 1126143213 -730977054 -1983067640 -1374828976 -1589736005 165012430 -410341848 -362206769 1014915889 609268511 896696565 -1118762603 -1551101536 -198393258 1973576976 -822354893
REM
CELL 1.54180   15.00000   15.00000   15.00000   90.00000   90.00000   90.00000
LATT -1
SFAC C  
C      1  0.3597450000000  0.6587260000000  0.2874880000000 1.0
C      1  0.3861100000000  0.6587400000000  0.7277220000000 1.0
C      1  0.7541840000000  0.6587040000000  0.4847770000000 1.0
C      1  0.5550570000000  0.4767780000000  0.7186640000000 1.0
C      1  0.6618350000000  0.4767600000000  0.3429900000000 1.0
C      1  0.2831010000000  0.4767880000000  0.4383510000000 1.0
C      1  0.5472470000000  0.3591990000000  0.3017610000000 1.0
C      1  0.3046790000000  0.3592230000000  0.5581990000000 1.0
C      1  0.6480450000000  0.3592020000000  0.6400500000000 1.0
C      1  0.5846960000000  0.2953630000000  0.6545590000000 1.0
C      1  0.5914750000000  0.2953540000000  0.3493700000000 1.0
C      1  0.3237850000000  0.2953770000000  0.4960900000000 1.0
C      1  0.3819190000000  0.6472100000000  0.6350340000000 1.0
C      1  0.6760040000000  0.6471870000000  0.5347460000000 1.0
C      1  0.4421090000000  0.6471970000000  0.3302060000000 1.0
C      1  0.6610520000000  0.5983850000000  0.6169240000000 1.0
C      1  0.5207470000000  0.5983860000000  0.3020630000000 1.0
C      1  0.3182200000000  0.5984080000000  0.5810030000000 1.0
C      1  0.4358490000000  0.3467480000000  0.6802760000000 1.0
C      1  0.6881800000000  0.3467230000000  0.4654170000000 1.0
C      1  0.3759420000000  0.3467420000000  0.3543220000000 1.0
C      1  0.2750530000000  0.4479570000000  0.5278880000000 1.0
C      1  0.6366170000000  0.4479370000000  0.6808620000000 1.0
C      1  0.5883160000000  0.4479290000000  0.2912530000000 1.0
C      1  0.5359100000000  0.6853370000000  0.5878250000000 1.0
C      1  0.5581270000000  0.6853310000000  0.4249910000000 1.0
C      1  0.4059990000000  0.6853420000000  0.4871660000000 1.0
C      1  0.7015600000000  0.3713630000000  0.5596390000000 1.0
C      1  0.4508530000000  0.3713730000000  0.2956210000000 1.0
C      1  0.3475620000000  0.3713910000000  0.6447480000000 1.0
C      1  0.5321710000000  0.5697530000000  0.7090680000000 1.0
C      1  0.6649810000000  0.5697330000000  0.3676090000000 1.0
C      1  0.3028600000000  0.5697600000000  0.4233190000000 1.0
C      1  0.4639700000000  0.6891220000000  0.4140240000000 1.0
C      1  0.4435820000000  0.6891270000000  0.5741920000000 1.0
C      1  0.5924870000000  0.6891160000000  0.5117660000000 1.0
C      1  0.5007010000000  0.2837690000000  0.6530330000000 1.0
C      1  0.6321500000000  0.2837530000000  0.4228750000000 1.0
C      1  0.3671060000000  0.2837700000000  0.4241130000000 1.0
C      1  0.4375240000000  0.5811590000000  0.7225700000000 1.0
C      1  0.7240010000000  0.5811300000000  0.4428240000000 1.0
C      1  0.3384930000000  0.5811530000000  0.3346000000000 1.0
C      1  0.4712870000000  0.4288050000000  0.7229420000000 1.0
C      1  0.7074190000000  0.4287790000000  0.4133950000000 1.0
C      1  0.3212800000000  0.4288040000000  0.3636730000000 1.0
C      1  0.5324210000000  0.4664330000000  0.5387910000000 1.0
C      1  0.5173760000000  0.4664280000000  0.4525250000000 1.0
C      1  0.4501910000000  0.4664310000000  0.5086870000000 1.0
C      1  0.5195280000000  0.5107950000000  0.2693160000000 1.0
C      1  0.2904590000000  0.5108210000000  0.5984290000000 1.0
C      1  0.6900140000000  0.5107940000000  0.6322500000000 1.0
C      1  0.3311940000000  0.4626060000000  0.6698120000000 1.0
C      1  0.7314620000000  0.4625750000000  0.5612830000000 1.0
C      1  0.4373380000000  0.4625870000000  0.2689050000000 1.0
C      1  0.7406410000000  0.4926350000000  0.4736200000000 1.0
C      1  0.3568350000000  0.4926570000000  0.3047920000000 1.0
C      1  0.4025260000000  0.4926670000000  0.7215900000000 1.0
C      1  0.5786420000000  0.6278920000000  0.6529030000000 1.0
C      1  0.5931140000000  0.6278820000000  0.3554450000000 1.0
C      1  0.3282690000000  0.6279050000000  0.4916400000000 1.0
END
