TITL C-2159252-5904-430 -0.00155185360060642 3375 -392.633530763763 0 0 60 (C6h) n - 1
REM
REM in /scratch/bkarasulu/870
REM
REM
REM
REM
REM
REM ./C.cell (a2850807a9bf4ad07a5b6933b78d9264)
REM AIRSS Version 0.9.1 bugfix July 2018 build 013d7b7c2542+ Fri, 06 Jul 2018 19:26:36 +0100
REM compiler GCC version 9.2.1 20190827 (Red Hat 9.2.1-1)
REM options -cpp -mtune=generic -march=x86-64 -g -O0 -fpre-include=/usr/include/finclude/math-vector-fortran.h
REM seed -2108032201 1450530770 -1699711178 235793124 -652225136 -534513931 62842672 -2116417963 1969610665 -766840724 -1894029353 1960767019 1219535429 -477026046 1083967477 -916551324 -734079551 -643480260 -422723928 -3854503 -1746494263 -1242070709 1111309747 -1512452400 -1228652507 814581980 1947026607 -1312260806 1919549826 922488097 -592211169 -1298981687 1798937876
REM
CELL 1.54180   15.00000   15.00000   15.00000   90.00000   90.00000   90.00000
LATT -1
SFAC C  
C      1  0.5776760000000  0.7219000000000  0.3773110000000 1.0
C      1  0.5776760000000  0.7172040000000  0.6308250000000 1.0
C      1  0.5776760000000  0.4953040000000  0.7535180000000 1.0
C      1  0.5776760000000  0.2781000000000  0.6226890000000 1.0
C      1  0.5776760000000  0.2827960000000  0.3691750000000 1.0
C      1  0.5776760000000  0.5046960000000  0.2464820000000 1.0
C      1  0.4030320000000  0.7219000000000  0.3773100000000 1.0
C      1  0.4030320000000  0.7172040000000  0.6308240000000 1.0
C      1  0.4030320000000  0.4953040000000  0.7535180000000 1.0
C      1  0.4030320000000  0.2781000000000  0.6226900000000 1.0
C      1  0.4030320000000  0.2827960000000  0.3691760000000 1.0
C      1  0.4030320000000  0.5046960000000  0.2464820000000 1.0
C      1  0.6468460000000  0.4926140000000  0.6908930000000 1.0
C      1  0.6468460000000  0.3309890000000  0.5890500000000 1.0
C      1  0.6468460000000  0.3383750000000  0.3981570000000 1.0
C      1  0.6468450000000  0.5073860000000  0.3091070000000 1.0
C      1  0.6468460000000  0.6690110000000  0.4109500000000 1.0
C      1  0.6468460000000  0.6616250000000  0.6018430000000 1.0
C      1  0.3338630000000  0.4926150000000  0.6908930000000 1.0
C      1  0.3338620000000  0.3309900000000  0.5890500000000 1.0
C      1  0.3338620000000  0.3383750000000  0.3981580000000 1.0
C      1  0.3338630000000  0.5073850000000  0.3091070000000 1.0
C      1  0.3338620000000  0.6690110000000  0.4109500000000 1.0
C      1  0.3338630000000  0.6616250000000  0.6018420000000 1.0
C      1  0.5653430000000  0.4593220000000  0.4131270000000 1.0
C      1  0.5653430000000  0.5548960000000  0.4213350000000 1.0
C      1  0.5653430000000  0.5955740000000  0.5082090000000 1.0
C      1  0.5653430000000  0.5406780000000  0.5868730000000 1.0
C      1  0.5653430000000  0.4451040000000  0.5786650000000 1.0
C      1  0.5653430000000  0.4044260000000  0.4917910000000 1.0
C      1  0.4153650000000  0.4593220000000  0.4131270000000 1.0
C      1  0.4153650000000  0.5548950000000  0.4213350000000 1.0
C      1  0.4153660000000  0.5955740000000  0.5082090000000 1.0
C      1  0.4153660000000  0.5406780000000  0.5868730000000 1.0
C      1  0.4153660000000  0.4451050000000  0.5786650000000 1.0
C      1  0.4153660000000  0.4044260000000  0.4917920000000 1.0
C      1  0.3341320000000  0.6514780000000  0.5059900000000 1.0
C      1  0.3341330000000  0.5705520000000  0.6341790000000 1.0
C      1  0.3341330000000  0.4190740000000  0.6281890000000 1.0
C      1  0.3341320000000  0.3485220000000  0.4940110000000 1.0
C      1  0.3341320000000  0.4294480000000  0.3658210000000 1.0
C      1  0.3341320000000  0.5809260000000  0.3718110000000 1.0
C      1  0.6465770000000  0.6514780000000  0.5059900000000 1.0
C      1  0.6465760000000  0.5705520000000  0.6341790000000 1.0
C      1  0.6465760000000  0.4190740000000  0.6281890000000 1.0
C      1  0.6465760000000  0.3485220000000  0.4940100000000 1.0
C      1  0.6465760000000  0.4294480000000  0.3658210000000 1.0
C      1  0.6465760000000  0.5809260000000  0.3718110000000 1.0
C      1  0.4903540000000  0.6520550000000  0.5238290000000 1.0
C      1  0.4903540000000  0.4033360000000  0.6197680000000 1.0
C      1  0.4903540000000  0.4446110000000  0.3564030000000 1.0
C      1  0.4903540000000  0.5966640000000  0.3802320000000 1.0
C      1  0.4903540000000  0.5553890000000  0.6435970000000 1.0
C      1  0.4903540000000  0.3479450000000  0.4761710000000 1.0
C      1  0.4903540000000  0.7090570000000  0.6043920000000 1.0
C      1  0.4903540000000  0.3050650000000  0.6288500000000 1.0
C      1  0.4903540000000  0.5141210000000  0.7332440000000 1.0
C      1  0.4903540000000  0.4858790000000  0.2667560000000 1.0
C      1  0.4903540000000  0.2909430000000  0.3956080000000 1.0
C      1  0.4903540000000  0.6949350000000  0.3711500000000 1.0
END
