TITL C-3701779-4465-96 -0.00507105097936729 3375 -438.179593935223 0 0 60 (D2h) n - 1
REM
REM in /scratch/bkarasulu/791
REM
REM
REM
REM
REM
REM ./C.cell (830fe4e9c99271719e6d0bb221258042)
REM AIRSS Version 0.9.1 bugfix July 2018 build 013d7b7c2542+ Fri, 06 Jul 2018 19:26:36 +0100
REM compiler GCC version 9.2.1 20190827 (Red Hat 9.2.1-1)
REM options -cpp -mtune=generic -march=x86-64 -g -O0 -fpre-include=/usr/include/finclude/math-vector-fortran.h
REM seed -1194673565 2071095294 -125908448 376612984 -255343065 -1307569209 1726953988 588280542 -911159023 -370469965 1707410250 -1149108193 -1554067763 -1024704468 -1790368845 -940853073 -1398157279 -1931228640 73458873 -1329389362 -212454035 -732870936 236205360 1810357920 -1590887375 -1877527143 1977174036 -1295373163 1161112734 -1457490456 -1689591150 1829319936 -29446264
REM
CELL 1.54180   15.00000   15.00000   15.00000   90.00000   90.00000   90.00000
LATT -1
SFAC C  
C      1  0.3949970000000  0.3246900000000  0.4066000000000 1.0
C      1  0.3949970000000  0.6753100000000  0.5934000000000 1.0
C      1  0.6050030000000  0.3246900000000  0.4066000000000 1.0
C      1  0.6050030000000  0.6753100000000  0.5934000000000 1.0
C      1  0.3949970000000  0.6753100000000  0.4066000000000 1.0
C      1  0.3949970000000  0.3246900000000  0.5934000000000 1.0
C      1  0.6050030000000  0.6753100000000  0.4066000000000 1.0
C      1  0.6050030000000  0.3246900000000  0.5934000000000 1.0
C      1  0.6893580000000  0.3363960000000  0.4522010000000 1.0
C      1  0.6893580000000  0.6636040000000  0.5477990000000 1.0
C      1  0.3106420000000  0.3363960000000  0.4522010000000 1.0
C      1  0.3106420000000  0.6636040000000  0.5477990000000 1.0
C      1  0.6893580000000  0.6636040000000  0.4522010000000 1.0
C      1  0.6893580000000  0.3363960000000  0.5477990000000 1.0
C      1  0.3106420000000  0.6636040000000  0.4522010000000 1.0
C      1  0.3106420000000  0.3363960000000  0.5477990000000 1.0
C      1  0.2656320000000  0.5931670000000  0.5941410000000 1.0
C      1  0.2656320000000  0.4068330000000  0.4058590000000 1.0
C      1  0.7343680000000  0.5931670000000  0.5941410000000 1.0
C      1  0.7343680000000  0.4068330000000  0.4058590000000 1.0
C      1  0.2656320000000  0.4068330000000  0.5941410000000 1.0
C      1  0.2656320000000  0.5931670000000  0.4058590000000 1.0
C      1  0.7343680000000  0.4068330000000  0.5941410000000 1.0
C      1  0.7343680000000  0.5931670000000  0.4058590000000 1.0
C      1  0.5474550000000  0.2678800000000  0.5499230000000 1.0
C      1  0.5474550000000  0.7321200000000  0.4500770000000 1.0
C      1  0.4525450000000  0.2678800000000  0.5499230000000 1.0
C      1  0.4525450000000  0.7321200000000  0.4500770000000 1.0
C      1  0.5474550000000  0.7321200000000  0.5499230000000 1.0
C      1  0.5474550000000  0.2678800000000  0.4500770000000 1.0
C      1  0.4525450000000  0.7321200000000  0.5499230000000 1.0
C      1  0.4525450000000  0.2678800000000  0.4500770000000 1.0
C      1  0.5855630000000  0.5941210000000  0.3546590000000 1.0
C      1  0.5855630000000  0.4058790000000  0.6453410000000 1.0
C      1  0.4144370000000  0.5941210000000  0.3546590000000 1.0
C      1  0.4144370000000  0.4058790000000  0.6453410000000 1.0
C      1  0.5855630000000  0.4058790000000  0.3546590000000 1.0
C      1  0.5855630000000  0.5941210000000  0.6453410000000 1.0
C      1  0.4144370000000  0.4058790000000  0.3546590000000 1.0
C      1  0.4144370000000  0.5941210000000  0.6453410000000 1.0
C      1  0.8005440000000  0.5484110000000  0.5493440000000 1.0
C      1  0.8005440000000  0.4515890000000  0.4506560000000 1.0
C      1  0.1994560000000  0.5484110000000  0.5493440000000 1.0
C      1  0.1994560000000  0.4515890000000  0.4506560000000 1.0
C      1  0.8005440000000  0.4515890000000  0.5493440000000 1.0
C      1  0.8005440000000  0.5484110000000  0.4506560000000 1.0
C      1  0.1994560000000  0.4515890000000  0.5493440000000 1.0
C      1  0.1994560000000  0.5484110000000  0.4506560000000 1.0
C      1  0.6681920000000  0.5465710000000  0.6492810000000 1.0
C      1  0.6681920000000  0.4534290000000  0.3507190000000 1.0
C      1  0.3318080000000  0.5465710000000  0.6492810000000 1.0
C      1  0.3318080000000  0.4534290000000  0.3507190000000 1.0
C      1  0.6681920000000  0.4534290000000  0.6492810000000 1.0
C      1  0.6681920000000  0.5465710000000  0.3507190000000 1.0
C      1  0.3318080000000  0.4534290000000  0.6492810000000 1.0
C      1  0.3318080000000  0.5465710000000  0.3507190000000 1.0
C      1  0.5000000000000  0.4508210000000  0.6559830000000 1.0
C      1  0.5000000000000  0.5491790000000  0.3440170000000 1.0
C      1  0.5000000000000  0.4508210000000  0.3440170000000 1.0
C      1  0.5000000000000  0.5491790000000  0.6559830000000 1.0
END
