TITL C-3701779-4465-124 -0.00152915304608085 3375 -396.147201029384 0 0 60 (C5) n - 1
REM
REM in /scratch/bkarasulu/791
REM
REM
REM
REM
REM
REM ./C.cell (830fe4e9c99271719e6d0bb221258042)
REM AIRSS Version 0.9.1 bugfix July 2018 build 013d7b7c2542+ Fri, 06 Jul 2018 19:26:36 +0100
REM compiler GCC version 9.2.1 20190827 (Red Hat 9.2.1-1)
REM options -cpp -mtune=generic -march=x86-64 -g -O0 -fpre-include=/usr/include/finclude/math-vector-fortran.h
REM seed -311065869 -1854863905 -500490176 -1568441331 2033872892 -830633287 -1211545668 -620749897 -1169543540 -1611262174 -1584514597 -107391144 225852327 -919138049 -1056185210 -16961577 -1142511291 962202815 -1142966833 55985227 -1764605129 1692046626 472265140 54101033 -1550802224 -356951054 -1570393337 8468536 678513649 -1855827759 1744210973 -1614616949 -586669517
REM
CELL 1.54180   15.00000   15.00000   15.00000   90.00000   90.00000   90.00000
LATT -1
SFAC C  
C      1  0.3579360000000  0.7261690000000  0.5214740000000 1.0
C      1  0.4765230000000  0.7261700000000  0.6417460000000 1.0
C      1  0.6275540000000  0.7261700000000  0.5661300000000 1.0
C      1  0.6023090000000  0.7261690000000  0.3991240000000 1.0
C      1  0.4356760000000  0.7261690000000  0.3715250000000 1.0
C      1  0.5437260000000  0.4686980000000  0.6392400000000 1.0
C      1  0.6459370000000  0.4686980000000  0.5014410000000 1.0
C      1  0.5464670000000  0.4686980000000  0.3616510000000 1.0
C      1  0.3827820000000  0.4686980000000  0.4130550000000 1.0
C      1  0.3810880000000  0.4686980000000  0.5846130000000 1.0
C      1  0.5199490000000  0.3844320000000  0.5828640000000 1.0
C      1  0.5849730000000  0.3844330000000  0.5066340000000 1.0
C      1  0.5325680000000  0.3844330000000  0.4212360000000 1.0
C      1  0.4351550000000  0.3844320000000  0.4446870000000 1.0
C      1  0.4273560000000  0.3844320000000  0.5445780000000 1.0
C      1  0.3757870000000  0.6042360000000  0.6202070000000 1.0
C      1  0.5759390000000  0.6042360000000  0.6552800000000 1.0
C      1  0.6711470000000  0.6042360000000  0.4757610000000 1.0
C      1  0.5298350000000  0.6042360000000  0.3297400000000 1.0
C      1  0.3472920000000  0.6042360000000  0.4190120000000 1.0
C      1  0.6685850000000  0.3294000000000  0.5063950000000 1.0
C      1  0.5581780000000  0.3294000000000  0.3416430000000 1.0
C      1  0.3673720000000  0.3294000000000  0.3957340000000 1.0
C      1  0.3598540000000  0.3293990000000  0.5939170000000 1.0
C      1  0.5460140000000  0.3293990000000  0.6623100000000 1.0
C      1  0.4726000000000  0.3203870000000  0.7127920000000 1.0
C      1  0.6939110000000  0.3203880000000  0.5918160000000 1.0
C      1  0.6472430000000  0.3203870000000  0.3439540000000 1.0
C      1  0.3970920000000  0.3203880000000  0.3117420000000 1.0
C      1  0.2891560000000  0.3203870000000  0.5396970000000 1.0
C      1  0.5820070000000  0.5515880000000  0.4922260000000 1.0
C      1  0.5179470000000  0.5515880000000  0.4196040000000 1.0
C      1  0.4290850000000  0.5515880000000  0.4580870000000 1.0
C      1  0.4382240000000  0.5515880000000  0.5544930000000 1.0
C      1  0.5327350000000  0.5515880000000  0.5755910000000 1.0
C      1  0.3848610000000  0.4580960000000  0.6798100000000 1.0
C      1  0.6354290000000  0.4580970000000  0.6650700000000 1.0
C      1  0.6988400000000  0.4580970000000  0.4222080000000 1.0
C      1  0.4874610000000  0.4580970000000  0.2868520000000 1.0
C      1  0.2934090000000  0.4580960000000  0.4460600000000 1.0
C      1  0.3980260000000  0.6979830000000  0.6011970000000 1.0
C      1  0.5647320000000  0.6979840000000  0.6282540000000 1.0
C      1  0.6419800000000  0.6979830000000  0.4780690000000 1.0
C      1  0.5230160000000  0.6979830000000  0.3581920000000 1.0
C      1  0.3722440000000  0.6979830000000  0.4342890000000 1.0
C      1  0.6138860000000  0.5470630000000  0.3309920000000 1.0
C      1  0.3744560000000  0.5470620000000  0.3394610000000 1.0
C      1  0.3085220000000  0.5470630000000  0.5697900000000 1.0
C      1  0.5072050000000  0.5470640000000  0.7036720000000 1.0
C      1  0.6959290000000  0.5470630000000  0.5560860000000 1.0
C      1  0.2846640000000  0.5481120000000  0.4790100000000 1.0
C      1  0.4134950000000  0.5481130000000  0.6983100000000 1.0
C      1  0.6618720000000  0.5481130000000  0.6435520000000 1.0
C      1  0.6865470000000  0.5481130000000  0.3904110000000 1.0
C      1  0.4534210000000  0.5481130000000  0.2887180000000 1.0
C      1  0.2892120000000  0.3638330000000  0.4570700000000 1.0
C      1  0.3940350000000  0.3638330000000  0.6872040000000 1.0
C      1  0.6452970000000  0.3638340000000  0.6586290000000 1.0
C      1  0.6957650000000  0.3638330000000  0.4108340000000 1.0
C      1  0.4756930000000  0.3638340000000  0.2862620000000 1.0
END
