TITL C-3701779-4465-72 -0.00176428481003113 3375 -396.626066219057 0 0 60 (C3) n - 1
REM
REM in /scratch/bkarasulu/791
REM
REM
REM
REM
REM
REM ./C.cell (830fe4e9c99271719e6d0bb221258042)
REM AIRSS Version 0.9.1 bugfix July 2018 build 013d7b7c2542+ Fri, 06 Jul 2018 19:26:36 +0100
REM compiler GCC version 9.2.1 20190827 (Red Hat 9.2.1-1)
REM options -cpp -mtune=generic -march=x86-64 -g -O0 -fpre-include=/usr/include/finclude/math-vector-fortran.h
REM seed 1259956867 2068009429 -84002834 -1801135016 -152872149 -538647493 -821666705 -6466718 2096050207 -257068133 -1652635551 1828093031 -144622665 -1290385788 -51243372 1897330724 1357595079 585390529 1189396825 745885657 1848663168 744123526 -1587746195 1730486286 -948047082 1686733794 -589006737 -2036715105 2061079081 -1378675092 817588153 1614980844 46223056
REM
CELL 1.54180   15.00000   15.00000   15.00000   90.00000   90.00000   90.00000
LATT -1
SFAC C  
C      1  0.5934800000000  0.6628130000000  0.5904860000000 1.0
C      1  0.3122590000000  0.4995450000000  0.5904880000000 1.0
C      1  0.5942630000000  0.3376340000000  0.5904830000000 1.0
C      1  0.5436500000000  0.4211120000000  0.5774550000000 1.0
C      1  0.5464930000000  0.5772420000000  0.5774570000000 1.0
C      1  0.4098590000000  0.5016400000000  0.5774580000000 1.0
C      1  0.6903280000000  0.3530050000000  0.4453820000000 1.0
C      1  0.5321360000000  0.7383350000000  0.4453910000000 1.0
C      1  0.2775310000000  0.4086690000000  0.4453880000000 1.0
C      1  0.4972310000000  0.2665740000000  0.4900810000000 1.0
C      1  0.7035330000000  0.6143140000000  0.4900810000000 1.0
C      1  0.2992340000000  0.6191080000000  0.4900900000000 1.0
C      1  0.5427820000000  0.4619060000000  0.6706270000000 1.0
C      1  0.5116010000000  0.5560900000000  0.6706290000000 1.0
C      1  0.4456250000000  0.4819940000000  0.6706280000000 1.0
C      1  0.3716880000000  0.5655660000000  0.3346720000000 1.0
C      1  0.5073750000000  0.3561000000000  0.3346650000000 1.0
C      1  0.6209320000000  0.5783420000000  0.3346640000000 1.0
C      1  0.5767450000000  0.4094000000000  0.3074070000000 1.0
C      1  0.5400870000000  0.6117710000000  0.3074110000000 1.0
C      1  0.3831620000000  0.4788400000000  0.3074130000000 1.0
C      1  0.2574780000000  0.5435450000000  0.5301310000000 1.0
C      1  0.5835480000000  0.2681950000000  0.5301230000000 1.0
C      1  0.6589720000000  0.6882550000000  0.5301250000000 1.0
C      1  0.4186870000000  0.4037390000000  0.3561360000000 1.0
C      1  0.6240210000000  0.4777160000000  0.3561330000000 1.0
C      1  0.4572880000000  0.6185540000000  0.3561400000000 1.0
C      1  0.4614940000000  0.6516370000000  0.6665270000000 1.0
C      1  0.3879340000000  0.3908270000000  0.6665230000000 1.0
C      1  0.6505820000000  0.4575280000000  0.6665190000000 1.0
C      1  0.4680190000000  0.4525500000000  0.4398680000000 1.0
C      1  0.5570830000000  0.4960300000000  0.4398670000000 1.0
C      1  0.4748970000000  0.5514240000000  0.4398700000000 1.0
C      1  0.2606530000000  0.4977170000000  0.4440850000000 1.0
C      1  0.6216480000000  0.2938630000000  0.4440780000000 1.0
C      1  0.6176920000000  0.7084230000000  0.4440820000000 1.0
C      1  0.7009780000000  0.4388660000000  0.4055460000000 1.0
C      1  0.4524540000000  0.7046250000000  0.4055560000000 1.0
C      1  0.3465650000000  0.3565170000000  0.4055500000000 1.0
C      1  0.4524440000000  0.4223230000000  0.5292240000000 1.0
C      1  0.5910480000000  0.4976510000000  0.5292230000000 1.0
C      1  0.4565090000000  0.5800220000000  0.5292270000000 1.0
C      1  0.4895110000000  0.7550340000000  0.5331050000000 1.0
C      1  0.2843830000000  0.3634000000000  0.5330990000000 1.0
C      1  0.7261080000000  0.3815690000000  0.5330930000000 1.0
C      1  0.3703830000000  0.6581310000000  0.5372610000000 1.0
C      1  0.4278640000000  0.3086780000000  0.5372540000000 1.0
C      1  0.7017570000000  0.5331870000000  0.5372520000000 1.0
C      1  0.3063530000000  0.4081950000000  0.6124230000000 1.0
C      1  0.6763290000000  0.3781950000000  0.6124170000000 1.0
C      1  0.5173230000000  0.7136040000000  0.6124260000000 1.0
C      1  0.7447580000000  0.4647040000000  0.4889180000000 1.0
C      1  0.4081890000000  0.7296160000000  0.4889300000000 1.0
C      1  0.3470550000000  0.3056820000000  0.4889210000000 1.0
C      1  0.4250200000000  0.3166300000000  0.6355920000000 1.0
C      1  0.6962950000000  0.5267450000000  0.6355900000000 1.0
C      1  0.3786940000000  0.6566180000000  0.6355990000000 1.0
C      1  0.5314480000000  0.2963970000000  0.4050750000000 1.0
C      1  0.6605970000000  0.6290410000000  0.4050760000000 1.0
C      1  0.3079480000000  0.5745660000000  0.4050820000000 1.0
END
