TITL C-3701779-4465-67 -0.00103569982799774 3375 -403.57646123093 0 0 60 (Ci) n - 1
REM
REM in /scratch/bkarasulu/791
REM
REM
REM
REM
REM
REM ./C.cell (830fe4e9c99271719e6d0bb221258042)
REM AIRSS Version 0.9.1 bugfix July 2018 build 013d7b7c2542+ Fri, 06 Jul 2018 19:26:36 +0100
REM compiler GCC version 9.2.1 20190827 (Red Hat 9.2.1-1)
REM options -cpp -mtune=generic -march=x86-64 -g -O0 -fpre-include=/usr/include/finclude/math-vector-fortran.h
REM seed 413440778 -1841259321 -1786078909 -684116802 -294356596 -1306757741 -1563347081 -1288106445 1321657456 -925835716 1806164164 919303755 1583126848 -1668151993 -147830916 -1611414626 -1063844794 -1729573009 -153288714 -121711822 -778266174 -1252945715 -624945950 -1965990465 -272576030 -481824097 -1188563771 831325567 134439395 1991106104 -2048826333 -1926123446 1299658899
REM
CELL 1.54180   15.00000   15.00000   15.00000   90.00000   90.00000   90.00000
LATT -1
SFAC C  
C      1  0.4577730000000  0.6758790000000  0.5870050000000 1.0
C      1  0.5743870000000  0.6651330000000  0.4226860000000 1.0
C      1  0.6507740000000  0.5962200000000  0.5810990000000 1.0
C      1  0.6807420000000  0.4792500000000  0.4241480000000 1.0
C      1  0.6356860000000  0.3810070000000  0.5707260000000 1.0
C      1  0.5422270000000  0.3241210000000  0.4129950000000 1.0
C      1  0.4256130000000  0.3348670000000  0.5773140000000 1.0
C      1  0.3492260000000  0.4037800000000  0.4189010000000 1.0
C      1  0.3192580000000  0.5207500000000  0.5758520000000 1.0
C      1  0.3643140000000  0.6189930000000  0.4292740000000 1.0
C      1  0.5535750000000  0.7030910000000  0.5968940000000 1.0
C      1  0.6618320000000  0.6279460000000  0.4089610000000 1.0
C      1  0.7049320000000  0.5144160000000  0.5928020000000 1.0
C      1  0.6820570000000  0.3817650000000  0.4055560000000 1.0
C      1  0.5726070000000  0.3115040000000  0.5876310000000 1.0
C      1  0.4464250000000  0.2969090000000  0.4031060000000 1.0
C      1  0.3381680000000  0.3720540000000  0.5910390000000 1.0
C      1  0.2950680000000  0.4855840000000  0.4071980000000 1.0
C      1  0.3179430000000  0.6182350000000  0.5944440000000 1.0
C      1  0.4273930000000  0.6884960000000  0.4123690000000 1.0
C      1  0.4380430000000  0.4477960000000  0.4486460000000 1.0
C      1  0.4166580000000  0.5140330000000  0.5475180000000 1.0
C      1  0.4377850000000  0.5470970000000  0.4588500000000 1.0
C      1  0.4759710000000  0.5741580000000  0.5877470000000 1.0
C      1  0.5332930000000  0.5720300000000  0.4601550000000 1.0
C      1  0.5619570000000  0.5522040000000  0.5513540000000 1.0
C      1  0.5833420000000  0.4859670000000  0.4524820000000 1.0
C      1  0.5622150000000  0.4529030000000  0.5411500000000 1.0
C      1  0.5240290000000  0.4258420000000  0.4122530000000 1.0
C      1  0.4667070000000  0.4279700000000  0.5398450000000 1.0
C      1  0.6907390000000  0.3603390000000  0.4931840000000 1.0
C      1  0.5431740000000  0.2822720000000  0.5028340000000 1.0
C      1  0.4464380000000  0.2777160000000  0.4984400000000 1.0
C      1  0.3018520000000  0.3883370000000  0.5057790000000 1.0
C      1  0.2701730000000  0.4802560000000  0.5000720000000 1.0
C      1  0.3092610000000  0.6396610000000  0.5068160000000 1.0
C      1  0.4568260000000  0.7177280000000  0.4971660000000 1.0
C      1  0.5535620000000  0.7222840000000  0.5015600000000 1.0
C      1  0.6981480000000  0.6116630000000  0.4942210000000 1.0
C      1  0.7298270000000  0.5197440000000  0.4999280000000 1.0
C      1  0.6026200000000  0.6424630000000  0.6507990000000 1.0
C      1  0.6565240000000  0.5468570000000  0.3553560000000 1.0
C      1  0.6539620000000  0.4492010000000  0.6370580000000 1.0
C      1  0.6094710000000  0.3549890000000  0.3477920000000 1.0
C      1  0.4986480000000  0.3405380000000  0.6418050000000 1.0
C      1  0.3973800000000  0.3575370000000  0.3492010000000 1.0
C      1  0.3434760000000  0.4531430000000  0.6446440000000 1.0
C      1  0.3460380000000  0.5507990000000  0.3629420000000 1.0
C      1  0.3905290000000  0.6450110000000  0.6522080000000 1.0
C      1  0.5013520000000  0.6594620000000  0.3581950000000 1.0
C      1  0.4210730000000  0.4758120000000  0.6976950000000 1.0
C      1  0.4213060000000  0.5210440000000  0.3055660000000 1.0
C      1  0.4514260000000  0.5697450000000  0.6908440000000 1.0
C      1  0.4994590000000  0.5775450000000  0.3066810000000 1.0
C      1  0.5491710000000  0.5721160000000  0.6987180000000 1.0
C      1  0.5789270000000  0.5241880000000  0.3023050000000 1.0
C      1  0.5786940000000  0.4789560000000  0.6944340000000 1.0
C      1  0.5485740000000  0.4302550000000  0.3091560000000 1.0
C      1  0.5005410000000  0.4224550000000  0.6933190000000 1.0
C      1  0.4508290000000  0.4278840000000  0.3012820000000 1.0
END
