TITL C-3701779-4465-113 -0.00191141578378183 3375 -401.440035329794 0 0 60 (Cs) n - 1
REM
REM in /scratch/bkarasulu/791
REM
REM
REM
REM
REM
REM ./C.cell (830fe4e9c99271719e6d0bb221258042)
REM AIRSS Version 0.9.1 bugfix July 2018 build 013d7b7c2542+ Fri, 06 Jul 2018 19:26:36 +0100
REM compiler GCC version 9.2.1 20190827 (Red Hat 9.2.1-1)
REM options -cpp -mtune=generic -march=x86-64 -g -O0 -fpre-include=/usr/include/finclude/math-vector-fortran.h
REM seed -430008885 -2085099560 -87732337 1973276366 -47338069 -812763613 -1447891509 -498452457 -2123152022 -1985312277 -1230217315 1777308312 -465104674 -240408732 932472926 -675609543 1839222573 -384734054 -554806750 496353814 -851744258 -173294805 -1871537028 -808820609 -1884783264 -1299104134 -2018130247 -172476857 1823787072 3297574 -1147691795 -1718433590 338118814
REM
CELL 1.54180   15.00000   15.00000   15.00000   90.00000   90.00000   90.00000
LATT -1
SFAC C  
C      1  0.5786340000000  0.3250220000000  0.3153550000000 1.0
C      1  0.5786340000000  0.3250220000000  0.6846450000000 1.0
C      1  0.5542220000000  0.3967680000000  0.4498480000000 1.0
C      1  0.5542220000000  0.3967680000000  0.5501520000000 1.0
C      1  0.3552540000000  0.4360090000000  0.7536090000000 1.0
C      1  0.3552540000000  0.4360090000000  0.2463910000000 1.0
C      1  0.4724500000000  0.6080400000000  0.5482530000000 1.0
C      1  0.4724500000000  0.6080400000000  0.4517470000000 1.0
C      1  0.2896700000000  0.5422730000000  0.5476600000000 1.0
C      1  0.2896700000000  0.5422730000000  0.4523400000000 1.0
C      1  0.4507050000000  0.7437340000000  0.4534570000000 1.0
C      1  0.4507050000000  0.7437340000000  0.5465430000000 1.0
C      1  0.3878330000000  0.4135320000000  0.6044830000000 1.0
C      1  0.3878330000000  0.4135320000000  0.3955170000000 1.0
C      1  0.5045430000000  0.3648110000000  0.7136380000000 1.0
C      1  0.5045430000000  0.3648110000000  0.2863620000000 1.0
C      1  0.4901280000000  0.5280640000000  0.5974780000000 1.0
C      1  0.4901280000000  0.5280640000000  0.4025220000000 1.0
C      1  0.5415620000000  0.6932530000000  0.5518000000000 1.0
C      1  0.5415620000000  0.6932530000000  0.4482000000000 1.0
C      1  0.6677470000000  0.3180610000000  0.5474380000000 1.0
C      1  0.6677470000000  0.3180610000000  0.4525620000000 1.0
C      1  0.6745240000000  0.6208010000000  0.4517970000000 1.0
C      1  0.6745240000000  0.6208010000000  0.5482030000000 1.0
C      1  0.5846570000000  0.6100200000000  0.6823160000000 1.0
C      1  0.5846570000000  0.6100200000000  0.3176840000000 1.0
C      1  0.4040340000000  0.6689040000000  0.5923100000000 1.0
C      1  0.4040340000000  0.6689040000000  0.4076900000000 1.0
C      1  0.4214780000000  0.6446270000000  0.6937470000000 1.0
C      1  0.4214780000000  0.6446270000000  0.3062530000000 1.0
C      1  0.3100860000000  0.4687440000000  0.3933440000000 1.0
C      1  0.3100860000000  0.4687440000000  0.6066560000000 1.0
C      1  0.3370770000000  0.5926990000000  0.3077500000000 1.0
C      1  0.3370770000000  0.5926990000000  0.6922500000000 1.0
C      1  0.5729860000000  0.5217660000000  0.6451140000000 1.0
C      1  0.5729860000000  0.5217660000000  0.3548860000000 1.0
C      1  0.5060960000000  0.6361900000000  0.2824750000000 1.0
C      1  0.5060960000000  0.6361900000000  0.7175250000000 1.0
C      1  0.6819540000000  0.5242160000000  0.5476620000000 1.0
C      1  0.6819540000000  0.5242160000000  0.4523380000000 1.0
C      1  0.3127710000000  0.5016970000000  0.7013830000000 1.0
C      1  0.3127710000000  0.5016970000000  0.2986170000000 1.0
C      1  0.5258560000000  0.2302440000000  0.4579890000000 1.0
C      1  0.5258560000000  0.2302440000000  0.5420110000000 1.0
C      1  0.3175790000000  0.6182260000000  0.3996730000000 1.0
C      1  0.3175790000000  0.6182260000000  0.6003270000000 1.0
C      1  0.5743550000000  0.3024230000000  0.5843000000000 1.0
C      1  0.5743550000000  0.3024230000000  0.4157000000000 1.0
C      1  0.4638560000000  0.4438360000000  0.5515840000000 1.0
C      1  0.4638560000000  0.4438360000000  0.4484160000000 1.0
C      1  0.6292770000000  0.4593370000000  0.4034890000000 1.0
C      1  0.6292770000000  0.4593370000000  0.5965110000000 1.0
C      1  0.6882060000000  0.3815970000000  0.6208810000000 1.0
C      1  0.6882060000000  0.3815970000000  0.3791190000000 1.0
C      1  0.6669110000000  0.3469020000000  0.7026320000000 1.0
C      1  0.6669110000000  0.3469020000000  0.2973680000000 1.0
C      1  0.4193380000000  0.3931220000000  0.3001530000000 1.0
C      1  0.4193380000000  0.3931220000000  0.6998470000000 1.0
C      1  0.6162100000000  0.6650830000000  0.6055710000000 1.0
C      1  0.6162100000000  0.6650830000000  0.3944290000000 1.0
END
