TITL C-3701779-4465-1 -0.00173362089450926 3375 -401.77571362683 0 0 60 (D2) n - 1
REM
REM in /scratch/bkarasulu/791
REM
REM
REM
REM
REM
REM ./C.cell (830fe4e9c99271719e6d0bb221258042)
REM AIRSS Version 0.9.1 bugfix July 2018 build 013d7b7c2542+ Fri, 06 Jul 2018 19:26:36 +0100
REM compiler GCC version 9.2.1 20190827 (Red Hat 9.2.1-1)
REM options -cpp -mtune=generic -march=x86-64 -g -O0 -fpre-include=/usr/include/finclude/math-vector-fortran.h
REM seed -2145502939 96211567 -1021995419 1767354222 594262939 772397808 -476769127 -324707649 -1176863705 -1284980893 -982633295 1241196739 154205986 1632004731 531460500 -1207420239 674566603 1093468090 770854716 790613095 445643416 1737632827 1150704240 -110172009 1929094913 -2114920147 -738990725 664247888 -1907091326 -436841700 1662217304 1994672780 409993957
REM
CELL 1.54180   15.00000   15.00000   15.00000   90.00000   90.00000   90.00000
LATT -1
SFAC C  
C      1  0.5364940000000  0.3783850000000  0.3223470000000 1.0
C      1  0.4635060000000  0.3783850000000  0.6776530000000 1.0
C      1  0.4635060000000  0.6216150000000  0.3223470000000 1.0
C      1  0.5364940000000  0.6216150000000  0.6776530000000 1.0
C      1  0.7199290000000  0.4405590000000  0.5655880000000 1.0
C      1  0.2800710000000  0.4405590000000  0.4344120000000 1.0
C      1  0.2800710000000  0.5594410000000  0.5655880000000 1.0
C      1  0.7199290000000  0.5594410000000  0.4344120000000 1.0
C      1  0.6988580000000  0.5957720000000  0.5206200000000 1.0
C      1  0.3011420000000  0.5957720000000  0.4793800000000 1.0
C      1  0.3011420000000  0.4042280000000  0.5206200000000 1.0
C      1  0.6988580000000  0.4042280000000  0.4793800000000 1.0
C      1  0.5444400000000  0.5293850000000  0.7025680000000 1.0
C      1  0.4555600000000  0.5293850000000  0.2974320000000 1.0
C      1  0.4555600000000  0.4706150000000  0.7025680000000 1.0
C      1  0.5444400000000  0.4706150000000  0.2974320000000 1.0
C      1  0.6299850000000  0.6720840000000  0.3622400000000 1.0
C      1  0.3700150000000  0.6720840000000  0.6377600000000 1.0
C      1  0.3700150000000  0.3279160000000  0.3622400000000 1.0
C      1  0.6299850000000  0.3279160000000  0.6377600000000 1.0
C      1  0.4249700000000  0.6801040000000  0.3953490000000 1.0
C      1  0.5750300000000  0.6801040000000  0.6046510000000 1.0
C      1  0.5750300000000  0.3198960000000  0.3953490000000 1.0
C      1  0.4249700000000  0.3198960000000  0.6046510000000 1.0
C      1  0.4585100000000  0.6740090000000  0.6744090000000 1.0
C      1  0.5414900000000  0.6740090000000  0.3255910000000 1.0
C      1  0.5414900000000  0.3259910000000  0.6744090000000 1.0
C      1  0.4585100000000  0.3259910000000  0.3255910000000 1.0
C      1  0.6699730000000  0.4096860000000  0.6419050000000 1.0
C      1  0.3300270000000  0.4096860000000  0.3580950000000 1.0
C      1  0.3300270000000  0.5903140000000  0.6419050000000 1.0
C      1  0.6699730000000  0.5903140000000  0.3580950000000 1.0
C      1  0.6979610000000  0.4678030000000  0.4119250000000 1.0
C      1  0.3020390000000  0.4678030000000  0.5880750000000 1.0
C      1  0.3020390000000  0.5321970000000  0.4119250000000 1.0
C      1  0.6979610000000  0.5321970000000  0.5880750000000 1.0
C      1  0.4008850000000  0.7109330000000  0.5545760000000 1.0
C      1  0.5991150000000  0.7109330000000  0.4454240000000 1.0
C      1  0.5991150000000  0.2890670000000  0.5545760000000 1.0
C      1  0.4008850000000  0.2890670000000  0.4454240000000 1.0
C      1  0.3776990000000  0.5043000000000  0.6516390000000 1.0
C      1  0.6223010000000  0.5043000000000  0.3483610000000 1.0
C      1  0.6223010000000  0.4957000000000  0.6516390000000 1.0
C      1  0.3776990000000  0.4957000000000  0.3483610000000 1.0
C      1  0.4491940000000  0.5716960000000  0.4985230000000 1.0
C      1  0.5508060000000  0.5716960000000  0.5014770000000 1.0
C      1  0.5508060000000  0.4283040000000  0.4985230000000 1.0
C      1  0.4491940000000  0.4283040000000  0.5014770000000 1.0
C      1  0.4484160000000  0.5030810000000  0.5699430000000 1.0
C      1  0.5515840000000  0.5030810000000  0.4300570000000 1.0
C      1  0.5515840000000  0.4969190000000  0.5699430000000 1.0
C      1  0.4484160000000  0.4969190000000  0.4300570000000 1.0
C      1  0.6161820000000  0.6529260000000  0.5222860000000 1.0
C      1  0.3838180000000  0.6529260000000  0.4777140000000 1.0
C      1  0.3838180000000  0.3470740000000  0.5222860000000 1.0
C      1  0.6161820000000  0.3470740000000  0.4777140000000 1.0
C      1  0.5094980000000  0.7217610000000  0.4092650000000 1.0
C      1  0.4905020000000  0.7217610000000  0.5907350000000 1.0
C      1  0.4905020000000  0.2782390000000  0.4092650000000 1.0
C      1  0.5094980000000  0.2782390000000  0.5907350000000 1.0
END
