TITL C-3701779-4465-232 -0.00157886088952281 3375 -396.009067812562 0 0 60 (C3) n - 1
REM
REM in /scratch/bkarasulu/791
REM
REM
REM
REM
REM
REM ./C.cell (830fe4e9c99271719e6d0bb221258042)
REM AIRSS Version 0.9.1 bugfix July 2018 build 013d7b7c2542+ Fri, 06 Jul 2018 19:26:36 +0100
REM compiler GCC version 9.2.1 20190827 (Red Hat 9.2.1-1)
REM options -cpp -mtune=generic -march=x86-64 -g -O0 -fpre-include=/usr/include/finclude/math-vector-fortran.h
REM seed 210674722 2011927823 -1795875942 -923118859 -6966637 51811185 99400551 -1237649069 1467344679 -1687132747 -241010063 1803781195 -259706268 -1858105258 154507760 1122057163 1314104880 1669021088 -98137853 108083860 -941322555 228021451 65686641 -918242097 -1605742721 1074075658 1348022 2013559781 1015691992 -1480810733 1640142126 -2086165854 -301419885
REM
CELL 1.54180   15.00000   15.00000   15.00000   90.00000   90.00000   90.00000
LATT -1
SFAC C  
C      1  0.5643130000000  0.3378990000000  0.6830320000000 1.0
C      1  0.3274590000000  0.5253510000000  0.6830320000000 1.0
C      1  0.6082240000000  0.6367450000000  0.6830340000000 1.0
C      1  0.6060080000000  0.5253550000000  0.5191600000000 1.0
C      1  0.4689550000000  0.3955170000000  0.5191590000000 1.0
C      1  0.4250380000000  0.5791270000000  0.5191600000000 1.0
C      1  0.3030170000000  0.6452200000000  0.4701830000000 1.0
C      1  0.7242580000000  0.5979820000000  0.4701850000000 1.0
C      1  0.4727260000000  0.2567970000000  0.4701810000000 1.0
C      1  0.7183610000000  0.4469870000000  0.4610290000000 1.0
C      1  0.3449100000000  0.3374030000000  0.4610260000000 1.0
C      1  0.4367320000000  0.7156120000000  0.4610300000000 1.0
C      1  0.4187390000000  0.6172590000000  0.3422530000000 1.0
C      1  0.6421810000000  0.5117480000000  0.3422530000000 1.0
C      1  0.4390830000000  0.3709980000000  0.3422520000000 1.0
C      1  0.2780360000000  0.5564330000000  0.4490460000000 1.0
C      1  0.6598550000000  0.6640090000000  0.4490480000000 1.0
C      1  0.5621090000000  0.2795570000000  0.4490440000000 1.0
C      1  0.3523160000000  0.6516970000000  0.5593310000000 1.0
C      1  0.7052170000000  0.5520480000000  0.5593320000000 1.0
C      1  0.4424670000000  0.2962520000000  0.5593290000000 1.0
C      1  0.3729290000000  0.6749290000000  0.4075990000000 1.0
C      1  0.7150300000000  0.5225840000000  0.4075990000000 1.0
C      1  0.4120440000000  0.3024890000000  0.4075960000000 1.0
C      1  0.6387720000000  0.7255110000000  0.3858440000000 1.0
C      1  0.6259090000000  0.2670640000000  0.3858370000000 1.0
C      1  0.2353140000000  0.5074260000000  0.3858410000000 1.0
C      1  0.5492730000000  0.3810860000000  0.4596510000000 1.0
C      1  0.3723810000000  0.5167860000000  0.4596510000000 1.0
C      1  0.5783470000000  0.6021280000000  0.4596520000000 1.0
C      1  0.4373210000000  0.4050170000000  0.6706120000000 1.0
C      1  0.4490820000000  0.6017710000000  0.6706130000000 1.0
C      1  0.6135950000000  0.4932080000000  0.6706130000000 1.0
C      1  0.5115180000000  0.6344130000000  0.3189230000000 1.0
C      1  0.6106460000000  0.4228230000000  0.3189210000000 1.0
C      1  0.3778370000000  0.4427700000000  0.3189210000000 1.0
C      1  0.5225250000000  0.6677630000000  0.6727930000000 1.0
C      1  0.6340250000000  0.3966080000000  0.6727900000000 1.0
C      1  0.3434480000000  0.4356250000000  0.6727900000000 1.0
C      1  0.4927950000000  0.6994310000000  0.5889760000000 1.0
C      1  0.6763150000000  0.4065230000000  0.5889740000000 1.0
C      1  0.3308890000000  0.3940450000000  0.5889730000000 1.0
C      1  0.4100540000000  0.7302140000000  0.5575670000000 1.0
C      1  0.7443450000000  0.4627880000000  0.5575660000000 1.0
C      1  0.3456020000000  0.3069980000000  0.5575630000000 1.0
C      1  0.3758180000000  0.4259630000000  0.4975300000000 1.0
C      1  0.4979730000000  0.6445640000000  0.4975320000000 1.0
C      1  0.6262100000000  0.4294730000000  0.4975310000000 1.0
C      1  0.5733790000000  0.5742480000000  0.3631190000000 1.0
C      1  0.5276110000000  0.3993320000000  0.3631180000000 1.0
C      1  0.3990120000000  0.5264250000000  0.3631180000000 1.0
C      1  0.4644910000000  0.5433470000000  0.5992370000000 1.0
C      1  0.5552950000000  0.5090770000000  0.5992380000000 1.0
C      1  0.4802140000000  0.4475740000000  0.5992370000000 1.0
C      1  0.6390180000000  0.3378820000000  0.3349970000000 1.0
C      1  0.2900900000000  0.4606660000000  0.3350010000000 1.0
C      1  0.5708890000000  0.7014570000000  0.3350030000000 1.0
C      1  0.4795510000000  0.3166940000000  0.6591230000000 1.0
C      1  0.3514770000000  0.6093600000000  0.6591250000000 1.0
C      1  0.6689710000000  0.5739420000000  0.6591260000000 1.0
END
