TITL C-3701779-4465-77 -0.00322278745741238 3375 -411.049932158594 0 0 60 (C5) n - 1
REM
REM in /scratch/bkarasulu/791
REM
REM
REM
REM
REM
REM ./C.cell (830fe4e9c99271719e6d0bb221258042)
REM AIRSS Version 0.9.1 bugfix July 2018 build 013d7b7c2542+ Fri, 06 Jul 2018 19:26:36 +0100
REM compiler GCC version 9.2.1 20190827 (Red Hat 9.2.1-1)
REM options -cpp -mtune=generic -march=x86-64 -g -O0 -fpre-include=/usr/include/finclude/math-vector-fortran.h
REM seed 2024330095 -474652873 -694760908 -25389766 1890067937 427318604 -554624785 -948571725 1593698122 -1176872586 1986230613 -1347060841 1367446124 -1301722333 1895695826 -945071577 -318870746 -151519488 90554631 -53463880 -965164154 1490864677 60950085 1342932363 842406600 1314610830 -2085859908 -1484296268 1020428538 560998719 537185719 -2132968542 564947641
REM
CELL 1.54180   15.00000   15.00000   15.00000   90.00000   90.00000   90.00000
LATT -1
SFAC C  
C      1  0.5532120000000  0.2859690000000  0.5537260000000 1.0
C      1  0.5532130000000  0.4849550000000  0.7201590000000 1.0
C      1  0.5532140000000  0.7047280000000  0.5823440000000 1.0
C      1  0.5532130000000  0.6415760000000  0.3307380000000 1.0
C      1  0.5532130000000  0.3827680000000  0.3130480000000 1.0
C      1  0.4548460000000  0.3813460000000  0.3429580000000 1.0
C      1  0.4548450000000  0.3139780000000  0.5643170000000 1.0
C      1  0.4548440000000  0.5036840000000  0.6967960000000 1.0
C      1  0.4548470000000  0.6883010000000  0.5573090000000 1.0
C      1  0.4548470000000  0.6126900000000  0.3386240000000 1.0
C      1  0.6323100000000  0.2842960000000  0.4008680000000 1.0
C      1  0.6323130000000  0.3390630000000  0.6745090000000 1.0
C      1  0.6323110000000  0.6162340000000  0.7069900000000 1.0
C      1  0.6323070000000  0.7327810000000  0.4534170000000 1.0
C      1  0.6323070000000  0.5276270000000  0.2642170000000 1.0
C      1  0.4409460000000  0.7088510000000  0.4659980000000 1.0
C      1  0.4409460000000  0.5321990000000  0.2908620000000 1.0
C      1  0.4409470000000  0.3110490000000  0.4047520000000 1.0
C      1  0.4409470000000  0.3510250000000  0.6502680000000 1.0
C      1  0.4409460000000  0.5968760000000  0.6881230000000 1.0
C      1  0.3979980000000  0.4349580000000  0.6643250000000 1.0
C      1  0.3980000000000  0.6361830000000  0.6126390000000 1.0
C      1  0.3980010000000  0.6492060000000  0.4052910000000 1.0
C      1  0.3979990000000  0.4560330000000  0.3288280000000 1.0
C      1  0.3979980000000  0.3236190000000  0.4889210000000 1.0
C      1  0.5083040000000  0.2424730000000  0.3943460000000 1.0
C      1  0.5083070000000  0.3199360000000  0.7122680000000 1.0
C      1  0.5083060000000  0.6462340000000  0.7368510000000 1.0
C      1  0.5083010000000  0.7704510000000  0.4341100000000 1.0
C      1  0.5083010000000  0.5209040000000  0.2224230000000 1.0
C      1  0.5714220000000  0.3916690000000  0.7347970000000 1.0
C      1  0.5714200000000  0.6898250000000  0.6755880000000 1.0
C      1  0.5714180000000  0.7256540000000  0.3737230000000 1.0
C      1  0.5714190000000  0.4496300000000  0.2463670000000 1.0
C      1  0.5714200000000  0.2432150000000  0.4695300000000 1.0
C      1  0.6304160000000  0.5306420000000  0.6641190000000 1.0
C      1  0.6304120000000  0.6655580000000  0.5215730000000 1.0
C      1  0.6304110000000  0.5716780000000  0.3492100000000 1.0
C      1  0.6304130000000  0.3787410000000  0.3852350000000 1.0
C      1  0.6304170000000  0.3533830000000  0.5798580000000 1.0
C      1  0.3087140000000  0.4628500000000  0.3651960000000 1.0
C      1  0.3087130000000  0.3603140000000  0.4936750000000 1.0
C      1  0.3087130000000  0.4508200000000  0.6308950000000 1.0
C      1  0.3087140000000  0.6092910000000  0.5872230000000 1.0
C      1  0.3087140000000  0.6167260000000  0.4230120000000 1.0
C      1  0.5700010000000  0.5824700000000  0.7724110000000 1.0
C      1  0.5699980000000  0.7845750000000  0.5057370000000 1.0
C      1  0.5699980000000  0.5933890000000  0.2311240000000 1.0
C      1  0.5700000000000  0.2731530000000  0.3280980000000 1.0
C      1  0.5700020000000  0.2664140000000  0.6626110000000 1.0
C      1  0.2712640000000  0.6348000000000  0.5064300000000 1.0
C      1  0.2712630000000  0.5477700000000  0.3737860000000 1.0
C      1  0.2712620000000  0.3947250000000  0.4155660000000 1.0
C      1  0.2712620000000  0.3871670000000  0.5740320000000 1.0
C      1  0.2712630000000  0.5355420000000  0.6301890000000 1.0
C      1  0.6605740000000  0.4416230000000  0.4430110000000 1.0
C      1  0.6605740000000  0.4277640000000  0.5379080000000 1.0
C      1  0.6605730000000  0.5137340000000  0.5804150000000 1.0
C      1  0.6605720000000  0.5807260000000  0.5117880000000 1.0
C      1  0.6605720000000  0.5361600000000  0.4268670000000 1.0
END
