TITL C-3701779-4465-82 -0.00199853108889385 3375 -402.609323765345 0 0 60 (C1) n - 1
REM
REM in /scratch/bkarasulu/791
REM
REM
REM
REM
REM
REM ./C.cell (830fe4e9c99271719e6d0bb221258042)
REM AIRSS Version 0.9.1 bugfix July 2018 build 013d7b7c2542+ Fri, 06 Jul 2018 19:26:36 +0100
REM compiler GCC version 9.2.1 20190827 (Red Hat 9.2.1-1)
REM options -cpp -mtune=generic -march=x86-64 -g -O0 -fpre-include=/usr/include/finclude/math-vector-fortran.h
REM seed -2125524020 328367605 1447886624 -979919612 1936991516 -1049742251 -242509857 865096032 1588913051 -1030699108 -779232453 485743368 2009737397 556223657 -1162133817 -1112112711 384817619 937862112 -2140649801 -529736596 -1500143906 -384809060 -986445652 -1856118333 1152716717 2041343796 -863511128 -1890272431 -2077969738 -1607492102 -1715172769 615529464 -534306235
REM
CELL 1.54180   15.00000   15.00000   15.00000   90.00000   90.00000   90.00000
LATT -1
SFAC C  
C      1  0.5840210000000  0.2578830000000  0.6206850000000 1.0
C      1  0.2953590000000  0.3492610000000  0.6233310000000 1.0
C      1  0.2844560000000  0.6431850000000  0.6187790000000 1.0
C      1  0.5833900000000  0.7372430000000  0.6240330000000 1.0
C      1  0.7573610000000  0.5155390000000  0.6211820000000 1.0
C      1  0.5812200000000  0.5187630000000  0.7099910000000 1.0
C      1  0.5446450000000  0.4273570000000  0.7102380000000 1.0
C      1  0.4449980000000  0.4348800000000  0.7106950000000 1.0
C      1  0.4217390000000  0.5318160000000  0.7102900000000 1.0
C      1  0.5055780000000  0.5833370000000  0.7118700000000 1.0
C      1  0.2693840000000  0.4858390000000  0.4251440000000 1.0
C      1  0.4169170000000  0.7116780000000  0.4234510000000 1.0
C      1  0.6788060000000  0.6462800000000  0.4213450000000 1.0
C      1  0.6961820000000  0.3802780000000  0.4258260000000 1.0
C      1  0.4434500000000  0.2825210000000  0.4203710000000 1.0
C      1  0.2520310000000  0.6154420000000  0.6908430000000 1.0
C      1  0.5755460000000  0.7527770000000  0.7059540000000 1.0
C      1  0.7663760000000  0.5542510000000  0.6950440000000 1.0
C      1  0.6133590000000  0.2519640000000  0.6992430000000 1.0
C      1  0.2992200000000  0.3172800000000  0.7010270000000 1.0
C      1  0.4159000000000  0.3821140000000  0.5307640000000 1.0
C      1  0.3620870000000  0.5446760000000  0.5304870000000 1.0
C      1  0.4981790000000  0.6465460000000  0.5330700000000 1.0
C      1  0.6381230000000  0.5463410000000  0.5300210000000 1.0
C      1  0.5880430000000  0.3843670000000  0.5316520000000 1.0
C      1  0.5025980000000  0.6327870000000  0.2896070000000 1.0
C      1  0.6369820000000  0.5207690000000  0.2870670000000 1.0
C      1  0.5554840000000  0.3912340000000  0.2246350000000 1.0
C      1  0.4126100000000  0.3987160000000  0.2887320000000 1.0
C      1  0.3803440000000  0.5462960000000  0.2187600000000 1.0
C      1  0.3208080000000  0.3934330000000  0.5483700000000 1.0
C      1  0.3413840000000  0.6378990000000  0.5467860000000 1.0
C      1  0.5825190000000  0.6926810000000  0.5455440000000 1.0
C      1  0.7102450000000  0.4847210000000  0.5478820000000 1.0
C      1  0.5479140000000  0.2971370000000  0.5467570000000 1.0
C      1  0.4409060000000  0.6040500000000  0.2236220000000 1.0
C      1  0.5884790000000  0.5946660000000  0.2922300000000 1.0
C      1  0.6122380000000  0.4288880000000  0.2889650000000 1.0
C      1  0.4726280000000  0.3783470000000  0.2132610000000 1.0
C      1  0.3679110000000  0.4836280000000  0.2902830000000 1.0
C      1  0.4519500000000  0.4304290000000  0.4469620000000 1.0
C      1  0.4171170000000  0.5241840000000  0.4461800000000 1.0
C      1  0.4983510000000  0.5872000000000  0.4486070000000 1.0
C      1  0.5815470000000  0.5292700000000  0.4478110000000 1.0
C      1  0.5546020000000  0.4323060000000  0.4474630000000 1.0
C      1  0.4990330000000  0.5837100000000  0.6098360000000 1.0
C      1  0.5783010000000  0.5273210000000  0.6081400000000 1.0
C      1  0.5500920000000  0.4340970000000  0.6085620000000 1.0
C      1  0.4524230000000  0.4326060000000  0.6084990000000 1.0
C      1  0.4212390000000  0.5248000000000  0.6084300000000 1.0
C      1  0.4592050000000  0.2934950000000  0.5093520000000 1.0
C      1  0.2908890000000  0.4769000000000  0.5131850000000 1.0
C      1  0.4114290000000  0.6937710000000  0.5130260000000 1.0
C      1  0.6546140000000  0.6428300000000  0.5076530000000 1.0
C      1  0.6865310000000  0.3985520000000  0.5144890000000 1.0
C      1  0.4770210000000  0.6581780000000  0.3789200000000 1.0
C      1  0.6390390000000  0.5744920000000  0.3750670000000 1.0
C      1  0.6201130000000  0.3929850000000  0.3776590000000 1.0
C      1  0.4260730000000  0.3623270000000  0.3758330000000 1.0
C      1  0.3410100000000  0.5136820000000  0.3764900000000 1.0
END
