TITL C-3701779-4465-15 -0.00137875428106106 3375 -393.148370668945 0 0 60 (Td) n - 1
REM
REM in /scratch/bkarasulu/791
REM
REM
REM
REM
REM
REM ./C.cell (830fe4e9c99271719e6d0bb221258042)
REM AIRSS Version 0.9.1 bugfix July 2018 build 013d7b7c2542+ Fri, 06 Jul 2018 19:26:36 +0100
REM compiler GCC version 9.2.1 20190827 (Red Hat 9.2.1-1)
REM options -cpp -mtune=generic -march=x86-64 -g -O0 -fpre-include=/usr/include/finclude/math-vector-fortran.h
REM seed 1387868806 -1324342629 -413221234 1917964780 -197251871 1125917836 683076027 -790396979 -1247753380 849515196 517723506 1271283403 816174618 1307967476 1948808550 1452084679 1748313739 -2087522883 -1733195039 -558557294 -257601515 -1210869928 -131491191 -2002014933 1292766081 -810745175 -1624742509 1083266989 -1241690395 -1623633229 -823710839 -447593576 16679879
REM
CELL 1.54180   15.00000   15.00000   15.00000   90.00000   90.00000   90.00000
LATT -1
SFAC C  
C      1  0.6115530000000  0.3884470000000  0.3209830000000 1.0
C      1  0.3209830000000  0.6115530000000  0.3884470000000 1.0
C      1  0.3884470000000  0.3209830000000  0.6115530000000 1.0
C      1  0.3884470000000  0.6115530000000  0.3209830000000 1.0
C      1  0.3884470000000  0.3884470000000  0.6790170000000 1.0
C      1  0.6115530000000  0.6115530000000  0.6790170000000 1.0
C      1  0.6790170000000  0.3884470000000  0.3884470000000 1.0
C      1  0.6790170000000  0.6115530000000  0.6115530000000 1.0
C      1  0.3209830000000  0.3884470000000  0.6115530000000 1.0
C      1  0.6115530000000  0.6790170000000  0.6115530000000 1.0
C      1  0.6115530000000  0.3209830000000  0.3884470000000 1.0
C      1  0.3884470000000  0.6790170000000  0.3884470000000 1.0
C      1  0.2789670000000  0.5513270000000  0.4486730000000 1.0
C      1  0.4486730000000  0.2789670000000  0.5513270000000 1.0
C      1  0.5513270000000  0.4486730000000  0.2789670000000 1.0
C      1  0.7210330000000  0.4486730000000  0.4486730000000 1.0
C      1  0.7210330000000  0.5513270000000  0.5513270000000 1.0
C      1  0.2789670000000  0.4486730000000  0.5513270000000 1.0
C      1  0.5513270000000  0.7210330000000  0.5513270000000 1.0
C      1  0.5513270000000  0.2789670000000  0.4486730000000 1.0
C      1  0.4486730000000  0.7210330000000  0.4486730000000 1.0
C      1  0.4486730000000  0.5513270000000  0.2789670000000 1.0
C      1  0.4486730000000  0.4486730000000  0.7210330000000 1.0
C      1  0.5513270000000  0.5513270000000  0.7210330000000 1.0
C      1  0.5501820000000  0.2970420000000  0.5501820000000 1.0
C      1  0.5501820000000  0.5501820000000  0.2970420000000 1.0
C      1  0.2970420000000  0.5501820000000  0.5501820000000 1.0
C      1  0.4498180000000  0.7029580000000  0.5501820000000 1.0
C      1  0.4498180000000  0.2970420000000  0.4498180000000 1.0
C      1  0.5501820000000  0.7029580000000  0.4498180000000 1.0
C      1  0.4498180000000  0.4498180000000  0.2970420000000 1.0
C      1  0.4498180000000  0.5501820000000  0.7029580000000 1.0
C      1  0.5501820000000  0.4498180000000  0.7029580000000 1.0
C      1  0.7029580000000  0.4498180000000  0.5501820000000 1.0
C      1  0.7029580000000  0.5501820000000  0.4498180000000 1.0
C      1  0.2970420000000  0.4498180000000  0.4498180000000 1.0
C      1  0.5340890000000  0.5340890000000  0.3955050000000 1.0
C      1  0.3955050000000  0.5340890000000  0.5340890000000 1.0
C      1  0.5340890000000  0.3955050000000  0.5340890000000 1.0
C      1  0.4659110000000  0.4659110000000  0.3955050000000 1.0
C      1  0.4659110000000  0.5340890000000  0.6044950000000 1.0
C      1  0.5340890000000  0.4659110000000  0.6044950000000 1.0
C      1  0.6044950000000  0.4659110000000  0.5340890000000 1.0
C      1  0.6044950000000  0.5340890000000  0.4659110000000 1.0
C      1  0.3955050000000  0.4659110000000  0.4659110000000 1.0
C      1  0.4659110000000  0.6044950000000  0.5340890000000 1.0
C      1  0.4659110000000  0.3955050000000  0.4659110000000 1.0
C      1  0.5340890000000  0.6044950000000  0.4659110000000 1.0
C      1  0.6883300000000  0.3782380000000  0.6217620000000 1.0
C      1  0.6217620000000  0.6883300000000  0.3782380000000 1.0
C      1  0.3782380000000  0.6217620000000  0.6883300000000 1.0
C      1  0.3116700000000  0.6217620000000  0.6217620000000 1.0
C      1  0.3116700000000  0.3782380000000  0.3782380000000 1.0
C      1  0.6883300000000  0.6217620000000  0.3782380000000 1.0
C      1  0.3782380000000  0.3116700000000  0.3782380000000 1.0
C      1  0.3782380000000  0.6883300000000  0.6217620000000 1.0
C      1  0.6217620000000  0.3116700000000  0.6217620000000 1.0
C      1  0.6217620000000  0.3782380000000  0.6883300000000 1.0
C      1  0.6217620000000  0.6217620000000  0.3116700000000 1.0
C      1  0.3782380000000  0.3782380000000  0.3116700000000 1.0
END
