TITL C-3701779-4465-211 -0.00181539525186149 3375 -408.525324045847 0 0 60 (C1) n - 1
REM
REM in /scratch/bkarasulu/791
REM
REM
REM
REM
REM
REM ./C.cell (830fe4e9c99271719e6d0bb221258042)
REM AIRSS Version 0.9.1 bugfix July 2018 build 013d7b7c2542+ Fri, 06 Jul 2018 19:26:36 +0100
REM compiler GCC version 9.2.1 20190827 (Red Hat 9.2.1-1)
REM options -cpp -mtune=generic -march=x86-64 -g -O0 -fpre-include=/usr/include/finclude/math-vector-fortran.h
REM seed -1651916746 -189639353 1995560365 399200582 1229522091 1360838249 1661134672 1212732018 -1222996541 874979344 -1592204302 552460125 1233814315 -446682304 1120452360 -759213307 -537703221 -622992190 -2023532746 -609470772 1918157752 -277794074 499506909 1244288199 219136217 1151059619 685554762 -521547756 -318029516 578260219 -1203678293 248627429 -305887883
REM
CELL 1.54180   15.00000   15.00000   15.00000   90.00000   90.00000   90.00000
LATT -1
SFAC C  
C      1  0.5162390000000  0.2445550000000  0.3984400000000 1.0
C      1  0.3948760000000  0.3465790000000  0.3485020000000 1.0
C      1  0.6793550000000  0.6214810000000  0.4474120000000 1.0
C      1  0.7503960000000  0.5917940000000  0.3936000000000 1.0
C      1  0.5337830000000  0.5282800000000  0.2234560000000 1.0
C      1  0.3927640000000  0.4935540000000  0.7192080000000 1.0
C      1  0.4971850000000  0.6206960000000  0.7172470000000 1.0
C      1  0.6967850000000  0.4065700000000  0.4811060000000 1.0
C      1  0.3508860000000  0.4391060000000  0.4777430000000 1.0
C      1  0.4661210000000  0.4053490000000  0.3209560000000 1.0
C      1  0.2961330000000  0.4804130000000  0.3435310000000 1.0
C      1  0.6105620000000  0.3496640000000  0.6006030000000 1.0
C      1  0.6393730000000  0.5074070000000  0.3277660000000 1.0
C      1  0.3402650000000  0.5639600000000  0.3695170000000 1.0
C      1  0.3179720000000  0.4146470000000  0.5697870000000 1.0
C      1  0.4536820000000  0.6471090000000  0.6336110000000 1.0
C      1  0.5110310000000  0.6405990000000  0.5520530000000 1.0
C      1  0.5584960000000  0.4970940000000  0.5880340000000 1.0
C      1  0.5577790000000  0.3160200000000  0.4462340000000 1.0
C      1  0.7484480000000  0.4277850000000  0.4105740000000 1.0
C      1  0.5278690000000  0.3266160000000  0.6420320000000 1.0
C      1  0.4579380000000  0.3135080000000  0.4965090000000 1.0
C      1  0.5834710000000  0.6499990000000  0.7381610000000 1.0
C      1  0.3318780000000  0.5400820000000  0.6614700000000 1.0
C      1  0.4338080000000  0.5662220000000  0.3293110000000 1.0
C      1  0.4296860000000  0.2771070000000  0.4061390000000 1.0
C      1  0.6018130000000  0.6730810000000  0.4158560000000 1.0
C      1  0.4468770000000  0.3045980000000  0.5908670000000 1.0
C      1  0.4778900000000  0.4783840000000  0.5466200000000 1.0
C      1  0.5257710000000  0.6978180000000  0.4736440000000 1.0
C      1  0.4662420000000  0.4922250000000  0.2695050000000 1.0
C      1  0.6307820000000  0.3359890000000  0.5073360000000 1.0
C      1  0.7292490000000  0.5050110000000  0.3644420000000 1.0
C      1  0.3588940000000  0.6874430000000  0.4516930000000 1.0
C      1  0.5940620000000  0.5892550000000  0.5836650000000 1.0
C      1  0.6899630000000  0.4779980000000  0.5433980000000 1.0
C      1  0.5007520000000  0.3814940000000  0.7150590000000 1.0
C      1  0.4724260000000  0.6577260000000  0.3348340000000 1.0
C      1  0.4579820000000  0.5553420000000  0.4933750000000 1.0
C      1  0.5190570000000  0.4102840000000  0.4025900000000 1.0
C      1  0.3087890000000  0.6530660000000  0.3798250000000 1.0
C      1  0.6378930000000  0.4428340000000  0.6196610000000 1.0
C      1  0.4728220000000  0.5316640000000  0.7503710000000 1.0
C      1  0.3749610000000  0.3585310000000  0.6261970000000 1.0
C      1  0.3234150000000  0.4048730000000  0.3848040000000 1.0
C      1  0.5426890000000  0.4615590000000  0.7463290000000 1.0
C      1  0.4065410000000  0.3997670000000  0.7048960000000 1.0
C      1  0.2767220000000  0.4804530000000  0.6175180000000 1.0
C      1  0.4480420000000  0.6997260000000  0.4186230000000 1.0
C      1  0.5954070000000  0.5749140000000  0.2774160000000 1.0
C      1  0.5728230000000  0.4883100000000  0.3937810000000 1.0
C      1  0.3592750000000  0.5432950000000  0.4710840000000 1.0
C      1  0.6247870000000  0.4901290000000  0.7056460000000 1.0
C      1  0.4975380000000  0.5441250000000  0.4054410000000 1.0
C      1  0.6708560000000  0.5710000000000  0.5270740000000 1.0
C      1  0.6184130000000  0.5884850000000  0.6839470000000 1.0
C      1  0.3395200000000  0.6236660000000  0.5238580000000 1.0
C      1  0.3640260000000  0.6192690000000  0.6163800000000 1.0
C      1  0.4499100000000  0.4102380000000  0.4832590000000 1.0
C      1  0.5670330000000  0.6512510000000  0.3280040000000 1.0
END
