TITL C-3701779-4465-94 -0.00259481716925683 3375 -381.52687399702 0 0 60 (Td) n - 1
REM
REM in /scratch/bkarasulu/791
REM
REM
REM
REM
REM
REM ./C.cell (830fe4e9c99271719e6d0bb221258042)
REM AIRSS Version 0.9.1 bugfix July 2018 build 013d7b7c2542+ Fri, 06 Jul 2018 19:26:36 +0100
REM compiler GCC version 9.2.1 20190827 (Red Hat 9.2.1-1)
REM options -cpp -mtune=generic -march=x86-64 -g -O0 -fpre-include=/usr/include/finclude/math-vector-fortran.h
REM seed 1628119051 1235079977 2032307967 -1787147403 1632570034 -354622225 322040039 210812713 -1852023138 327156941 935652783 -1726611542 719211350 -86059031 -1380452533 -1904176736 -560707323 -142277207 1886711050 437631550 -1453447518 740334828 -2104029329 878528256 -1677739647 -2013681064 1060200741 -1233464140 -2137775169 -1953989041 -1368071670 1556941777 -863308997
REM
CELL 1.54180   15.00000   15.00000   15.00000   90.00000   90.00000   90.00000
LATT -1
SFAC C  
C      1  0.4762110000000  0.6678800000000  0.5960860000000 1.0
C      1  0.5960860000000  0.4762110000000  0.6678800000000 1.0
C      1  0.6678800000000  0.5960860000000  0.4762110000000 1.0
C      1  0.5237890000000  0.3321200000000  0.5960860000000 1.0
C      1  0.5237890000000  0.6678800000000  0.4039140000000 1.0
C      1  0.4762110000000  0.3321200000000  0.4039140000000 1.0
C      1  0.4039140000000  0.5237890000000  0.6678800000000 1.0
C      1  0.4039140000000  0.4762110000000  0.3321200000000 1.0
C      1  0.5960860000000  0.5237890000000  0.3321200000000 1.0
C      1  0.3321200000000  0.4039140000000  0.4762110000000 1.0
C      1  0.3321200000000  0.5960860000000  0.5237890000000 1.0
C      1  0.6678800000000  0.4039140000000  0.5237890000000 1.0
C      1  0.6678800000000  0.4762110000000  0.5960860000000 1.0
C      1  0.4762110000000  0.5960860000000  0.6678800000000 1.0
C      1  0.5960860000000  0.6678800000000  0.4762110000000 1.0
C      1  0.3321200000000  0.5237890000000  0.5960860000000 1.0
C      1  0.6678800000000  0.5237890000000  0.4039140000000 1.0
C      1  0.3321200000000  0.4762110000000  0.4039140000000 1.0
C      1  0.5237890000000  0.4039140000000  0.6678800000000 1.0
C      1  0.4762110000000  0.4039140000000  0.3321200000000 1.0
C      1  0.5237890000000  0.5960860000000  0.3321200000000 1.0
C      1  0.4039140000000  0.3321200000000  0.4762110000000 1.0
C      1  0.5960860000000  0.3321200000000  0.5237890000000 1.0
C      1  0.4039140000000  0.6678800000000  0.5237890000000 1.0
C      1  0.5712870000000  0.4973330000000  0.7620550000000 1.0
C      1  0.7620550000000  0.5712870000000  0.4973330000000 1.0
C      1  0.4973330000000  0.7620550000000  0.5712870000000 1.0
C      1  0.4287130000000  0.5026670000000  0.7620550000000 1.0
C      1  0.4287130000000  0.4973330000000  0.2379450000000 1.0
C      1  0.5712870000000  0.5026670000000  0.2379450000000 1.0
C      1  0.2379450000000  0.4287130000000  0.4973330000000 1.0
C      1  0.2379450000000  0.5712870000000  0.5026670000000 1.0
C      1  0.7620550000000  0.4287130000000  0.5026670000000 1.0
C      1  0.5026670000000  0.2379450000000  0.5712870000000 1.0
C      1  0.5026670000000  0.7620550000000  0.4287130000000 1.0
C      1  0.4973330000000  0.2379450000000  0.4287130000000 1.0
C      1  0.4973330000000  0.5712870000000  0.7620550000000 1.0
C      1  0.5712870000000  0.7620550000000  0.4973330000000 1.0
C      1  0.7620550000000  0.4973330000000  0.5712870000000 1.0
C      1  0.5026670000000  0.4287130000000  0.7620550000000 1.0
C      1  0.4973330000000  0.4287130000000  0.2379450000000 1.0
C      1  0.5026670000000  0.5712870000000  0.2379450000000 1.0
C      1  0.4287130000000  0.2379450000000  0.4973330000000 1.0
C      1  0.5712870000000  0.2379450000000  0.5026670000000 1.0
C      1  0.4287130000000  0.7620550000000  0.5026670000000 1.0
C      1  0.2379450000000  0.5026670000000  0.5712870000000 1.0
C      1  0.7620550000000  0.5026670000000  0.4287130000000 1.0
C      1  0.2379450000000  0.4973330000000  0.4287130000000 1.0
C      1  0.3724450000000  0.5606610000000  0.4393390000000 1.0
C      1  0.5606610000000  0.4393390000000  0.3724450000000 1.0
C      1  0.6275550000000  0.4393390000000  0.4393390000000 1.0
C      1  0.6275550000000  0.5606610000000  0.5606610000000 1.0
C      1  0.3724450000000  0.4393390000000  0.5606610000000 1.0
C      1  0.4393390000000  0.4393390000000  0.6275550000000 1.0
C      1  0.5606610000000  0.3724450000000  0.4393390000000 1.0
C      1  0.4393390000000  0.5606610000000  0.3724450000000 1.0
C      1  0.4393390000000  0.6275550000000  0.4393390000000 1.0
C      1  0.4393390000000  0.3724450000000  0.5606610000000 1.0
C      1  0.5606610000000  0.6275550000000  0.5606610000000 1.0
C      1  0.5606610000000  0.5606610000000  0.6275550000000 1.0
END
