TITL C-3701779-4465-151 -0.00293709636741014 3375 -417.140236937101 0 0 60 (C1) n - 1
REM
REM in /scratch/bkarasulu/791
REM
REM
REM
REM
REM
REM ./C.cell (830fe4e9c99271719e6d0bb221258042)
REM AIRSS Version 0.9.1 bugfix July 2018 build 013d7b7c2542+ Fri, 06 Jul 2018 19:26:36 +0100
REM compiler GCC version 9.2.1 20190827 (Red Hat 9.2.1-1)
REM options -cpp -mtune=generic -march=x86-64 -g -O0 -fpre-include=/usr/include/finclude/math-vector-fortran.h
REM seed 417190750 478615352 -419644427 2011590210 1117908551 -1172516947 1812202046 1075748748 1532904896 -1153261040 1987756436 -870256160 -1269161695 -282884386 182948929 -1726130486 -1544435238 -1305932949 -1619958174 123811507 -169197321 1785663159 -1347333295 -1272443471 -2076814741 -2043182860 -1590078396 -1164986466 1661604758 -832691057 -936661992 -1166329622 -976548046
REM
CELL 1.54180   15.00000   15.00000   15.00000   90.00000   90.00000   90.00000
LATT -1
SFAC C  
C      1  0.6065130000000  0.4228060000000  0.6728600000000 1.0
C      1  0.5070430000000  0.6507120000000  0.6857620000000 1.0
C      1  0.3739470000000  0.4574640000000  0.6801210000000 1.0
C      1  0.5824810000000  0.4043510000000  0.3171080000000 1.0
C      1  0.5182580000000  0.6302840000000  0.3321210000000 1.0
C      1  0.3563870000000  0.4473630000000  0.3366430000000 1.0
C      1  0.5882360000000  0.5967510000000  0.6884110000000 1.0
C      1  0.5243200000000  0.3677710000000  0.6753010000000 1.0
C      1  0.3680750000000  0.5525590000000  0.6786650000000 1.0
C      1  0.6016760000000  0.5770060000000  0.3320820000000 1.0
C      1  0.5006810000000  0.3513750000000  0.3221020000000 1.0
C      1  0.3620260000000  0.5421860000000  0.3335870000000 1.0
C      1  0.5221930000000  0.7517040000000  0.4554860000000 1.0
C      1  0.3091930000000  0.3639110000000  0.4633730000000 1.0
C      1  0.6858600000000  0.3818600000000  0.4333070000000 1.0
C      1  0.5149330000000  0.7605610000000  0.5565360000000 1.0
C      1  0.3150340000000  0.3723690000000  0.5575120000000 1.0
C      1  0.6989470000000  0.3884290000000  0.5312670000000 1.0
C      1  0.5149680000000  0.2392130000000  0.4521180000000 1.0
C      1  0.3130920000000  0.6340950000000  0.4535160000000 1.0
C      1  0.6980140000000  0.6117530000000  0.4710370000000 1.0
C      1  0.5223480000000  0.2484270000000  0.5531700000000 1.0
C      1  0.3123690000000  0.6282040000000  0.5483260000000 1.0
C      1  0.6884750000000  0.6186490000000  0.5694950000000 1.0
C      1  0.5486190000000  0.2824970000000  0.3772480000000 1.0
C      1  0.6422940000000  0.6386100000000  0.3983860000000 1.0
C      1  0.2858770000000  0.5650890000000  0.3972670000000 1.0
C      1  0.5672350000000  0.3039940000000  0.6125060000000 1.0
C      1  0.6333110000000  0.6641780000000  0.6302610000000 1.0
C      1  0.3012320000000  0.5493310000000  0.6015710000000 1.0
C      1  0.5632340000000  0.6948640000000  0.3944000000000 1.0
C      1  0.6286520000000  0.3368830000000  0.3740090000000 1.0
C      1  0.2825920000000  0.4320790000000  0.4047980000000 1.0
C      1  0.5530640000000  0.7190330000000  0.6298830000000 1.0
C      1  0.6457560000000  0.3611560000000  0.6054290000000 1.0
C      1  0.3034530000000  0.4532900000000  0.6052500000000 1.0
C      1  0.3829180000000  0.6761320000000  0.4052980000000 1.0
C      1  0.4190200000000  0.2519760000000  0.4611990000000 1.0
C      1  0.7310680000000  0.5240790000000  0.4587810000000 1.0
C      1  0.3743530000000  0.6823830000000  0.5969270000000 1.0
C      1  0.4262610000000  0.2587510000000  0.5578600000000 1.0
C      1  0.7031010000000  0.5330810000000  0.6103600000000 1.0
C      1  0.3727530000000  0.3152720000000  0.4134860000000 1.0
C      1  0.4258670000000  0.7417870000000  0.4519630000000 1.0
C      1  0.6994870000000  0.4672210000000  0.3923360000000 1.0
C      1  0.3839920000000  0.3247320000000  0.6053070000000 1.0
C      1  0.4192390000000  0.7468340000000  0.5488180000000 1.0
C      1  0.7324560000000  0.4761430000000  0.5428070000000 1.0
C      1  0.4292030000000  0.3786560000000  0.6754310000000 1.0
C      1  0.6350570000000  0.5127020000000  0.6780270000000 1.0
C      1  0.6304980000000  0.4876740000000  0.3260380000000 1.0
C      1  0.4233490000000  0.6178400000000  0.3360000000000 1.0
C      1  0.4147280000000  0.6351950000000  0.6736410000000 1.0
C      1  0.4089480000000  0.3672580000000  0.3379000000000 1.0
C      1  0.6608470000000  0.7759430000000  0.5338110000000 1.0
C      1  0.2229590000000  0.5004180000000  0.4166920000000 1.0
C      1  0.6591790000000  0.2240720000000  0.4689840000000 1.0
C      1  0.5516200000000  0.5004730000000  0.5012780000000 1.0
C      1  0.4764050000000  0.4560070000000  0.5007040000000 1.0
C      1  0.4763030000000  0.5445650000000  0.5085970000000 1.0
END
