TITL C-3701779-4465-156 -0.00304769281145408 3375 -408.31764477457 0 0 60 (Cs) n - 1
REM
REM in /scratch/bkarasulu/791
REM
REM
REM
REM
REM
REM ./C.cell (830fe4e9c99271719e6d0bb221258042)
REM AIRSS Version 0.9.1 bugfix July 2018 build 013d7b7c2542+ Fri, 06 Jul 2018 19:26:36 +0100
REM compiler GCC version 9.2.1 20190827 (Red Hat 9.2.1-1)
REM options -cpp -mtune=generic -march=x86-64 -g -O0 -fpre-include=/usr/include/finclude/math-vector-fortran.h
REM seed 613636701 2063458885 -1464662899 701255937 997276133 -1351138941 -168494361 1093746002 1060859671 -12280806 -300427108 -547887710 452141540 1185835423 719104579 -139758825 -1205673678 -133835334 -1141865672 -788926570 1243239174 -1383366933 -1112448456 956823838 -1476713137 -1724314548 1489179472 -335837062 -181938440 644634953 -2029233931 -1955252356 343249601
REM
CELL 1.54180   15.00000   15.00000   15.00000   90.00000   90.00000   90.00000
LATT -1
SFAC C  
C      1  0.3224130000000  0.4649040000000  0.3181270000000 1.0
C      1  0.3686090000000  0.6073200000000  0.3154980000000 1.0
C      1  0.5104280000000  0.6590730000000  0.3120200000000 1.0
C      1  0.6594820000000  0.6060690000000  0.3255630000000 1.0
C      1  0.6561600000000  0.4478960000000  0.3121420000000 1.0
C      1  0.5574560000000  0.3336680000000  0.3156560000000 1.0
C      1  0.4079130000000  0.3410090000000  0.3181990000000 1.0
C      1  0.5131290000000  0.6678850000000  0.6881730000000 1.0
C      1  0.6420520000000  0.5942500000000  0.6867530000000 1.0
C      1  0.6651540000000  0.4475890000000  0.6883010000000 1.0
C      1  0.5656700000000  0.3384550000000  0.6909680000000 1.0
C      1  0.4178370000000  0.3493460000000  0.6943490000000 1.0
C      1  0.3335240000000  0.4715200000000  0.6942780000000 1.0
C      1  0.3757980000000  0.6135960000000  0.6908080000000 1.0
C      1  0.5015590000000  0.5985860000000  0.2347430000000 1.0
C      1  0.6564080000000  0.6038960000000  0.2361600000000 1.0
C      1  0.5965040000000  0.4610040000000  0.2348230000000 1.0
C      1  0.5320890000000  0.3914990000000  0.2398400000000 1.0
C      1  0.4372610000000  0.3949580000000  0.2400660000000 1.0
C      1  0.3833080000000  0.4731410000000  0.2400210000000 1.0
C      1  0.4137180000000  0.5630260000000  0.2397410000000 1.0
C      1  0.6299760000000  0.3809400000000  0.7379230000000 1.0
C      1  0.4915890000000  0.3266390000000  0.7410090000000 1.0
C      1  0.3622470000000  0.4011910000000  0.7428410000000 1.0
C      1  0.3384390000000  0.5485670000000  0.7408810000000 1.0
C      1  0.4383080000000  0.6586820000000  0.7377620000000 1.0
C      1  0.5872220000000  0.6470360000000  0.7350910000000 1.0
C      1  0.6719250000000  0.5242960000000  0.7351630000000 1.0
C      1  0.4827000000000  0.3172830000000  0.3708520000000 1.0
C      1  0.3503540000000  0.3927680000000  0.3720560000000 1.0
C      1  0.3267370000000  0.5432850000000  0.3707210000000 1.0
C      1  0.4333490000000  0.6519830000000  0.3665860000000 1.0
C      1  0.5852850000000  0.6479770000000  0.3688460000000 1.0
C      1  0.6723160000000  0.5218640000000  0.3689190000000 1.0
C      1  0.6221550000000  0.3783900000000  0.3667450000000 1.0
C      1  0.5708020000000  0.3190550000000  0.5926070000000 1.0
C      1  0.4057320000000  0.3305700000000  0.5965160000000 1.0
C      1  0.3117280000000  0.4667880000000  0.5964370000000 1.0
C      1  0.3595340000000  0.6252010000000  0.5924290000000 1.0
C      1  0.5129100000000  0.6860710000000  0.5893650000000 1.0
C      1  0.6565630000000  0.6042070000000  0.5882140000000 1.0
C      1  0.6821320000000  0.4408550000000  0.5895080000000 1.0
C      1  0.5614210000000  0.6068910000000  0.4565790000000 1.0
C      1  0.6253880000000  0.5141980000000  0.4566330000000 1.0
C      1  0.5925900000000  0.4080020000000  0.4580570000000 1.0
C      1  0.4877140000000  0.3651400000000  0.4610660000000 1.0
C      1  0.3901790000000  0.4203030000000  0.4622280000000 1.0
C      1  0.3732110000000  0.5310640000000  0.4609700000000 1.0
C      1  0.4504960000000  0.6139070000000  0.4579370000000 1.0
C      1  0.4868280000000  0.3192430000000  0.5485720000000 1.0
C      1  0.3534410000000  0.3950020000000  0.5506190000000 1.0
C      1  0.3299380000000  0.5465880000000  0.5484400000000 1.0
C      1  0.4336890000000  0.6595580000000  0.5444750000000 1.0
C      1  0.5863830000000  0.6488220000000  0.5429100000000 1.0
C      1  0.6734010000000  0.5227270000000  0.5429830000000 1.0
C      1  0.6292610000000  0.3761590000000  0.5446390000000 1.0
C      1  0.5039540000000  0.4990170000000  0.8050680000000 1.0
C      1  0.5003870000000  0.4964450000000  0.6127040000000 1.0
C      1  0.5829640000000  0.5531990000000  0.2113320000000 1.0
C      1  0.4988880000000  0.4953610000000  0.5285030000000 1.0
END
