TITL C-3701779-4465-23 -0.00189449222329707 3375 -421.460237585963 0 0 60 (C2h) n - 1
REM
REM in /scratch/bkarasulu/791
REM
REM
REM
REM
REM
REM ./C.cell (830fe4e9c99271719e6d0bb221258042)
REM AIRSS Version 0.9.1 bugfix July 2018 build 013d7b7c2542+ Fri, 06 Jul 2018 19:26:36 +0100
REM compiler GCC version 9.2.1 20190827 (Red Hat 9.2.1-1)
REM options -cpp -mtune=generic -march=x86-64 -g -O0 -fpre-include=/usr/include/finclude/math-vector-fortran.h
REM seed -1880575325 1653431666 1198237698 -1386780496 -1620473147 1796287405 837055718 -1003153663 2043446645 -1544714210 -2088231187 -1349378303 -739114944 -1427027740 -2142563270 -1424027347 2085961641 2092828002 -1828652843 1268487879 2086811683 609526282 1579804752 -592453702 1805683091 -1031318616 -273742383 2009816333 1983702040 220261576 1252354098 -1817279056 -381938455
REM
CELL 1.54180   15.00000   15.00000   15.00000   90.00000   90.00000   90.00000
LATT -1
SFAC C  
C      1  0.5487910000000  0.3359440000000  0.6187770000000 1.0
C      1  0.5487910000000  0.6640560000000  0.3812230000000 1.0
C      1  0.4512090000000  0.3359440000000  0.6187770000000 1.0
C      1  0.4512090000000  0.6640560000000  0.3812230000000 1.0
C      1  0.5962280000000  0.6945150000000  0.6098600000000 1.0
C      1  0.5962280000000  0.3054850000000  0.3901400000000 1.0
C      1  0.4037720000000  0.6945150000000  0.6098600000000 1.0
C      1  0.4037720000000  0.3054850000000  0.3901400000000 1.0
C      1  0.4497580000000  0.5640310000000  0.7059310000000 1.0
C      1  0.4497580000000  0.4359690000000  0.2940690000000 1.0
C      1  0.5502420000000  0.5640310000000  0.7059310000000 1.0
C      1  0.5502420000000  0.4359690000000  0.2940690000000 1.0
C      1  0.4505360000000  0.5654670000000  0.5293940000000 1.0
C      1  0.4505360000000  0.4345330000000  0.4706060000000 1.0
C      1  0.5494640000000  0.5654670000000  0.5293940000000 1.0
C      1  0.5494640000000  0.4345330000000  0.4706060000000 1.0
C      1  0.5468810000000  0.2672790000000  0.4646170000000 1.0
C      1  0.5468810000000  0.7327210000000  0.5353830000000 1.0
C      1  0.4531190000000  0.2672790000000  0.4646170000000 1.0
C      1  0.4531190000000  0.7327210000000  0.5353830000000 1.0
C      1  0.7159920000000  0.5079740000000  0.4536650000000 1.0
C      1  0.7159920000000  0.4920260000000  0.5463350000000 1.0
C      1  0.2840080000000  0.5079740000000  0.4536650000000 1.0
C      1  0.2840080000000  0.4920260000000  0.5463350000000 1.0
C      1  0.6720970000000  0.3394310000000  0.5155190000000 1.0
C      1  0.6720970000000  0.6605690000000  0.4844810000000 1.0
C      1  0.3279030000000  0.3394310000000  0.5155190000000 1.0
C      1  0.3279030000000  0.6605690000000  0.4844810000000 1.0
C      1  0.3280070000000  0.6451610000000  0.5780680000000 1.0
C      1  0.3280070000000  0.3548390000000  0.4219320000000 1.0
C      1  0.6719930000000  0.6451610000000  0.5780680000000 1.0
C      1  0.6719930000000  0.3548390000000  0.4219320000000 1.0
C      1  0.5485850000000  0.6571820000000  0.6790400000000 1.0
C      1  0.5485850000000  0.3428180000000  0.3209600000000 1.0
C      1  0.4514150000000  0.6571820000000  0.6790400000000 1.0
C      1  0.4514150000000  0.3428180000000  0.3209600000000 1.0
C      1  0.5500650000000  0.5302470000000  0.4352330000000 1.0
C      1  0.5500650000000  0.4697530000000  0.5647670000000 1.0
C      1  0.4499350000000  0.5302470000000  0.4352330000000 1.0
C      1  0.4499350000000  0.4697530000000  0.5647670000000 1.0
C      1  0.4088140000000  0.2944200000000  0.5440180000000 1.0
C      1  0.4088140000000  0.7055800000000  0.4559820000000 1.0
C      1  0.5911860000000  0.2944200000000  0.5440180000000 1.0
C      1  0.5911860000000  0.7055800000000  0.4559820000000 1.0
C      1  0.6843100000000  0.5564740000000  0.6098450000000 1.0
C      1  0.6843100000000  0.4435260000000  0.3901550000000 1.0
C      1  0.3156900000000  0.5564740000000  0.6098450000000 1.0
C      1  0.3156900000000  0.4435260000000  0.3901550000000 1.0
C      1  0.3808600000000  0.4892500000000  0.3298980000000 1.0
C      1  0.3808600000000  0.5107500000000  0.6701020000000 1.0
C      1  0.6191400000000  0.4892500000000  0.3298980000000 1.0
C      1  0.6191400000000  0.5107500000000  0.6701020000000 1.0
C      1  0.3111760000000  0.5935910000000  0.4244610000000 1.0
C      1  0.3111760000000  0.4064090000000  0.5755390000000 1.0
C      1  0.6888240000000  0.5935910000000  0.4244610000000 1.0
C      1  0.6888240000000  0.4064090000000  0.5755390000000 1.0
C      1  0.6096610000000  0.5816630000000  0.3668360000000 1.0
C      1  0.6096610000000  0.4183370000000  0.6331640000000 1.0
C      1  0.3903390000000  0.5816630000000  0.3668360000000 1.0
C      1  0.3903390000000  0.4183370000000  0.6331640000000 1.0
END
