TITL C-3701779-4465-159 -0.00278759956576165 3375 -401.518710037517 0 0 60 (C3i) n - 1
REM
REM in /scratch/bkarasulu/791
REM
REM
REM
REM
REM
REM ./C.cell (830fe4e9c99271719e6d0bb221258042)
REM AIRSS Version 0.9.1 bugfix July 2018 build 013d7b7c2542+ Fri, 06 Jul 2018 19:26:36 +0100
REM compiler GCC version 9.2.1 20190827 (Red Hat 9.2.1-1)
REM options -cpp -mtune=generic -march=x86-64 -g -O0 -fpre-include=/usr/include/finclude/math-vector-fortran.h
REM seed 673771896 593360773 477426451 1871748163 940735848 -512244170 1622991187 -19492378 -533039818 -885725586 291217027 -1115474335 1843956020 1120592333 -699862308 968496481 -2025346832 1506791816 563361210 -407591252 -1885775352 -309210057 -868106898 -196007827 -1178210404 -1517070265 -767945556 -440987771 -1319914772 377240122 -109021514 -494372730 173603455
REM
CELL 1.54180   15.00000   15.00000   15.00000   90.00000   90.00000   90.00000
LATT -1
SFAC C  
C      1  0.3841570000000  0.3477500000000  0.5897560000000 1.0
C      1  0.3841580000000  0.4983990000000  0.3232640000000 1.0
C      1  0.3841590000000  0.6538580000000  0.5869780000000 1.0
C      1  0.6158430000000  0.6522500000000  0.5897560000000 1.0
C      1  0.6158420000000  0.5016010000000  0.3232640000000 1.0
C      1  0.6158410000000  0.3461420000000  0.5869780000000 1.0
C      1  0.6158430000000  0.6522500000000  0.4102440000000 1.0
C      1  0.6158420000000  0.5016010000000  0.6767360000000 1.0
C      1  0.6158410000000  0.3461420000000  0.4130220000000 1.0
C      1  0.3841570000000  0.3477500000000  0.4102440000000 1.0
C      1  0.3841580000000  0.4983990000000  0.6767360000000 1.0
C      1  0.3841590000000  0.6538580000000  0.4130220000000 1.0
C      1  0.2315250000000  0.6434960000000  0.5420750000000 1.0
C      1  0.2315240000000  0.3918230000000  0.6032330000000 1.0
C      1  0.2315210000000  0.4646950000000  0.3546840000000 1.0
C      1  0.7684750000000  0.3565040000000  0.5420750000000 1.0
C      1  0.7684760000000  0.6081770000000  0.6032330000000 1.0
C      1  0.7684790000000  0.5353050000000  0.3546840000000 1.0
C      1  0.7684750000000  0.3565040000000  0.4579250000000 1.0
C      1  0.7684760000000  0.6081770000000  0.3967670000000 1.0
C      1  0.7684790000000  0.5353050000000  0.6453160000000 1.0
C      1  0.2315250000000  0.6434960000000  0.4579250000000 1.0
C      1  0.2315240000000  0.3918230000000  0.3967670000000 1.0
C      1  0.2315210000000  0.4646950000000  0.6453160000000 1.0
C      1  0.7005890000000  0.4665610000000  0.3460780000000 1.0
C      1  0.7005910000000  0.6500080000000  0.5480030000000 1.0
C      1  0.7005880000000  0.3834190000000  0.6059160000000 1.0
C      1  0.2994110000000  0.5334390000000  0.3460780000000 1.0
C      1  0.2994090000000  0.3499920000000  0.5480030000000 1.0
C      1  0.2994120000000  0.6165810000000  0.6059160000000 1.0
C      1  0.2994110000000  0.5334390000000  0.6539220000000 1.0
C      1  0.2994090000000  0.3499920000000  0.4519970000000 1.0
C      1  0.2994120000000  0.6165810000000  0.3940840000000 1.0
C      1  0.7005890000000  0.4665610000000  0.6539220000000 1.0
C      1  0.7005910000000  0.6500080000000  0.4519970000000 1.0
C      1  0.7005880000000  0.3834190000000  0.3940840000000 1.0
C      1  0.4485380000000  0.5887630000000  0.4456290000000 1.0
C      1  0.4485380000000  0.5027050000000  0.6040590000000 1.0
C      1  0.4485380000000  0.4085330000000  0.4503140000000 1.0
C      1  0.5514620000000  0.4112370000000  0.4456290000000 1.0
C      1  0.5514620000000  0.4972950000000  0.6040590000000 1.0
C      1  0.5514620000000  0.5914670000000  0.4503140000000 1.0
C      1  0.5514620000000  0.4112370000000  0.5543710000000 1.0
C      1  0.5514620000000  0.4972950000000  0.3959410000000 1.0
C      1  0.5514620000000  0.5914670000000  0.5496860000000 1.0
C      1  0.4485380000000  0.5887630000000  0.5543710000000 1.0
C      1  0.4485380000000  0.5027050000000  0.3959410000000 1.0
C      1  0.4485380000000  0.4085330000000  0.5496860000000 1.0
C      1  0.3879210000000  0.3444210000000  0.3149890000000 1.0
C      1  0.3879260000000  0.7380180000000  0.4577660000000 1.0
C      1  0.3879220000000  0.4175700000000  0.7272510000000 1.0
C      1  0.6120790000000  0.6555790000000  0.3149890000000 1.0
C      1  0.6120740000000  0.2619820000000  0.4577660000000 1.0
C      1  0.6120780000000  0.5824300000000  0.7272510000000 1.0
C      1  0.6120790000000  0.6555790000000  0.6850110000000 1.0
C      1  0.6120740000000  0.2619820000000  0.5422340000000 1.0
C      1  0.6120780000000  0.5824300000000  0.2727490000000 1.0
C      1  0.3879210000000  0.3444210000000  0.6850110000000 1.0
C      1  0.3879260000000  0.7380180000000  0.5422340000000 1.0
C      1  0.3879220000000  0.4175700000000  0.2727490000000 1.0
END
