TITL C-3701779-4465-213 -0.00159205559559273 3375 -400.621693384132 0 0 60 (C1) n - 1
REM
REM in /scratch/bkarasulu/791
REM
REM
REM
REM
REM
REM ./C.cell (830fe4e9c99271719e6d0bb221258042)
REM AIRSS Version 0.9.1 bugfix July 2018 build 013d7b7c2542+ Fri, 06 Jul 2018 19:26:36 +0100
REM compiler GCC version 9.2.1 20190827 (Red Hat 9.2.1-1)
REM options -cpp -mtune=generic -march=x86-64 -g -O0 -fpre-include=/usr/include/finclude/math-vector-fortran.h
REM seed -649253549 307344987 -345351062 -1594141916 -1437096526 756837495 -741043177 38236962 -1236666646 -235255516 -1908187574 -416924521 -1048252039 367347147 -1963284760 1652606748 454431579 658080639 -1851161600 -1883368926 118395659 -1539285096 -1176617196 -701383346 817530509 1361930467 2052609699 1262045483 -1534649626 144332286 -504866082 -21626008 132728240
REM
CELL 1.54180   15.00000   15.00000   15.00000   90.00000   90.00000   90.00000
LATT -1
SFAC C  
C      1  0.4072680000000  0.3082700000000  0.4054780000000 1.0
C      1  0.3994750000000  0.2879180000000  0.5905750000000 1.0
C      1  0.3900180000000  0.4269150000000  0.7266230000000 1.0
C      1  0.3877270000000  0.6263130000000  0.6962310000000 1.0
C      1  0.4305670000000  0.6738560000000  0.5460710000000 1.0
C      1  0.3988240000000  0.6692170000000  0.3556280000000 1.0
C      1  0.4163620000000  0.4145300000000  0.2608990000000 1.0
C      1  0.5437270000000  0.3623540000000  0.3747590000000 1.0
C      1  0.5560120000000  0.3232470000000  0.5504650000000 1.0
C      1  0.5455010000000  0.4316740000000  0.6796390000000 1.0
C      1  0.5457330000000  0.6116780000000  0.6568150000000 1.0
C      1  0.5814240000000  0.7143640000000  0.5251020000000 1.0
C      1  0.5569610000000  0.6610950000000  0.3663810000000 1.0
C      1  0.5486000000000  0.5079370000000  0.2895120000000 1.0
C      1  0.3771530000000  0.3902300000000  0.3524900000000 1.0
C      1  0.3969140000000  0.3384510000000  0.5000420000000 1.0
C      1  0.3647940000000  0.3766100000000  0.6456660000000 1.0
C      1  0.3593260000000  0.5253740000000  0.6887950000000 1.0
C      1  0.3537100000000  0.6572490000000  0.6095200000000 1.0
C      1  0.4069280000000  0.6410510000000  0.4542710000000 1.0
C      1  0.3790430000000  0.5714360000000  0.3290140000000 1.0
C      1  0.3303260000000  0.4151540000000  0.4994930000000 1.0
C      1  0.2982560000000  0.4252160000000  0.5899590000000 1.0
C      1  0.2863080000000  0.5150160000000  0.6273630000000 1.0
C      1  0.2955790000000  0.5938930000000  0.5686970000000 1.0
C      1  0.3371030000000  0.5748690000000  0.4767040000000 1.0
C      1  0.3168050000000  0.5325960000000  0.3897900000000 1.0
C      1  0.3115610000000  0.4390110000000  0.4031310000000 1.0
C      1  0.4662900000000  0.4395420000000  0.3891090000000 1.0
C      1  0.4810540000000  0.3873820000000  0.5356700000000 1.0
C      1  0.4607100000000  0.4299500000000  0.6191080000000 1.0
C      1  0.4228510000000  0.5169160000000  0.6060740000000 1.0
C      1  0.4851420000000  0.5859260000000  0.5806160000000 1.0
C      1  0.4962470000000  0.5941590000000  0.4226580000000 1.0
C      1  0.4700630000000  0.5294910000000  0.3508940000000 1.0
C      1  0.4964420000000  0.7381610000000  0.5337480000000 1.0
C      1  0.4789430000000  0.7047100000000  0.3305170000000 1.0
C      1  0.4809360000000  0.4605040000000  0.2268040000000 1.0
C      1  0.4812820000000  0.2941670000000  0.3527070000000 1.0
C      1  0.4860660000000  0.2585000000000  0.5907930000000 1.0
C      1  0.4788170000000  0.4109120000000  0.7479230000000 1.0
C      1  0.4748560000000  0.6512100000000  0.7113220000000 1.0
C      1  0.5918870000000  0.5216090000000  0.6713820000000 1.0
C      1  0.6136310000000  0.6605100000000  0.5969820000000 1.0
C      1  0.6199620000000  0.6887820000000  0.4411000000000 1.0
C      1  0.6072050000000  0.5845540000000  0.3185530000000 1.0
C      1  0.5990220000000  0.4292780000000  0.3279760000000 1.0
C      1  0.5969390000000  0.3369220000000  0.4565440000000 1.0
C      1  0.6051770000000  0.3739070000000  0.6213960000000 1.0
C      1  0.6750230000000  0.6140230000000  0.4606290000000 1.0
C      1  0.6701110000000  0.5527600000000  0.3829720000000 1.0
C      1  0.6705450000000  0.4545200000000  0.3813420000000 1.0
C      1  0.6768510000000  0.3872370000000  0.4563590000000 1.0
C      1  0.6806480000000  0.4221190000000  0.5942270000000 1.0
C      1  0.6658730000000  0.5172190000000  0.6165130000000 1.0
C      1  0.6722260000000  0.5980180000000  0.5597760000000 1.0
C      1  0.3857190000000  0.4961850000000  0.5132360000000 1.0
C      1  0.5262560000000  0.5463540000000  0.5008560000000 1.0
C      1  0.4770670000000  0.4672280000000  0.4811490000000 1.0
C      1  0.7353300000000  0.3859570000000  0.5287060000000 1.0
END
