TITL C-3701779-4465-180 -0.00271815434924627 3375 -385.093662378174 0 0 60 (C2) n - 1
REM
REM in /scratch/bkarasulu/791
REM
REM
REM
REM
REM
REM ./C.cell (830fe4e9c99271719e6d0bb221258042)
REM AIRSS Version 0.9.1 bugfix July 2018 build 013d7b7c2542+ Fri, 06 Jul 2018 19:26:36 +0100
REM compiler GCC version 9.2.1 20190827 (Red Hat 9.2.1-1)
REM options -cpp -mtune=generic -march=x86-64 -g -O0 -fpre-include=/usr/include/finclude/math-vector-fortran.h
REM seed -1532352271 1372825311 -937236997 -965440982 -1186898049 -1691971768 -727115388 -200237335 972434778 -952720099 1636459378 218466361 -1277070830 168121732 258314521 1213451818 -2124177710 -2133730504 546053193 778919798 -858415685 -595312551 -1425727296 218040720 1638822604 1807780985 12334801 -217903859 -1676517467 -128487062 -1385002509 -1585322870 -450638260
REM
CELL 1.54180   15.00000   15.00000   15.00000   90.00000   90.00000   90.00000
LATT -1
SFAC C  
C      1  0.6883840000000  0.3034410000000  0.5062810000000 1.0
C      1  0.3704360000000  0.2612310000000  0.5092930000000 1.0
C      1  0.2315120000000  0.5491270000000  0.4991480000000 1.0
C      1  0.4633680000000  0.7687430000000  0.4910870000000 1.0
C      1  0.7461150000000  0.6174210000000  0.4937070000000 1.0
C      1  0.6883840000000  0.6965580000000  0.4937180000000 1.0
C      1  0.3704350000000  0.7387690000000  0.4907070000000 1.0
C      1  0.2315120000000  0.4508730000000  0.5008540000000 1.0
C      1  0.4633690000000  0.2312570000000  0.5089140000000 1.0
C      1  0.7461140000000  0.3825790000000  0.5062900000000 1.0
C      1  0.3298830000000  0.6778030000000  0.4301510000000 1.0
C      1  0.6196520000000  0.7143530000000  0.4312820000000 1.0
C      1  0.7465600000000  0.4488600000000  0.4370020000000 1.0
C      1  0.5291920000000  0.2466000000000  0.4398440000000 1.0
C      1  0.2701200000000  0.3901270000000  0.4356550000000 1.0
C      1  0.3298840000000  0.3221970000000  0.5698490000000 1.0
C      1  0.6196530000000  0.2856470000000  0.5687170000000 1.0
C      1  0.7465610000000  0.5511400000000  0.5629970000000 1.0
C      1  0.5291920000000  0.7534000000000  0.5601560000000 1.0
C      1  0.2701210000000  0.6098730000000  0.5643450000000 1.0
C      1  0.7463880000000  0.5438750000000  0.4319950000000 1.0
C      1  0.6242540000000  0.2767950000000  0.4383650000000 1.0
C      1  0.3278970000000  0.3122120000000  0.4394390000000 1.0
C      1  0.2745180000000  0.6024500000000  0.4331540000000 1.0
C      1  0.5311410000000  0.7428130000000  0.4306320000000 1.0
C      1  0.7463890000000  0.4561250000000  0.5680040000000 1.0
C      1  0.6242550000000  0.7232040000000  0.5616340000000 1.0
C      1  0.3278980000000  0.6877880000000  0.5605620000000 1.0
C      1  0.2745180000000  0.3975510000000  0.5668460000000 1.0
C      1  0.5311410000000  0.2571870000000  0.5693680000000 1.0
C      1  0.5257730000000  0.4250330000000  0.5992620000000 1.0
C      1  0.4320600000000  0.4550350000000  0.6027450000000 1.0
C      1  0.4302050000000  0.5542240000000  0.6171850000000 1.0
C      1  0.5268680000000  0.5856880000000  0.6205130000000 1.0
C      1  0.5851710000000  0.5037330000000  0.6103870000000 1.0
C      1  0.5257720000000  0.5749670000000  0.4007380000000 1.0
C      1  0.4320590000000  0.5449650000000  0.3972530000000 1.0
C      1  0.4302040000000  0.4457760000000  0.3828140000000 1.0
C      1  0.5268680000000  0.4143120000000  0.3794870000000 1.0
C      1  0.5851700000000  0.4962670000000  0.3896150000000 1.0
C      1  0.5844690000000  0.5096570000000  0.2886640000000 1.0
C      1  0.5265100000000  0.4309560000000  0.2774450000000 1.0
C      1  0.4327590000000  0.4614150000000  0.2812120000000 1.0
C      1  0.4295820000000  0.5592750000000  0.2962250000000 1.0
C      1  0.5267860000000  0.5909270000000  0.2991060000000 1.0
C      1  0.5844670000000  0.4903430000000  0.7113390000000 1.0
C      1  0.5265080000000  0.5690440000000  0.7225560000000 1.0
C      1  0.4327580000000  0.5385850000000  0.7187870000000 1.0
C      1  0.4295800000000  0.4407250000000  0.7037740000000 1.0
C      1  0.5267840000000  0.4090720000000  0.7008950000000 1.0
C      1  0.6603970000000  0.4941920000000  0.4504180000000 1.0
C      1  0.5505600000000  0.3420990000000  0.4420060000000 1.0
C      1  0.3689210000000  0.4009150000000  0.4446710000000 1.0
C      1  0.3698220000000  0.5869130000000  0.4562320000000 1.0
C      1  0.5506970000000  0.6459880000000  0.4586420000000 1.0
C      1  0.6603980000000  0.5058080000000  0.5495840000000 1.0
C      1  0.5505610000000  0.6579010000000  0.5579940000000 1.0
C      1  0.3689220000000  0.5990850000000  0.5553280000000 1.0
C      1  0.3698230000000  0.4130870000000  0.5437670000000 1.0
C      1  0.5506980000000  0.3540130000000  0.5413580000000 1.0
END
