TITL C-3701779-4465-147 -0.00139206288801739 3375 -405.829486664478 0 0 60 (D2h) n - 1
REM
REM in /scratch/bkarasulu/791
REM
REM
REM
REM
REM
REM ./C.cell (830fe4e9c99271719e6d0bb221258042)
REM AIRSS Version 0.9.1 bugfix July 2018 build 013d7b7c2542+ Fri, 06 Jul 2018 19:26:36 +0100
REM compiler GCC version 9.2.1 20190827 (Red Hat 9.2.1-1)
REM options -cpp -mtune=generic -march=x86-64 -g -O0 -fpre-include=/usr/include/finclude/math-vector-fortran.h
REM seed -265474637 1370996930 1644459100 1520348172 1953684799 -1758218031 1562702449 -1687088483 -1340568855 -848476373 1504685430 493008402 -1066118578 1449805571 -1827763755 -522244764 -1745448179 -2056959453 731400942 -1107394086 816292071 -78721813 688083235 999614291 -56071446 237847443 530557740 -278070149 -1748636032 1060195226 -1590317684 -1562851507 720826183
REM
CELL 1.54180   15.00000   15.00000   15.00000   90.00000   90.00000   90.00000
LATT -1
SFAC C  
C      1  0.5922600000000  0.2813140000000  0.3776640000000 1.0
C      1  0.5922600000000  0.7186860000000  0.6223360000000 1.0
C      1  0.4077400000000  0.2813140000000  0.3776630000000 1.0
C      1  0.4077400000000  0.7186860000000  0.6223360000000 1.0
C      1  0.5922600000000  0.2813140000000  0.6223370000000 1.0
C      1  0.5922600000000  0.7186860000000  0.3776640000000 1.0
C      1  0.4077400000000  0.2813140000000  0.6223360000000 1.0
C      1  0.4077400000000  0.7186860000000  0.3776640000000 1.0
C      1  0.6326390000000  0.6889440000000  0.4506940000000 1.0
C      1  0.6326390000000  0.3110560000000  0.5493060000000 1.0
C      1  0.3673610000000  0.6889440000000  0.4506940000000 1.0
C      1  0.3673610000000  0.3110560000000  0.5493060000000 1.0
C      1  0.6326390000000  0.6889440000000  0.5493060000000 1.0
C      1  0.6326390000000  0.3110560000000  0.4506940000000 1.0
C      1  0.3673610000000  0.6889440000000  0.5493060000000 1.0
C      1  0.3673610000000  0.3110560000000  0.4506940000000 1.0
C      1  0.5522730000000  0.5498130000000  0.4499500000000 1.0
C      1  0.5522730000000  0.4501870000000  0.5500500000000 1.0
C      1  0.4477270000000  0.5498130000000  0.4499500000000 1.0
C      1  0.4477270000000  0.4501870000000  0.5500500000000 1.0
C      1  0.5522730000000  0.5498130000000  0.5500500000000 1.0
C      1  0.5522730000000  0.4501870000000  0.4499500000000 1.0
C      1  0.4477270000000  0.5498130000000  0.5500500000000 1.0
C      1  0.4477270000000  0.4501870000000  0.4499500000000 1.0
C      1  0.3350300000000  0.5475010000000  0.3622130000000 1.0
C      1  0.3350300000000  0.4524990000000  0.6377870000000 1.0
C      1  0.6649700000000  0.5475010000000  0.3622130000000 1.0
C      1  0.6649700000000  0.4524990000000  0.6377870000000 1.0
C      1  0.3350300000000  0.5475010000000  0.6377870000000 1.0
C      1  0.3350300000000  0.4524990000000  0.3622130000000 1.0
C      1  0.6649700000000  0.5475010000000  0.6377870000000 1.0
C      1  0.6649700000000  0.4524990000000  0.3622130000000 1.0
C      1  0.6541930000000  0.5920510000000  0.4479260000000 1.0
C      1  0.6541930000000  0.4079480000000  0.5520740000000 1.0
C      1  0.3458070000000  0.5920510000000  0.4479260000000 1.0
C      1  0.3458070000000  0.4079490000000  0.5520740000000 1.0
C      1  0.6541930000000  0.5920510000000  0.5520740000000 1.0
C      1  0.6541930000000  0.4079490000000  0.4479260000000 1.0
C      1  0.3458070000000  0.5920510000000  0.5520740000000 1.0
C      1  0.3458070000000  0.4079480000000  0.4479260000000 1.0
C      1  0.5954830000000  0.5775340000000  0.6988590000000 1.0
C      1  0.5954830000000  0.4224660000000  0.3011410000000 1.0
C      1  0.4045170000000  0.5775340000000  0.6988590000000 1.0
C      1  0.4045170000000  0.4224660000000  0.3011410000000 1.0
C      1  0.5954830000000  0.5775340000000  0.3011410000000 1.0
C      1  0.5954830000000  0.4224660000000  0.6988590000000 1.0
C      1  0.4045170000000  0.5775340000000  0.3011410000000 1.0
C      1  0.4045170000000  0.4224660000000  0.6988590000000 1.0
C      1  0.5487850000000  0.3410990000000  0.3195560000000 1.0
C      1  0.5487850000000  0.6589010000000  0.6804440000000 1.0
C      1  0.4512150000000  0.3410990000000  0.3195560000000 1.0
C      1  0.4512150000000  0.6589010000000  0.6804440000000 1.0
C      1  0.5487850000000  0.3410990000000  0.6804440000000 1.0
C      1  0.5487850000000  0.6589010000000  0.3195560000000 1.0
C      1  0.4512150000000  0.3410990000000  0.6804440000000 1.0
C      1  0.4512150000000  0.6589010000000  0.3195560000000 1.0
C      1  0.4523760000000  0.5000000000000  0.2709900000000 1.0
C      1  0.4523760000000  0.5000000000000  0.7290100000000 1.0
C      1  0.5476240000000  0.5000000000000  0.2709900000000 1.0
C      1  0.5476240000000  0.5000000000000  0.7290100000000 1.0
END
