TITL C-3701779-4465-69 -0.00197492861351073 3375 -410.681343383773 0 0 60 (Cs) n - 1
REM
REM in /scratch/bkarasulu/791
REM
REM
REM
REM
REM
REM ./C.cell (830fe4e9c99271719e6d0bb221258042)
REM AIRSS Version 0.9.1 bugfix July 2018 build 013d7b7c2542+ Fri, 06 Jul 2018 19:26:36 +0100
REM compiler GCC version 9.2.1 20190827 (Red Hat 9.2.1-1)
REM options -cpp -mtune=generic -march=x86-64 -g -O0 -fpre-include=/usr/include/finclude/math-vector-fortran.h
REM seed 61012007 -2139304691 -849621122 613357668 100044195 2018691462 1809645364 1756905698 -144988753 1845133989 -1150336390 2069289046 1422783054 829176909 799992556 -1026300590 1321376338 -1283502261 1267973975 1699298905 1533628705 -437831832 1828781949 2039365697 1740392696 -262506337 -57369945 -856452720 -1690655138 -1341311364 -1032601591 1669587648 1148805623
REM
CELL 1.54180   15.00000   15.00000   15.00000   90.00000   90.00000   90.00000
LATT -1
SFAC C  
C      1  0.4510780000000  0.3183440000000  0.4013650000000 1.0
C      1  0.4509900000000  0.6774550000000  0.3945330000000 1.0
C      1  0.4518120000000  0.5043320000000  0.6990490000000 1.0
C      1  0.5489220000000  0.3183440000000  0.4013650000000 1.0
C      1  0.5490100000000  0.6774550000000  0.3945330000000 1.0
C      1  0.5481880000000  0.5043320000000  0.6990490000000 1.0
C      1  0.4532800000000  0.5417120000000  0.2979710000000 1.0
C      1  0.4536410000000  0.6641610000000  0.6413900000000 1.0
C      1  0.4537610000000  0.2929180000000  0.5680300000000 1.0
C      1  0.5467200000000  0.5417120000000  0.2979710000000 1.0
C      1  0.5463590000000  0.6641610000000  0.6413900000000 1.0
C      1  0.5462390000000  0.2929180000000  0.5680300000000 1.0
C      1  0.6955480000000  0.6640170000000  0.4796370000000 1.0
C      1  0.6946040000000  0.4350470000000  0.6455460000000 1.0
C      1  0.6989530000000  0.4024280000000  0.3717310000000 1.0
C      1  0.3044520000000  0.6640170000000  0.4796370000000 1.0
C      1  0.3053960000000  0.4350470000000  0.6455460000000 1.0
C      1  0.3010470000000  0.4024280000000  0.3717310000000 1.0
C      1  0.6829240000000  0.3359230000000  0.5112000000000 1.0
C      1  0.6862320000000  0.5737560000000  0.3550860000000 1.0
C      1  0.6809810000000  0.5895200000000  0.6291340000000 1.0
C      1  0.3170760000000  0.3359230000000  0.5112000000000 1.0
C      1  0.3137680000000  0.5737560000000  0.3550860000000 1.0
C      1  0.3190190000000  0.5895200000000  0.6291340000000 1.0
C      1  0.2767030000000  0.5107930000000  0.6069400000000 1.0
C      1  0.2732340000000  0.3965510000000  0.4571580000000 1.0
C      1  0.2702790000000  0.5947780000000  0.4339140000000 1.0
C      1  0.7232970000000  0.5107930000000  0.6069400000000 1.0
C      1  0.7267660000000  0.3965510000000  0.4571580000000 1.0
C      1  0.7297210000000  0.5947780000000  0.4339140000000 1.0
C      1  0.4050960000000  0.2961510000000  0.4855080000000 1.0
C      1  0.4045900000000  0.6128230000000  0.3377250000000 1.0
C      1  0.4066850000000  0.5879300000000  0.6756180000000 1.0
C      1  0.5949040000000  0.2961510000000  0.4855080000000 1.0
C      1  0.5954100000000  0.6128230000000  0.3377250000000 1.0
C      1  0.5933160000000  0.5879300000000  0.6756180000000 1.0
C      1  0.5498310000000  0.4496540000000  0.5220560000000 1.0
C      1  0.6108540000000  0.4936000000000  0.4721420000000 1.0
C      1  0.5481870000000  0.5484100000000  0.5045800000000 1.0
C      1  0.4501690000000  0.4496540000000  0.5220560000000 1.0
C      1  0.3891460000000  0.4936000000000  0.4721420000000 1.0
C      1  0.4518130000000  0.5484100000000  0.5045800000000 1.0
C      1  0.5958480000000  0.3390170000000  0.6368300000000 1.0
C      1  0.5987810000000  0.4610070000000  0.3002120000000 1.0
C      1  0.5972880000000  0.7034500000000  0.5685990000000 1.0
C      1  0.4041520000000  0.3390170000000  0.6368300000000 1.0
C      1  0.4012190000000  0.4610070000000  0.3002120000000 1.0
C      1  0.4027120000000  0.7034500000000  0.5685990000000 1.0
C      1  0.3944460000000  0.3743880000000  0.3484590000000 1.0
C      1  0.3956590000000  0.7041050000000  0.4680280000000 1.0
C      1  0.3974450000000  0.4269900000000  0.6851290000000 1.0
C      1  0.6055540000000  0.3743880000000  0.3484590000000 1.0
C      1  0.6043410000000  0.7041050000000  0.4680280000000 1.0
C      1  0.6025550000000  0.4269900000000  0.6851290000000 1.0
C      1  0.3125840000000  0.4857290000000  0.3239560000000 1.0
C      1  0.3150000000000  0.6662580000000  0.5753620000000 1.0
C      1  0.3154900000000  0.3487520000000  0.6031150000000 1.0
C      1  0.6874160000000  0.4857290000000  0.3239560000000 1.0
C      1  0.6850000000000  0.6662580000000  0.5753620000000 1.0
C      1  0.6845100000000  0.3487520000000  0.6031150000000 1.0
END
