TITL C-3701779-4465-132 -0.00146029677325201 3375 -396.620509803707 0 0 60 (C5) n - 1
REM
REM in /scratch/bkarasulu/791
REM
REM
REM
REM
REM
REM ./C.cell (830fe4e9c99271719e6d0bb221258042)
REM AIRSS Version 0.9.1 bugfix July 2018 build 013d7b7c2542+ Fri, 06 Jul 2018 19:26:36 +0100
REM compiler GCC version 9.2.1 20190827 (Red Hat 9.2.1-1)
REM options -cpp -mtune=generic -march=x86-64 -g -O0 -fpre-include=/usr/include/finclude/math-vector-fortran.h
REM seed 1721391711 -469757247 -1312813682 -255792948 1230056600 1416126156 -515776085 1310627430 1115078368 -700952787 -275610617 431707533 -1366765725 -1802053801 -1665411963 -1469203401 1369525423 -1041229806 -592304386 2044196565 1034554542 -418040705 1623825415 -293028459 -245708254 -464548814 -1772978654 -843448664 -589435314 -273856523 -1529346999 -556472522 580013958
REM
CELL 1.54180   15.00000   15.00000   15.00000   90.00000   90.00000   90.00000
LATT -1
SFAC C  
C      1  0.5383940000000  0.3441740000000  0.3460580000000 1.0
C      1  0.5384080000000  0.3054400000000  0.6006250000000 1.0
C      1  0.5384330000000  0.5355790000000  0.7161280000000 1.0
C      1  0.5384360000000  0.7165450000000  0.5329450000000 1.0
C      1  0.5384110000000  0.5982480000000  0.3042300000000 1.0
C      1  0.6563950000000  0.4559790000000  0.6402310000000 1.0
C      1  0.6564040000000  0.6197650000000  0.5851820000000 1.0
C      1  0.6563920000000  0.6180240000000  0.4124010000000 1.0
C      1  0.6563760000000  0.4531620000000  0.3606630000000 1.0
C      1  0.6563780000000  0.3530110000000  0.5014710000000 1.0
C      1  0.4629840000000  0.4903800000000  0.7492400000000 1.0
C      1  0.4629920000000  0.7340670000000  0.5861720000000 1.0
C      1  0.4629680000000  0.6542850000000  0.3040250000000 1.0
C      1  0.4629420000000  0.3612930000000  0.2927110000000 1.0
C      1  0.4629560000000  0.2599900000000  0.5678650000000 1.0
C      1  0.4621030000000  0.6660680000000  0.6518720000000 1.0
C      1  0.4620880000000  0.6957580000000  0.3889970000000 1.0
C      1  0.4620600000000  0.4549220000000  0.2795250000000 1.0
C      1  0.4620620000000  0.2763840000000  0.4747450000000 1.0
C      1  0.4620880000000  0.4068830000000  0.7048720000000 1.0
C      1  0.5775580000000  0.4903340000000  0.4142190000000 1.0
C      1  0.5775570000000  0.4154310000000  0.4826760000000 1.0
C      1  0.5775670000000  0.4573920000000  0.5750670000000 1.0
C      1  0.5775740000000  0.5582270000000  0.5637100000000 1.0
C      1  0.5775680000000  0.5785860000000  0.4643020000000 1.0
C      1  0.3830880000000  0.6666970000000  0.3534540000000 1.0
C      1  0.3830620000000  0.4121380000000  0.2961900000000 1.0
C      1  0.3830690000000  0.2790110000000  0.5205950000000 1.0
C      1  0.3830960000000  0.4512990000000  0.7165510000000 1.0
C      1  0.3831070000000  0.6909000000000  0.6132490000000 1.0
C      1  0.5019850000000  0.3602730000000  0.4394330000000 1.0
C      1  0.5019990000000  0.3992210000000  0.6141720000000 1.0
C      1  0.5020140000000  0.5774410000000  0.6311270000000 1.0
C      1  0.5020090000000  0.6486400000000  0.4668700000000 1.0
C      1  0.5019890000000  0.5144230000000  0.3483960000000 1.0
C      1  0.3311630000000  0.5502800000000  0.6189860000000 1.0
C      1  0.3311610000000  0.6287000000000  0.4889690000000 1.0
C      1  0.3311450000000  0.5292780000000  0.3742130000000 1.0
C      1  0.3311380000000  0.3894140000000  0.4333060000000 1.0
C      1  0.3311510000000  0.4023930000000  0.5845850000000 1.0
C      1  0.6246280000000  0.5037280000000  0.7128830000000 1.0
C      1  0.6246340000000  0.7036160000000  0.5622240000000 1.0
C      1  0.6246120000000  0.6220980000000  0.3255640000000 1.0
C      1  0.6245920000000  0.3718360000000  0.3299530000000 1.0
C      1  0.6246030000000  0.2986750000000  0.5693320000000 1.0
C      1  0.4211780000000  0.5858190000000  0.4924630000000 1.0
C      1  0.4211670000000  0.5193510000000  0.4160610000000 1.0
C      1  0.4211630000000  0.4261480000000  0.4556670000000 1.0
C      1  0.4211710000000  0.4350140000000  0.5565470000000 1.0
C      1  0.4211800000000  0.5336970000000  0.5792880000000 1.0
C      1  0.3105460000000  0.6356720000000  0.5817730000000 1.0
C      1  0.3105320000000  0.6196940000000  0.3962610000000 1.0
C      1  0.3105140000000  0.4383240000000  0.3541310000000 1.0
C      1  0.3105190000000  0.3422070000000  0.5136050000000 1.0
C      1  0.3105380000000  0.4641760000000  0.6542960000000 1.0
C      1  0.7300330000000  0.5645230000000  0.4502720000000 1.0
C      1  0.7300230000000  0.4726470000000  0.4232410000000 1.0
C      1  0.7300250000000  0.4185480000000  0.5022670000000 1.0
C      1  0.7300350000000  0.4769890000000  0.5781390000000 1.0
C      1  0.7300390000000  0.5672060000000  0.5460040000000 1.0
END
