TITL C-3701779-4465-245 -0.00159179663927923 3375 -398.048356845551 0 0 60 (S4) n - 1
REM
REM in /scratch/bkarasulu/791
REM
REM
REM
REM
REM
REM ./C.cell (830fe4e9c99271719e6d0bb221258042)
REM AIRSS Version 0.9.1 bugfix July 2018 build 013d7b7c2542+ Fri, 06 Jul 2018 19:26:36 +0100
REM compiler GCC version 9.2.1 20190827 (Red Hat 9.2.1-1)
REM options -cpp -mtune=generic -march=x86-64 -g -O0 -fpre-include=/usr/include/finclude/math-vector-fortran.h
REM seed -1540889826 710351561 811344360 478159007 649108967 -471675743 718098077 2050675741 -2095118699 -1436746896 -1092022800 606907238 -1383436397 -57200046 -1982561663 -1346179308 -1195617787 1017039594 1714922135 -39179514 64358387 1455835571 1995758521 1184833670 -1159042703 -576986504 1185794262 -593541447 153797063 -1921754522 1805588063 1635461319 -1299789498
REM
CELL 1.54180   15.00000   15.00000   15.00000   90.00000   90.00000   90.00000
LATT -1
SFAC C  
C      1  0.5245420000000  0.4869700000000  0.2813780000000 1.0
C      1  0.4353330000000  0.5243470000000  0.2755900000000 1.0
C      1  0.3566650000000  0.5091900000000  0.3251520000000 1.0
C      1  0.2813780000000  0.5130300000000  0.4754580000000 1.0
C      1  0.2755900000000  0.4756530000000  0.5646670000000 1.0
C      1  0.3251520000000  0.4908100000000  0.6433350000000 1.0
C      1  0.4754580000000  0.4869700000000  0.7186220000000 1.0
C      1  0.5646670000000  0.5243470000000  0.7244100000000 1.0
C      1  0.6433350000000  0.5091900000000  0.6748480000000 1.0
C      1  0.7186220000000  0.5130300000000  0.5245420000000 1.0
C      1  0.7244100000000  0.4756530000000  0.4353330000000 1.0
C      1  0.6748480000000  0.4908100000000  0.3566650000000 1.0
C      1  0.4143310000000  0.5881150000000  0.3440790000000 1.0
C      1  0.3314670000000  0.4645070000000  0.4038900000000 1.0
C      1  0.3237770000000  0.5940240000000  0.4879970000000 1.0
C      1  0.3440790000000  0.4118850000000  0.5856690000000 1.0
C      1  0.4038900000000  0.5354930000000  0.6685330000000 1.0
C      1  0.4879970000000  0.4059760000000  0.6762230000000 1.0
C      1  0.5856690000000  0.5881150000000  0.6559210000000 1.0
C      1  0.6685330000000  0.4645070000000  0.5961100000000 1.0
C      1  0.6762230000000  0.5940240000000  0.5120030000000 1.0
C      1  0.6559210000000  0.4118850000000  0.4143310000000 1.0
C      1  0.5961100000000  0.5354930000000  0.3314670000000 1.0
C      1  0.5120030000000  0.4059760000000  0.3237770000000 1.0
C      1  0.3243570000000  0.6888320000000  0.4777470000000 1.0
C      1  0.3514810000000  0.3117210000000  0.5920890000000 1.0
C      1  0.4339220000000  0.6948480000000  0.5968740000000 1.0
C      1  0.4777470000000  0.3111680000000  0.6756430000000 1.0
C      1  0.5920890000000  0.6882780000000  0.6485190000000 1.0
C      1  0.5968740000000  0.3051520000000  0.5660780000000 1.0
C      1  0.6756430000000  0.6888320000000  0.5222530000000 1.0
C      1  0.6485190000000  0.3117210000000  0.4079110000000 1.0
C      1  0.5660780000000  0.6948480000000  0.4031260000000 1.0
C      1  0.5222530000000  0.3111680000000  0.3243570000000 1.0
C      1  0.4079110000000  0.6882790000000  0.3514810000000 1.0
C      1  0.4031260000000  0.3051520000000  0.4339220000000 1.0
C      1  0.3657660000000  0.2737550000000  0.5100690000000 1.0
C      1  0.3645660000000  0.7298100000000  0.5499350000000 1.0
C      1  0.3908660000000  0.2747780000000  0.6685870000000 1.0
C      1  0.5100690000000  0.7262450000000  0.6342340000000 1.0
C      1  0.5499350000000  0.2701900000000  0.6354340000000 1.0
C      1  0.6685870000000  0.7252210000000  0.6091340000000 1.0
C      1  0.6342340000000  0.2737550000000  0.4899310000000 1.0
C      1  0.6354340000000  0.7298100000000  0.4500650000000 1.0
C      1  0.6091340000000  0.2747790000000  0.3314130000000 1.0
C      1  0.4899310000000  0.7262450000000  0.3657660000000 1.0
C      1  0.4500650000000  0.2701900000000  0.3645660000000 1.0
C      1  0.3314130000000  0.7252220000000  0.3908660000000 1.0
C      1  0.5881720000000  0.5515410000000  0.4935720000000 1.0
C      1  0.5785170000000  0.4478710000000  0.4675560000000 1.0
C      1  0.5581670000000  0.5920570000000  0.4082360000000 1.0
C      1  0.4935720000000  0.4484590000000  0.4118280000000 1.0
C      1  0.4675560000000  0.5521290000000  0.4214830000000 1.0
C      1  0.4082360000000  0.4079430000000  0.4418330000000 1.0
C      1  0.4118280000000  0.5515410000000  0.5064280000000 1.0
C      1  0.4214830000000  0.4478710000000  0.5324440000000 1.0
C      1  0.4418330000000  0.5920570000000  0.5917640000000 1.0
C      1  0.5064280000000  0.4484590000000  0.5881720000000 1.0
C      1  0.5324440000000  0.5521290000000  0.5785170000000 1.0
C      1  0.5917640000000  0.4079430000000  0.5581670000000 1.0
END
