TITL C-3701779-4465-139 -0.00267605688599011 3375 -398.028674536255 0 0 60 (D2) n - 1
REM
REM in /scratch/bkarasulu/791
REM
REM
REM
REM
REM
REM ./C.cell (830fe4e9c99271719e6d0bb221258042)
REM AIRSS Version 0.9.1 bugfix July 2018 build 013d7b7c2542+ Fri, 06 Jul 2018 19:26:36 +0100
REM compiler GCC version 9.2.1 20190827 (Red Hat 9.2.1-1)
REM options -cpp -mtune=generic -march=x86-64 -g -O0 -fpre-include=/usr/include/finclude/math-vector-fortran.h
REM seed -865793484 1908740166 -351037349 1168359603 1560611599 -969708045 1114092014 798029002 1517660237 -1644870805 -633387121 -1885416376 -1997733067 1725703292 364549141 -751900716 925159800 205115492 347390039 -346776753 985261148 1583493481 1444781908 -836251609 -1701537107 -1517953763 -1983785120 -263742838 -397814637 -1085075352 -588587737 1476262770 419958165
REM
CELL 1.54180   15.00000   15.00000   15.00000   90.00000   90.00000   90.00000
LATT -1
SFAC C  
C      1  0.5874020000000  0.7562040000000  0.5480640000000 1.0
C      1  0.4126260000000  0.2438170000000  0.5482090000000 1.0
C      1  0.5921890000000  0.6917720000000  0.4818750000000 1.0
C      1  0.4077980000000  0.3082240000000  0.4819980000000 1.0
C      1  0.4077370000000  0.6917410000000  0.5180570000000 1.0
C      1  0.5922690000000  0.3082630000000  0.5180700000000 1.0
C      1  0.4125040000000  0.7561480000000  0.4518430000000 1.0
C      1  0.5874690000000  0.2438290000000  0.4518830000000 1.0
C      1  0.4490420000000  0.4566220000000  0.2474260000000 1.0
C      1  0.5508160000000  0.5432880000000  0.2473810000000 1.0
C      1  0.4565620000000  0.4492150000000  0.7520100000000 1.0
C      1  0.5435920000000  0.5508750000000  0.7519640000000 1.0
C      1  0.5434630000000  0.4491410000000  0.2480110000000 1.0
C      1  0.4563950000000  0.5507690000000  0.2480170000000 1.0
C      1  0.5509810000000  0.4567300000000  0.7525890000000 1.0
C      1  0.4491740000000  0.5433590000000  0.7526050000000 1.0
C      1  0.4352550000000  0.6688740000000  0.6792140000000 1.0
C      1  0.5648500000000  0.3311890000000  0.6792350000000 1.0
C      1  0.4670450000000  0.6791800000000  0.3147440000000 1.0
C      1  0.5328470000000  0.3207550000000  0.3147900000000 1.0
C      1  0.5328900000000  0.6792580000000  0.6851900000000 1.0
C      1  0.4672200000000  0.3208080000000  0.6852760000000 1.0
C      1  0.5646830000000  0.6688350000000  0.3207260000000 1.0
C      1  0.4352130000000  0.3311020000000  0.3208240000000 1.0
C      1  0.6887000000000  0.5268750000000  0.3232940000000 1.0
C      1  0.3111970000000  0.4730630000000  0.3234030000000 1.0
C      1  0.6827670000000  0.5569950000000  0.6760410000000 1.0
C      1  0.3173390000000  0.4430660000000  0.6761830000000 1.0
C      1  0.3172140000000  0.5568660000000  0.3239250000000 1.0
C      1  0.6826850000000  0.4430730000000  0.3238490000000 1.0
C      1  0.3112910000000  0.5268660000000  0.6767100000000 1.0
C      1  0.6888140000000  0.4731950000000  0.6765920000000 1.0
C      1  0.4426950000000  0.4543790000000  0.4170400000000 1.0
C      1  0.5572540000000  0.5455930000000  0.4169910000000 1.0
C      1  0.4468650000000  0.4454760000000  0.5824550000000 1.0
C      1  0.5531810000000  0.5545540000000  0.5824040000000 1.0
C      1  0.5531530000000  0.4454670000000  0.4175650000000 1.0
C      1  0.4467950000000  0.5545040000000  0.4175770000000 1.0
C      1  0.5573180000000  0.4544290000000  0.5829760000000 1.0
C      1  0.4427270000000  0.5456000000000  0.5829950000000 1.0
C      1  0.4684220000000  0.2503330000000  0.6168330000000 1.0
C      1  0.5316430000000  0.7497070000000  0.6167210000000 1.0
C      1  0.4331480000000  0.2734930000000  0.3955410000000 1.0
C      1  0.5667910000000  0.7264720000000  0.3954200000000 1.0
C      1  0.5669330000000  0.2735530000000  0.6045390000000 1.0
C      1  0.4331240000000  0.7264820000000  0.6044980000000 1.0
C      1  0.5316670000000  0.2503050000000  0.3832580000000 1.0
C      1  0.4682630000000  0.7496550000000  0.3831860000000 1.0
C      1  0.5817180000000  0.5944050000000  0.6717930000000 1.0
C      1  0.4183840000000  0.4056560000000  0.6718780000000 1.0
C      1  0.5953010000000  0.5778980000000  0.3275870000000 1.0
C      1  0.4045980000000  0.4220420000000  0.3276680000000 1.0
C      1  0.4046700000000  0.5779230000000  0.6723890000000 1.0
C      1  0.5954310000000  0.4221380000000  0.6723560000000 1.0
C      1  0.4182480000000  0.5943140000000  0.3281710000000 1.0
C      1  0.5816520000000  0.4056250000000  0.3281590000000 1.0
C      1  0.4157690000000  0.5959570000000  0.5023140000000 1.0
C      1  0.5841900000000  0.5959910000000  0.4976530000000 1.0
C      1  0.5842270000000  0.4040400000000  0.5022980000000 1.0
C      1  0.4158040000000  0.4040110000000  0.4977360000000 1.0
END
