TITL C-3701779-4465-129 -0.00237861873414032 3375 -405.405174178229 0 0 60 (C1) n - 1
REM
REM in /scratch/bkarasulu/791
REM
REM
REM
REM
REM
REM ./C.cell (830fe4e9c99271719e6d0bb221258042)
REM AIRSS Version 0.9.1 bugfix July 2018 build 013d7b7c2542+ Fri, 06 Jul 2018 19:26:36 +0100
REM compiler GCC version 9.2.1 20190827 (Red Hat 9.2.1-1)
REM options -cpp -mtune=generic -march=x86-64 -g -O0 -fpre-include=/usr/include/finclude/math-vector-fortran.h
REM seed -1140675565 126149511 -2048211020 -844549341 -378139054 -309273322 -777295508 -114427534 1299911944 1793296614 293894530 -149137071 103713506 -539075364 1600060240 525722561 551242775 -1655551531 -1253247781 1687148314 -1425317220 752040230 -290959327 603841105 -445127522 558622746 2143867892 -1300918964 -987421314 -2044403844 402839511 379298660 1221438909
REM
CELL 1.54180   15.00000   15.00000   15.00000   90.00000   90.00000   90.00000
LATT -1
SFAC C  
C      1  0.3983180000000  0.4864730000000  0.7625110000000 1.0
C      1  0.3975670000000  0.6980920000000  0.6735590000000 1.0
C      1  0.3929280000000  0.7602570000000  0.4525480000000 1.0
C      1  0.3872660000000  0.6258790000000  0.2656630000000 1.0
C      1  0.3856090000000  0.3965250000000  0.2543770000000 1.0
C      1  0.3880540000000  0.2449600000000  0.4265660000000 1.0
C      1  0.3942290000000  0.2853230000000  0.6521970000000 1.0
C      1  0.5253270000000  0.3692090000000  0.3412510000000 1.0
C      1  0.5282520000000  0.2977220000000  0.5001710000000 1.0
C      1  0.5331400000000  0.3778110000000  0.6549660000000 1.0
C      1  0.5359960000000  0.5480220000000  0.6882090000000 1.0
C      1  0.5332860000000  0.6816070000000  0.5774330000000 1.0
C      1  0.5280640000000  0.6773050000000  0.4030530000000 1.0
C      1  0.5251590000000  0.5379580000000  0.2978970000000 1.0
C      1  0.3298590000000  0.4034280000000  0.4424870000000 1.0
C      1  0.3327670000000  0.3960440000000  0.5392480000000 1.0
C      1  0.3347400000000  0.4668010000000  0.6053420000000 1.0
C      1  0.3350560000000  0.5625250000000  0.5912040000000 1.0
C      1  0.3333560000000  0.6112000000000  0.5076070000000 1.0
C      1  0.3301840000000  0.5763630000000  0.4171520000000 1.0
C      1  0.3284850000000  0.4837740000000  0.3880000000000 1.0
C      1  0.3733270000000  0.6382580000000  0.3543560000000 1.0
C      1  0.3706280000000  0.4735280000000  0.2997050000000 1.0
C      1  0.3727000000000  0.3286280000000  0.3952270000000 1.0
C      1  0.3775500000000  0.3134690000000  0.5677450000000 1.0
C      1  0.3813340000000  0.4382320000000  0.6873000000000 1.0
C      1  0.3823930000000  0.6089400000000  0.6640580000000 1.0
C      1  0.3792710000000  0.6974870000000  0.5165900000000 1.0
C      1  0.4439700000000  0.5514420000000  0.7159720000000 1.0
C      1  0.4411120000000  0.7033940000000  0.5928740000000 1.0
C      1  0.4356630000000  0.7018750000000  0.3963280000000 1.0
C      1  0.4322040000000  0.5465270000000  0.2750350000000 1.0
C      1  0.4324040000000  0.3551570000000  0.3215080000000 1.0
C      1  0.4357550000000  0.2726520000000  0.4997360000000 1.0
C      1  0.4409990000000  0.3606610000000  0.6752740000000 1.0
C      1  0.7506030000000  0.3991230000000  0.4505140000000 1.0
C      1  0.7509670000000  0.3932270000000  0.5453250000000 1.0
C      1  0.7600100000000  0.4580380000000  0.6130860000000 1.0
C      1  0.7598810000000  0.5907850000000  0.5794330000000 1.0
C      1  0.7507710000000  0.6154910000000  0.4889930000000 1.0
C      1  0.7504570000000  0.5651420000000  0.4084580000000 1.0
C      1  0.7513370000000  0.4723440000000  0.3908060000000 1.0
C      1  0.5735430000000  0.6794420000000  0.4886410000000 1.0
C      1  0.5698440000000  0.6073500000000  0.3491640000000 1.0
C      1  0.5687240000000  0.4534030000000  0.3182530000000 1.0
C      1  0.5700530000000  0.3332380000000  0.4192990000000 1.0
C      1  0.5736390000000  0.3370960000000  0.5761810000000 1.0
C      1  0.5780700000000  0.4621340000000  0.6709890000000 1.0
C      1  0.5779670000000  0.6152040000000  0.6317240000000 1.0
C      1  0.6484360000000  0.3915350000000  0.5456360000000 1.0
C      1  0.6538620000000  0.4744880000000  0.6091070000000 1.0
C      1  0.6538320000000  0.5742440000000  0.5837810000000 1.0
C      1  0.6482680000000  0.6169950000000  0.4883970000000 1.0
C      1  0.6468800000000  0.5702000000000  0.3961420000000 1.0
C      1  0.6470580000000  0.4683640000000  0.3754510000000 1.0
C      1  0.6470640000000  0.3887020000000  0.4422050000000 1.0
C      1  0.2190970000000  0.5009030000000  0.5020970000000 1.0
C      1  0.4507990000000  0.4977420000000  0.4909610000000 1.0
C      1  0.8130180000000  0.5319200000000  0.6257050000000 1.0
C      1  0.5239730000000  0.5046510000000  0.5195820000000 1.0
END
