TITL C-3701779-4465-254 -0.0018931133548953 3375 -406.390451408291 0 0 60 (Cs) n - 1
REM
REM in /scratch/bkarasulu/791
REM
REM
REM
REM
REM
REM ./C.cell (830fe4e9c99271719e6d0bb221258042)
REM AIRSS Version 0.9.1 bugfix July 2018 build 013d7b7c2542+ Fri, 06 Jul 2018 19:26:36 +0100
REM compiler GCC version 9.2.1 20190827 (Red Hat 9.2.1-1)
REM options -cpp -mtune=generic -march=x86-64 -g -O0 -fpre-include=/usr/include/finclude/math-vector-fortran.h
REM seed -763761789 54496518 -485764812 1349948224 345649237 1503606081 754853423 -2057460489 2051108007 -1455509299 -1202311150 11096176 -1307544906 1526181747 -945719585 -1645155180 1716014740 -438870282 -1159793343 -1076507290 1626147314 1624644683 -1753210701 -1198003399 -1010180847 -1654958419 1713969506 449003010 1330352153 604219889 -896039022 235774939 -1250432567
REM
CELL 1.54180   15.00000   15.00000   15.00000   90.00000   90.00000   90.00000
LATT -1
SFAC C  
C      1  0.2787250000000  0.5476680000000  0.3396730000000 1.0
C      1  0.2787250000000  0.4523320000000  0.3396730000000 1.0
C      1  0.6055200000000  0.6148200000000  0.3544440000000 1.0
C      1  0.6055200000000  0.3851800000000  0.3544440000000 1.0
C      1  0.4422070000000  0.4513760000000  0.3121690000000 1.0
C      1  0.4422070000000  0.5486240000000  0.3121690000000 1.0
C      1  0.6728870000000  0.5490120000000  0.3465110000000 1.0
C      1  0.6728870000000  0.4509880000000  0.3465110000000 1.0
C      1  0.5269970000000  0.4118830000000  0.7039790000000 1.0
C      1  0.5269970000000  0.5881170000000  0.7039790000000 1.0
C      1  0.2307210000000  0.3949310000000  0.4816610000000 1.0
C      1  0.2307210000000  0.6050690000000  0.4816610000000 1.0
C      1  0.6200260000000  0.3313040000000  0.4332840000000 1.0
C      1  0.6200260000000  0.6686960000000  0.4332840000000 1.0
C      1  0.5164650000000  0.3850020000000  0.3153780000000 1.0
C      1  0.5164650000000  0.6149980000000  0.3153780000000 1.0
C      1  0.4486870000000  0.4510480000000  0.5402090000000 1.0
C      1  0.4486870000000  0.5489520000000  0.5402090000000 1.0
C      1  0.6777520000000  0.6051310000000  0.4907760000000 1.0
C      1  0.6777520000000  0.3948690000000  0.4907760000000 1.0
C      1  0.6304340000000  0.3159690000000  0.6146920000000 1.0
C      1  0.6304340000000  0.6840310000000  0.6146920000000 1.0
C      1  0.5435310000000  0.7026650000000  0.5834530000000 1.0
C      1  0.5435310000000  0.2973350000000  0.5834530000000 1.0
C      1  0.6161830000000  0.4511570000000  0.7084470000000 1.0
C      1  0.6161830000000  0.5488430000000  0.7084470000000 1.0
C      1  0.3723500000000  0.3459030000000  0.4177850000000 1.0
C      1  0.3723500000000  0.6540970000000  0.4177850000000 1.0
C      1  0.7037820000000  0.6371180000000  0.5789500000000 1.0
C      1  0.7037820000000  0.3628820000000  0.5789500000000 1.0
C      1  0.2143530000000  0.4484220000000  0.4134150000000 1.0
C      1  0.2143530000000  0.5515780000000  0.4134150000000 1.0
C      1  0.6695910000000  0.3870220000000  0.6634320000000 1.0
C      1  0.6695910000000  0.6129780000000  0.6634320000000 1.0
C      1  0.3611320000000  0.5922780000000  0.3461250000000 1.0
C      1  0.3611320000000  0.4077220000000  0.3461250000000 1.0
C      1  0.5371350000000  0.5480450000000  0.5996990000000 1.0
C      1  0.5371350000000  0.4519550000000  0.5996990000000 1.0
C      1  0.4890730000000  0.7001030000000  0.3359440000000 1.0
C      1  0.4890730000000  0.2998970000000  0.3359440000000 1.0
C      1  0.5307490000000  0.6827220000000  0.4841860000000 1.0
C      1  0.5307490000000  0.3172780000000  0.4841860000000 1.0
C      1  0.7270420000000  0.4519120000000  0.4290840000000 1.0
C      1  0.7270420000000  0.5480880000000  0.4290840000000 1.0
C      1  0.4921410000000  0.3320020000000  0.6568610000000 1.0
C      1  0.4921410000000  0.6679980000000  0.6568610000000 1.0
C      1  0.3726510000000  0.3953100000000  0.5715670000000 1.0
C      1  0.3726510000000  0.6046900000000  0.5715670000000 1.0
C      1  0.5936160000000  0.4528360000000  0.5134670000000 1.0
C      1  0.5936160000000  0.5471640000000  0.5134670000000 1.0
C      1  0.4574780000000  0.2957460000000  0.4206400000000 1.0
C      1  0.4574780000000  0.7042540000000  0.4206400000000 1.0
C      1  0.3185250000000  0.6323660000000  0.4987930000000 1.0
C      1  0.3185250000000  0.3676340000000  0.4987930000000 1.0
C      1  0.5113850000000  0.4163590000000  0.4766460000000 1.0
C      1  0.5113850000000  0.5836410000000  0.4766460000000 1.0
C      1  0.4016390000000  0.6244120000000  0.6577850000000 1.0
C      1  0.4016390000000  0.3755880000000  0.6577850000000 1.0
C      1  0.4372230000000  0.4545190000000  0.7109470000000 1.0
C      1  0.4372230000000  0.5454810000000  0.7109470000000 1.0
END
