TITL C-3701779-4465-90 -0.00535654987497 3375 -429.208345782398 0 0 60 (C1) n - 1
REM
REM in /scratch/bkarasulu/791
REM
REM
REM
REM
REM
REM ./C.cell (830fe4e9c99271719e6d0bb221258042)
REM AIRSS Version 0.9.1 bugfix July 2018 build 013d7b7c2542+ Fri, 06 Jul 2018 19:26:36 +0100
REM compiler GCC version 9.2.1 20190827 (Red Hat 9.2.1-1)
REM options -cpp -mtune=generic -march=x86-64 -g -O0 -fpre-include=/usr/include/finclude/math-vector-fortran.h
REM seed 1602429810 -1298630799 -1888410804 456363266 959315623 1175128276 1045831187 1983613729 445813250 -894488733 -1371071507 881529715 -1153568706 1413472790 -490877680 317390248 755404039 -1828163292 -152791966 2041522727 1076635231 -1149769651 -831762872 1893670695 -658867933 2097743309 -1293738562 383516992 -2100627478 1641798610 -761446909 1719440731 1746955868
REM
CELL 1.54180   15.00000   15.00000   15.00000   90.00000   90.00000   90.00000
LATT -1
SFAC C  
C      1  0.5656720000000  0.3292050000000  0.3543910000000 1.0
C      1  0.4532820000000  0.7120650000000  0.5233700000000 1.0
C      1  0.4712010000000  0.3289460000000  0.3329200000000 1.0
C      1  0.5503350000000  0.7073610000000  0.5368660000000 1.0
C      1  0.6268570000000  0.3203990000000  0.5951050000000 1.0
C      1  0.3639270000000  0.5353480000000  0.6601650000000 1.0
C      1  0.3555090000000  0.3317620000000  0.5424850000000 1.0
C      1  0.6397620000000  0.4995460000000  0.6509170000000 1.0
C      1  0.6732590000000  0.4656380000000  0.3363650000000 1.0
C      1  0.3646560000000  0.6535660000000  0.3860480000000 1.0
C      1  0.3782940000000  0.4713410000000  0.2935690000000 1.0
C      1  0.6682290000000  0.6520280000000  0.4178510000000 1.0
C      1  0.3472710000000  0.3404200000000  0.4476690000000 1.0
C      1  0.6382900000000  0.5940140000000  0.6225390000000 1.0
C      1  0.6451320000000  0.3401570000000  0.5071360000000 1.0
C      1  0.3420610000000  0.5952310000000  0.5879970000000 1.0
C      1  0.5667070000000  0.6551360000000  0.6158590000000 1.0
C      1  0.4262670000000  0.3029540000000  0.4112830000000 1.0
C      1  0.4116240000000  0.6622250000000  0.5924220000000 1.0
C      1  0.5772130000000  0.3043560000000  0.4471560000000 1.0
C      1  0.6937360000000  0.4246390000000  0.4975400000000 1.0
C      1  0.3007310000000  0.5582210000000  0.5089380000000 1.0
C      1  0.3029210000000  0.4234190000000  0.4293680000000 1.0
C      1  0.6987630000000  0.5724180000000  0.5496740000000 1.0
C      1  0.3234620000000  0.4923250000000  0.3662040000000 1.0
C      1  0.7079270000000  0.5773700000000  0.4554940000000 1.0
C      1  0.7034890000000  0.4849200000000  0.4224520000000 1.0
C      1  0.3178690000000  0.5778360000000  0.4143360000000 1.0
C      1  0.4154980000000  0.7189720000000  0.4387560000000 1.0
C      1  0.6202820000000  0.3882660000000  0.3064350000000 1.0
C      1  0.6079400000000  0.7156280000000  0.4640430000000 1.0
C      1  0.4325980000000  0.3913490000000  0.2748770000000 1.0
C      1  0.4425370000000  0.5240950000000  0.2429650000000 1.0
C      1  0.6204910000000  0.6675820000000  0.3353510000000 1.0
C      1  0.6258740000000  0.5213410000000  0.2707580000000 1.0
C      1  0.4314490000000  0.6657330000000  0.3145540000000 1.0
C      1  0.3510150000000  0.4409200000000  0.6616540000000 1.0
C      1  0.5695370000000  0.3550120000000  0.6532740000000 1.0
C      1  0.5785460000000  0.4432020000000  0.6879310000000 1.0
C      1  0.3137470000000  0.4059320000000  0.5835410000000 1.0
C      1  0.5664770000000  0.7353050000000  0.3779120000000 1.0
C      1  0.4917730000000  0.4430780000000  0.2165280000000 1.0
C      1  0.4767030000000  0.7337100000000  0.3660550000000 1.0
C      1  0.5809910000000  0.4424420000000  0.2359860000000 1.0
C      1  0.4905820000000  0.4629440000000  0.5425860000000 1.0
C      1  0.5152740000000  0.5887500000000  0.4318120000000 1.0
C      1  0.4422100000000  0.3008200000000  0.5662720000000 1.0
C      1  0.4482480000000  0.5563430000000  0.6953040000000 1.0
C      1  0.2840690000000  0.4642860000000  0.5139940000000 1.0
C      1  0.6965910000000  0.4781830000000  0.5755600000000 1.0
C      1  0.4757720000000  0.3337500000000  0.6489080000000 1.0
C      1  0.4944100000000  0.4740210000000  0.7370550000000 1.0
C      1  0.4888570000000  0.2844810000000  0.4823710000000 1.0
C      1  0.4805490000000  0.6327520000000  0.6528300000000 1.0
C      1  0.4285420000000  0.3995910000000  0.6948810000000 1.0
C      1  0.5162370000000  0.4923620000000  0.9166250000000 1.0
C      1  0.5027130000000  0.5067370000000  0.4700160000000 1.0
C      1  0.5809140000000  0.6032150000000  0.2801140000000 1.0
C      1  0.5071510000000  0.4849060000000  0.8330140000000 1.0
C      1  0.4843140000000  0.6034080000000  0.2686430000000 1.0
END
