TITL C-3701779-4465-11 -0.00273773670880979 3375 -404.470886200015 0 0 60 (D3h) n - 1
REM
REM in /scratch/bkarasulu/791
REM
REM
REM
REM
REM
REM ./C.cell (830fe4e9c99271719e6d0bb221258042)
REM AIRSS Version 0.9.1 bugfix July 2018 build 013d7b7c2542+ Fri, 06 Jul 2018 19:26:36 +0100
REM compiler GCC version 9.2.1 20190827 (Red Hat 9.2.1-1)
REM options -cpp -mtune=generic -march=x86-64 -g -O0 -fpre-include=/usr/include/finclude/math-vector-fortran.h
REM seed 715873032 -940083873 1422854137 -117450982 -1006504241 -1746156417 -1344798779 -518988916 784482665 -1862276431 146897311 185363982 630519680 -770908551 689480712 1367500277 747819799 -1503478710 476201700 56823969 -590066088 -1552455289 158748941 -2042933014 -1308438381 572078339 999513844 1485692698 -325528544 193657762 67654729 -1671582735 100414895
REM
CELL 1.54180   15.00000   15.00000   15.00000   90.00000   90.00000   90.00000
LATT -1
SFAC C  
C      1  0.3292900000000  0.6287630000000  0.4962320000000 1.0
C      1  0.5820930000000  0.6287610000000  0.6497180000000 1.0
C      1  0.5886160000000  0.6287630000000  0.3540430000000 1.0
C      1  0.3292900000000  0.3712370000000  0.4962320000000 1.0
C      1  0.5820930000000  0.3712390000000  0.6497180000000 1.0
C      1  0.5886160000000  0.3712370000000  0.3540430000000 1.0
C      1  0.6707100000000  0.6287630000000  0.4962320000000 1.0
C      1  0.4179070000000  0.6287610000000  0.6497180000000 1.0
C      1  0.4113840000000  0.6287630000000  0.3540430000000 1.0
C      1  0.6707100000000  0.3712370000000  0.4962320000000 1.0
C      1  0.4179070000000  0.3712390000000  0.6497180000000 1.0
C      1  0.4113840000000  0.3712370000000  0.3540430000000 1.0
C      1  0.3399860000000  0.6156870000000  0.3038590000000 1.0
C      1  0.4101430000000  0.6156820000000  0.7366410000000 1.0
C      1  0.7498740000000  0.6156860000000  0.4595030000000 1.0
C      1  0.3399860000000  0.3843130000000  0.3038590000000 1.0
C      1  0.4101430000000  0.3843180000000  0.7366410000000 1.0
C      1  0.7498740000000  0.3843140000000  0.4595030000000 1.0
C      1  0.6600140000000  0.6156870000000  0.3038590000000 1.0
C      1  0.5898570000000  0.6156820000000  0.7366410000000 1.0
C      1  0.2501260000000  0.6156860000000  0.4595030000000 1.0
C      1  0.6600140000000  0.3843130000000  0.3038590000000 1.0
C      1  0.5898570000000  0.3843180000000  0.7366410000000 1.0
C      1  0.2501260000000  0.3843140000000  0.4595030000000 1.0
C      1  0.7726450000000  0.5489700000000  0.4016280000000 1.0
C      1  0.2784830000000  0.5489690000000  0.3130900000000 1.0
C      1  0.4488810000000  0.5489700000000  0.7853020000000 1.0
C      1  0.7726450000000  0.4510300000000  0.4016280000000 1.0
C      1  0.2784830000000  0.4510310000000  0.3130900000000 1.0
C      1  0.4488810000000  0.4510300000000  0.7853020000000 1.0
C      1  0.2273550000000  0.5489700000000  0.4016280000000 1.0
C      1  0.7215170000000  0.5489690000000  0.3130900000000 1.0
C      1  0.5511190000000  0.5489700000000  0.7853020000000 1.0
C      1  0.2273550000000  0.4510300000000  0.4016280000000 1.0
C      1  0.7215170000000  0.4510310000000  0.3130900000000 1.0
C      1  0.5511190000000  0.4510300000000  0.7853020000000 1.0
C      1  0.3988220000000  0.4473930000000  0.5003100000000 1.0
C      1  0.5508610000000  0.4473930000000  0.5874590000000 1.0
C      1  0.5503160000000  0.4473930000000  0.4122180000000 1.0
C      1  0.3988220000000  0.5526070000000  0.5003100000000 1.0
C      1  0.5508610000000  0.5526070000000  0.5874590000000 1.0
C      1  0.5503160000000  0.5526070000000  0.4122180000000 1.0
C      1  0.6011780000000  0.4473930000000  0.5003100000000 1.0
C      1  0.4491390000000  0.4473930000000  0.5874590000000 1.0
C      1  0.4496840000000  0.4473930000000  0.4122180000000 1.0
C      1  0.6011780000000  0.5526070000000  0.5003100000000 1.0
C      1  0.4491390000000  0.5526070000000  0.5874590000000 1.0
C      1  0.4496840000000  0.5526070000000  0.4122180000000 1.0
C      1  0.4533240000000  0.6942690000000  0.4184940000000 1.0
C      1  0.4527530000000  0.6942680000000  0.5811730000000 1.0
C      1  0.5939230000000  0.6942690000000  0.5003280000000 1.0
C      1  0.4533240000000  0.3057310000000  0.4184940000000 1.0
C      1  0.4527530000000  0.3057320000000  0.5811730000000 1.0
C      1  0.5939230000000  0.3057310000000  0.5003280000000 1.0
C      1  0.5466760000000  0.6942690000000  0.4184940000000 1.0
C      1  0.5472470000000  0.6942680000000  0.5811730000000 1.0
C      1  0.4060770000000  0.6942690000000  0.5003280000000 1.0
C      1  0.5466760000000  0.3057310000000  0.4184940000000 1.0
C      1  0.5472470000000  0.3057320000000  0.5811730000000 1.0
C      1  0.4060770000000  0.3057310000000  0.5003280000000 1.0
END
