TITL C-3701779-4465-241 -0.00176893716781109 3375 -416.662493338607 0 0 60 (C1) n - 1
REM
REM in /scratch/bkarasulu/791
REM
REM
REM
REM
REM
REM ./C.cell (830fe4e9c99271719e6d0bb221258042)
REM AIRSS Version 0.9.1 bugfix July 2018 build 013d7b7c2542+ Fri, 06 Jul 2018 19:26:36 +0100
REM compiler GCC version 9.2.1 20190827 (Red Hat 9.2.1-1)
REM options -cpp -mtune=generic -march=x86-64 -g -O0 -fpre-include=/usr/include/finclude/math-vector-fortran.h
REM seed -928377141 2110476185 1561155343 1871142623 1383184814 1818529390 -1909647173 973791923 -1824257277 -910679571 -1172986945 1957830360 210780394 -1136149894 -50463914 -1758225214 -790117625 549455260 -1113257738 -104745672 439781388 -1878569439 -1895281743 -295450757 34970748 1151945977 1088454535 -1555327442 1452167819 -726424925 -1973891389 -1834233574 1815418656
REM
CELL 1.54180   15.00000   15.00000   15.00000   90.00000   90.00000   90.00000
LATT -1
SFAC C  
C      1  0.4673100000000  0.6047330000000  0.4799340000000 1.0
C      1  0.5175290000000  0.5379550000000  0.5228560000000 1.0
C      1  0.4848250000000  0.4726200000000  0.5876680000000 1.0
C      1  0.4788260000000  0.4032490000000  0.5215270000000 1.0
C      1  0.4790560000000  0.4693770000000  0.3866580000000 1.0
C      1  0.5091930000000  0.5431180000000  0.3268400000000 1.0
C      1  0.4937310000000  0.6299840000000  0.3832290000000 1.0
C      1  0.6062930000000  0.5216400000000  0.3255810000000 1.0
C      1  0.5837170000000  0.6612370000000  0.4049570000000 1.0
C      1  0.5461950000000  0.6933150000000  0.5673690000000 1.0
C      1  0.5550950000000  0.5786390000000  0.7023190000000 1.0
C      1  0.5475350000000  0.4213410000000  0.6602710000000 1.0
C      1  0.5199810000000  0.3139820000000  0.5196200000000 1.0
C      1  0.5622750000000  0.3607540000000  0.3518750000000 1.0
C      1  0.3906170000000  0.6105000000000  0.6842890000000 1.0
C      1  0.4205330000000  0.4872780000000  0.7358720000000 1.0
C      1  0.3881350000000  0.2847540000000  0.6100070000000 1.0
C      1  0.3912020000000  0.3339360000000  0.3660890000000 1.0
C      1  0.4028550000000  0.4365530000000  0.2726820000000 1.0
C      1  0.3704490000000  0.5997830000000  0.2902900000000 1.0
C      1  0.3982090000000  0.7407260000000  0.4806470000000 1.0
C      1  0.6066330000000  0.6879380000000  0.4937150000000 1.0
C      1  0.5879970000000  0.6456800000000  0.6405670000000 1.0
C      1  0.6050170000000  0.4955880000000  0.6877370000000 1.0
C      1  0.5810190000000  0.3489830000000  0.5987960000000 1.0
C      1  0.5793680000000  0.3131220000000  0.4364410000000 1.0
C      1  0.6319430000000  0.4296920000000  0.3431020000000 1.0
C      1  0.6468500000000  0.5918460000000  0.3762540000000 1.0
C      1  0.6623500000000  0.3674720000000  0.5579950000000 1.0
C      1  0.6639460000000  0.3400870000000  0.4654940000000 1.0
C      1  0.6949320000000  0.4142130000000  0.4125240000000 1.0
C      1  0.7055360000000  0.5736740000000  0.4499490000000 1.0
C      1  0.6829130000000  0.6365830000000  0.5185990000000 1.0
C      1  0.6713960000000  0.6089320000000  0.6072720000000 1.0
C      1  0.6788350000000  0.5163490000000  0.6308000000000 1.0
C      1  0.2801570000000  0.5427540000000  0.3931470000000 1.0
C      1  0.2964730000000  0.6119570000000  0.4606960000000 1.0
C      1  0.3119990000000  0.5935640000000  0.5538250000000 1.0
C      1  0.3025280000000  0.5110790000000  0.6048880000000 1.0
C      1  0.3282310000000  0.3555790000000  0.6305880000000 1.0
C      1  0.3044870000000  0.3937560000000  0.4781870000000 1.0
C      1  0.2906960000000  0.4464030000000  0.3991270000000 1.0
C      1  0.2852090000000  0.5724410000000  0.3039350000000 1.0
C      1  0.3470200000000  0.6879980000000  0.4260280000000 1.0
C      1  0.3768770000000  0.6472780000000  0.5996300000000 1.0
C      1  0.3428400000000  0.5249920000000  0.6902950000000 1.0
C      1  0.4061250000000  0.3427990000000  0.6803770000000 1.0
C      1  0.3647640000000  0.3198080000000  0.4550940000000 1.0
C      1  0.3310780000000  0.4014620000000  0.3243660000000 1.0
C      1  0.4670550000000  0.5715940000000  0.7279150000000 1.0
C      1  0.4647730000000  0.4073680000000  0.7122430000000 1.0
C      1  0.4253970000000  0.2835560000000  0.5236500000000 1.0
C      1  0.4697280000000  0.3832980000000  0.3344230000000 1.0
C      1  0.4307050000000  0.5279750000000  0.2682420000000 1.0
C      1  0.4062450000000  0.6653420000000  0.3516310000000 1.0
C      1  0.4486330000000  0.6872280000000  0.5394750000000 1.0
C      1  0.2953570000000  0.4208310000000  0.5707110000000 1.0
C      1  0.7222090000000  0.4836900000000  0.4731640000000 1.0
C      1  0.5280240000000  0.4652940000000  0.4655720000000 1.0
C      1  0.7056780000000  0.4545970000000  0.5640950000000 1.0
END
