TITL C-3701779-4465-39 -0.00181652024699362 3375 -411.404550943656 0 0 60 (C1) n - 1
REM
REM in /scratch/bkarasulu/791
REM
REM
REM
REM
REM
REM ./C.cell (830fe4e9c99271719e6d0bb221258042)
REM AIRSS Version 0.9.1 bugfix July 2018 build 013d7b7c2542+ Fri, 06 Jul 2018 19:26:36 +0100
REM compiler GCC version 9.2.1 20190827 (Red Hat 9.2.1-1)
REM options -cpp -mtune=generic -march=x86-64 -g -O0 -fpre-include=/usr/include/finclude/math-vector-fortran.h
REM seed -1093215628 -1207802777 1312281829 192911205 -953176094 -1655729883 -1167626506 -610526142 1264476278 -421950832 1659843853 1600239276 291809002 -932972610 1589365136 1866471226 1978918941 1578756665 2041568381 -576074088 326854981 -449859980 660903673 159629375 -1424157842 -1357129511 -219873007 4198605 1173309732 -642262586 -1344337024 1133026968 -1089758631
REM
CELL 1.54180   15.00000   15.00000   15.00000   90.00000   90.00000   90.00000
LATT -1
SFAC C  
C      1  0.7186290000000  0.4255440000000  0.5397890000000 1.0
C      1  0.4921690000000  0.3420800000000  0.7081950000000 1.0
C      1  0.3595980000000  0.6969340000000  0.6292590000000 1.0
C      1  0.5459650000000  0.5589920000000  0.6987350000000 1.0
C      1  0.7053980000000  0.4879990000000  0.6143490000000 1.0
C      1  0.6450670000000  0.3472400000000  0.6514560000000 1.0
C      1  0.3319060000000  0.4455300000000  0.6201230000000 1.0
C      1  0.6573120000000  0.4372400000000  0.6808360000000 1.0
C      1  0.5593560000000  0.5048860000000  0.2876400000000 1.0
C      1  0.4765610000000  0.4924280000000  0.2476600000000 1.0
C      1  0.3473240000000  0.5122300000000  0.2959840000000 1.0
C      1  0.5648040000000  0.4576910000000  0.3702010000000 1.0
C      1  0.5396260000000  0.6588570000000  0.3414380000000 1.0
C      1  0.4353760000000  0.2832560000000  0.5704510000000 1.0
C      1  0.4470790000000  0.6208980000000  0.3483080000000 1.0
C      1  0.3094540000000  0.3972200000000  0.5395890000000 1.0
C      1  0.4560810000000  0.5151300000000  0.7038630000000 1.0
C      1  0.4218300000000  0.7319760000000  0.4926240000000 1.0
C      1  0.3885760000000  0.6125390000000  0.5983880000000 1.0
C      1  0.6470010000000  0.4088750000000  0.4000830000000 1.0
C      1  0.5915630000000  0.6108350000000  0.6353380000000 1.0
C      1  0.5615900000000  0.7090480000000  0.4206280000000 1.0
C      1  0.4995620000000  0.4320540000000  0.7323320000000 1.0
C      1  0.5999430000000  0.5928940000000  0.3098910000000 1.0
C      1  0.5483300000000  0.6561860000000  0.5642330000000 1.0
C      1  0.4637270000000  0.5704160000000  0.4427150000000 1.0
C      1  0.3946310000000  0.7605440000000  0.5862030000000 1.0
C      1  0.4090550000000  0.4938450000000  0.4486220000000 1.0
C      1  0.7109320000000  0.5538120000000  0.4351050000000 1.0
C      1  0.4226140000000  0.5673880000000  0.2702580000000 1.0
C      1  0.2849420000000  0.4139670000000  0.4443610000000 1.0
C      1  0.5860250000000  0.4755330000000  0.7252720000000 1.0
C      1  0.4971800000000  0.7666020000000  0.4492750000000 1.0
C      1  0.4026510000000  0.4325810000000  0.2830090000000 1.0
C      1  0.4520950000000  0.4119120000000  0.4853600000000 1.0
C      1  0.3476290000000  0.3466670000000  0.4104320000000 1.0
C      1  0.6048280000000  0.2963640000000  0.5100660000000 1.0
C      1  0.5934890000000  0.3338840000000  0.4248600000000 1.0
C      1  0.6112330000000  0.6726990000000  0.4954040000000 1.0
C      1  0.4551020000000  0.6343750000000  0.5247330000000 1.0
C      1  0.3470340000000  0.7128180000000  0.4331370000000 1.0
C      1  0.5051400000000  0.3779520000000  0.3984320000000 1.0
C      1  0.5107990000000  0.4346850000000  0.5615950000000 1.0
C      1  0.3825540000000  0.5287770000000  0.6436340000000 1.0
C      1  0.5316970000000  0.2742850000000  0.5714680000000 1.0
C      1  0.6749010000000  0.3413720000000  0.5617780000000 1.0
C      1  0.5622080000000  0.3039970000000  0.6585520000000 1.0
C      1  0.3843570000000  0.3379140000000  0.5039150000000 1.0
C      1  0.7107500000000  0.4574100000000  0.4519370000000 1.0
C      1  0.6848430000000  0.6122550000000  0.5082490000000 1.0
C      1  0.3457320000000  0.3740100000000  0.6771780000000 1.0
C      1  0.5679360000000  0.4911800000000  0.5288660000000 1.0
C      1  0.6780290000000  0.5780010000000  0.5970430000000 1.0
C      1  0.3030920000000  0.5638740000000  0.3603990000000 1.0
C      1  0.4156370000000  0.3645450000000  0.3462510000000 1.0
C      1  0.5509960000000  0.5295450000000  0.4443670000000 1.0
C      1  0.6773390000000  0.5807840000000  0.3555240000000 1.0
C      1  0.3519110000000  0.6483370000000  0.3750260000000 1.0
C      1  0.3148560000000  0.5008950000000  0.4264890000000 1.0
C      1  0.4139530000000  0.3182120000000  0.6590910000000 1.0
END
