TITL C-3701779-4465-256 -0.00189595142285916 3375 -414.9605652167 0 0 60 (C1) n - 1
REM
REM in /scratch/bkarasulu/791
REM
REM
REM
REM
REM
REM ./C.cell (830fe4e9c99271719e6d0bb221258042)
REM AIRSS Version 0.9.1 bugfix July 2018 build 013d7b7c2542+ Fri, 06 Jul 2018 19:26:36 +0100
REM compiler GCC version 9.2.1 20190827 (Red Hat 9.2.1-1)
REM options -cpp -mtune=generic -march=x86-64 -g -O0 -fpre-include=/usr/include/finclude/math-vector-fortran.h
REM seed 109084876 -385685102 391506916 1414220036 -1082336112 850661024 1847858921 -1462821906 1249308697 2119138400 -836062618 -958263468 -1402563640 998238539 -1672130202 -1372635091 -1918913223 454008473 -316512043 1344587220 -1440305231 404818552 -842372179 -241203719 -1352360062 -216876233 -1536896605 1058715199 1104353671 -793981279 1255444144 -456713620 -1051362087
REM
CELL 1.54180   15.00000   15.00000   15.00000   90.00000   90.00000   90.00000
LATT -1
SFAC C  
C      1  0.6699350000000  0.4622070000000  0.5569690000000 1.0
C      1  0.5523310000000  0.3977230000000  0.6580140000000 1.0
C      1  0.4669510000000  0.5375790000000  0.3638650000000 1.0
C      1  0.2859900000000  0.5862590000000  0.5550360000000 1.0
C      1  0.3449270000000  0.3072780000000  0.5522330000000 1.0
C      1  0.5328950000000  0.3053700000000  0.6348980000000 1.0
C      1  0.6046900000000  0.7312850000000  0.4785090000000 1.0
C      1  0.3329640000000  0.4050510000000  0.5490510000000 1.0
C      1  0.5664440000000  0.6330400000000  0.6874370000000 1.0
C      1  0.6085240000000  0.5484480000000  0.6795790000000 1.0
C      1  0.3229660000000  0.4744260000000  0.3344640000000 1.0
C      1  0.5818850000000  0.5749430000000  0.4608500000000 1.0
C      1  0.3714140000000  0.5007770000000  0.6913420000000 1.0
C      1  0.3210150000000  0.4504530000000  0.6339580000000 1.0
C      1  0.5454750000000  0.4988050000000  0.4120620000000 1.0
C      1  0.3048750000000  0.4046740000000  0.3937520000000 1.0
C      1  0.6452920000000  0.6932830000000  0.5579100000000 1.0
C      1  0.6393400000000  0.5971480000000  0.3103970000000 1.0
C      1  0.6786250000000  0.3269670000000  0.4118600000000 1.0
C      1  0.5888130000000  0.2991100000000  0.3955330000000 1.0
C      1  0.7067920000000  0.4803020000000  0.4705670000000 1.0
C      1  0.2613210000000  0.5345320000000  0.4775020000000 1.0
C      1  0.3107010000000  0.5488160000000  0.3954580000000 1.0
C      1  0.3987240000000  0.5342740000000  0.4382810000000 1.0
C      1  0.6339310000000  0.7059560000000  0.3953940000000 1.0
C      1  0.4152970000000  0.4398910000000  0.4861110000000 1.0
C      1  0.5803480000000  0.7012870000000  0.6254600000000 1.0
C      1  0.6970230000000  0.5767880000000  0.4614820000000 1.0
C      1  0.3057380000000  0.5435660000000  0.6352950000000 1.0
C      1  0.4618730000000  0.2487250000000  0.6087360000000 1.0
C      1  0.4567670000000  0.6779290000000  0.4378920000000 1.0
C      1  0.5172760000000  0.5627680000000  0.5357920000000 1.0
C      1  0.5736450000000  0.6666960000000  0.3295780000000 1.0
C      1  0.2687120000000  0.4379340000000  0.4785590000000 1.0
C      1  0.6063390000000  0.4458070000000  0.3442830000000 1.0
C      1  0.6260600000000  0.5156240000000  0.2819690000000 1.0
C      1  0.5820200000000  0.3122270000000  0.5514300000000 1.0
C      1  0.6961250000000  0.6327830000000  0.3829100000000 1.0
C      1  0.4683060000000  0.2355020000000  0.5032990000000 1.0
C      1  0.3952380000000  0.3612500000000  0.4130140000000 1.0
C      1  0.4576510000000  0.5290050000000  0.7137960000000 1.0
C      1  0.4536500000000  0.3829310000000  0.3352920000000 1.0
C      1  0.3674880000000  0.6333430000000  0.5662610000000 1.0
C      1  0.6956680000000  0.6147310000000  0.5526280000000 1.0
C      1  0.6726260000000  0.5409030000000  0.6098820000000 1.0
C      1  0.5103020000000  0.4640840000000  0.5070830000000 1.0
C      1  0.4289860000000  0.6037500000000  0.4971930000000 1.0
C      1  0.5829190000000  0.4112460000000  0.5597150000000 1.0
C      1  0.6858470000000  0.4167190000000  0.4016900000000 1.0
C      1  0.3933760000000  0.2829630000000  0.4723810000000 1.0
C      1  0.4725160000000  0.6211310000000  0.6967170000000 1.0
C      1  0.4256340000000  0.6753250000000  0.6314230000000 1.0
C      1  0.5092760000000  0.7345740000000  0.4932180000000 1.0
C      1  0.5419360000000  0.4799360000000  0.7004890000000 1.0
C      1  0.5463380000000  0.3643920000000  0.3361250000000 1.0
C      1  0.4873100000000  0.6384650000000  0.3566820000000 1.0
C      1  0.3728970000000  0.2548490000000  0.6252060000000 1.0
C      1  0.5543340000000  0.2607250000000  0.4764820000000 1.0
C      1  0.4181490000000  0.4693600000000  0.3093570000000 1.0
C      1  0.4955120000000  0.7240840000000  0.5876480000000 1.0
END
