TITL C-3701779-4465-17 -0.00355525240804546 3375 -417.313318832741 0 0 60 (C3) n - 1
REM
REM in /scratch/bkarasulu/791
REM
REM
REM
REM
REM
REM ./C.cell (830fe4e9c99271719e6d0bb221258042)
REM AIRSS Version 0.9.1 bugfix July 2018 build 013d7b7c2542+ Fri, 06 Jul 2018 19:26:36 +0100
REM compiler GCC version 9.2.1 20190827 (Red Hat 9.2.1-1)
REM options -cpp -mtune=generic -march=x86-64 -g -O0 -fpre-include=/usr/include/finclude/math-vector-fortran.h
REM seed -1397545846 -518186964 -1853346861 -1140599514 -1743726506 811598994 -1881118719 1457624746 -222749086 1818844507 -1520651870 -1526308048 -958173105 925615032 24970418 -115985104 1633157039 -1187298307 176486548 2065870729 1571497786 -343721645 1223737117 -1281008978 318384768 76807911 -1204050907 -577826801 776242532 -1290958605 -230054128 -499049748 -1178539469
REM
CELL 1.54180   15.00000   15.00000   15.00000   90.00000   90.00000   90.00000
LATT -1
SFAC C  
C      1  0.5221970000000  0.7459040000000  0.5268210000000 1.0
C      1  0.5222000000000  0.4002790000000  0.2736300000000 1.0
C      1  0.5222070000000  0.3538240000000  0.6995480000000 1.0
C      1  0.4582130000000  0.4708030000000  0.2760870000000 1.0
C      1  0.4582220000000  0.3206850000000  0.6372430000000 1.0
C      1  0.4582120000000  0.7085120000000  0.5866700000000 1.0
C      1  0.4943990000000  0.5276250000000  0.5440020000000 1.0
C      1  0.4943970000000  0.5242940000000  0.4540750000000 1.0
C      1  0.4943990000000  0.4480800000000  0.5019230000000 1.0
C      1  0.5916260000000  0.4094400000000  0.3405880000000 1.0
C      1  0.5916310000000  0.4072310000000  0.6581330000000 1.0
C      1  0.5916250000000  0.6833380000000  0.5012740000000 1.0
C      1  0.4829300000000  0.4758970000000  0.7395040000000 1.0
C      1  0.4829190000000  0.7194680000000  0.4011270000000 1.0
C      1  0.4829270000000  0.3046370000000  0.3593740000000 1.0
C      1  0.4801610000000  0.6407450000000  0.6496640000000 1.0
C      1  0.4801570000000  0.5592410000000  0.3032780000000 1.0
C      1  0.4801670000000  0.3000110000000  0.5470570000000 1.0
C      1  0.6296810000000  0.3765350000000  0.5722090000000 1.0
C      1  0.6296770000000  0.6242730000000  0.5708170000000 1.0
C      1  0.6296750000000  0.4992000000000  0.3569680000000 1.0
C      1  0.4950900000000  0.7957320000000  0.4517690000000 1.0
C      1  0.4950960000000  0.3103660000000  0.2680060000000 1.0
C      1  0.4951030000000  0.3939080000000  0.7802280000000 1.0
C      1  0.7137060000000  0.5981200000000  0.5720610000000 1.0
C      1  0.7137050000000  0.5133560000000  0.3789940000000 1.0
C      1  0.7137090000000  0.3885350000000  0.5489360000000 1.0
C      1  0.2805870000000  0.4331770000000  0.4328160000000 1.0
C      1  0.2805880000000  0.4752180000000  0.5914630000000 1.0
C      1  0.2805830000000  0.5915900000000  0.4757300000000 1.0
C      1  0.8273980000000  0.5808440000000  0.4578790000000 1.0
C      1  0.8274000000000  0.4231110000000  0.4510460000000 1.0
C      1  0.8274010000000  0.4960600000000  0.5910630000000 1.0
C      1  0.2757430000000  0.5265060000000  0.4083820000000 1.0
C      1  0.2757480000000  0.4073930000000  0.5228550000000 1.0
C      1  0.2757450000000  0.5660860000000  0.5687730000000 1.0
C      1  0.3413740000000  0.3881470000000  0.3738110000000 1.0
C      1  0.3413770000000  0.4466360000000  0.6599630000000 1.0
C      1  0.3413690000000  0.6652070000000  0.4662340000000 1.0
C      1  0.5518490000000  0.5748240000000  0.6204010000000 1.0
C      1  0.5518450000000  0.5668620000000  0.3749990000000 1.0
C      1  0.5518510000000  0.3583160000000  0.5045960000000 1.0
C      1  0.3310420000000  0.5387390000000  0.3321750000000 1.0
C      1  0.3310490000000  0.3352820000000  0.5503650000000 1.0
C      1  0.3310440000000  0.6259680000000  0.6174670000000 1.0
C      1  0.5618630000000  0.6609610000000  0.4099660000000 1.0
C      1  0.5618690000000  0.3415500000000  0.4056210000000 1.0
C      1  0.5618710000000  0.4974940000000  0.6844100000000 1.0
C      1  0.3976890000000  0.5086080000000  0.7080580000000 1.0
C      1  0.3976810000000  0.6758760000000  0.3885180000000 1.0
C      1  0.3976890000000  0.3155100000000  0.4034290000000 1.0
C      1  0.3701490000000  0.3585050000000  0.6350320000000 1.0
C      1  0.3701400000000  0.6876840000000  0.5550220000000 1.0
C      1  0.3701420000000  0.4538040000000  0.3099500000000 1.0
C      1  0.3977110000000  0.6058660000000  0.3258030000000 1.0
C      1  0.3977200000000  0.2962010000000  0.4954170000000 1.0
C      1  0.3977170000000  0.5979250000000  0.6787850000000 1.0
C      1  0.7965800000000  0.4224600000000  0.5406700000000 1.0
C      1  0.7965780000000  0.5740020000000  0.5468150000000 1.0
C      1  0.7965770000000  0.5035520000000  0.4125040000000 1.0
END
