TITL C-3701779-4465-234 -0.0032951960144642 3375 -405.487637662777 0 0 60 (C3i) n - 1
REM
REM in /scratch/bkarasulu/791
REM
REM
REM
REM
REM
REM ./C.cell (830fe4e9c99271719e6d0bb221258042)
REM AIRSS Version 0.9.1 bugfix July 2018 build 013d7b7c2542+ Fri, 06 Jul 2018 19:26:36 +0100
REM compiler GCC version 9.2.1 20190827 (Red Hat 9.2.1-1)
REM options -cpp -mtune=generic -march=x86-64 -g -O0 -fpre-include=/usr/include/finclude/math-vector-fortran.h
REM seed 1778577740 -2091085996 -943160514 -963684435 548946701 1028000190 -54393044 -1815820967 -1788448008 2073256529 1339552953 268625799 -571446964 -1349246219 -886316169 -1673821866 -311684972 2109633016 -1432538447 798127616 -1131889473 -371105781 1235086116 -2121968011 -1993886456 -768958272 479093201 88503665 -1597934843 -1012779022 1370450139 -889287621 1190544601
REM
CELL 1.54180   15.00000   15.00000   15.00000   90.00000   90.00000   90.00000
LATT -1
SFAC C  
C      1  0.4104880000000  0.3554100000000  0.6219830000000 1.0
C      1  0.4195330000000  0.6498170000000  0.6219800000000 1.0
C      1  0.6699820000000  0.4947810000000  0.6219830000000 1.0
C      1  0.4104880000000  0.6445900000000  0.3780170000000 1.0
C      1  0.4195330000000  0.3501830000000  0.3780200000000 1.0
C      1  0.6699820000000  0.5052190000000  0.3780170000000 1.0
C      1  0.5895120000000  0.6445900000000  0.3780170000000 1.0
C      1  0.5804670000000  0.3501830000000  0.3780200000000 1.0
C      1  0.3300180000000  0.5052190000000  0.3780170000000 1.0
C      1  0.5895120000000  0.3554100000000  0.6219830000000 1.0
C      1  0.5804670000000  0.6498170000000  0.6219800000000 1.0
C      1  0.3300180000000  0.4947810000000  0.6219830000000 1.0
C      1  0.3600260000000  0.5285640000000  0.5398910000000 1.0
C      1  0.5947180000000  0.6069300000000  0.5398900000000 1.0
C      1  0.5452470000000  0.3645090000000  0.5398930000000 1.0
C      1  0.3600260000000  0.4714360000000  0.4601090000000 1.0
C      1  0.5947180000000  0.3930700000000  0.4601100000000 1.0
C      1  0.5452470000000  0.6354910000000  0.4601070000000 1.0
C      1  0.6399740000000  0.4714360000000  0.4601090000000 1.0
C      1  0.4052820000000  0.3930700000000  0.4601100000000 1.0
C      1  0.4547530000000  0.6354910000000  0.4601070000000 1.0
C      1  0.6399740000000  0.5285640000000  0.5398910000000 1.0
C      1  0.4052820000000  0.6069300000000  0.5398900000000 1.0
C      1  0.4547530000000  0.3645090000000  0.5398930000000 1.0
C      1  0.6829360000000  0.6624430000000  0.4029610000000 1.0
C      1  0.5492160000000  0.2603490000000  0.4029650000000 1.0
C      1  0.2678430000000  0.5771990000000  0.4029610000000 1.0
C      1  0.6829360000000  0.3375570000000  0.5970390000000 1.0
C      1  0.5492160000000  0.7396510000000  0.5970350000000 1.0
C      1  0.2678430000000  0.4228010000000  0.5970390000000 1.0
C      1  0.3170640000000  0.3375570000000  0.5970390000000 1.0
C      1  0.4507840000000  0.7396510000000  0.5970350000000 1.0
C      1  0.7321570000000  0.4228010000000  0.5970390000000 1.0
C      1  0.3170640000000  0.6624430000000  0.4029610000000 1.0
C      1  0.4507840000000  0.2603490000000  0.4029650000000 1.0
C      1  0.7321570000000  0.5771990000000  0.4029610000000 1.0
C      1  0.6173650000000  0.2351700000000  0.4706770000000 1.0
C      1  0.2119590000000  0.5307710000000  0.4706720000000 1.0
C      1  0.6706620000000  0.7340500000000  0.4706720000000 1.0
C      1  0.6173650000000  0.7648300000000  0.5293230000000 1.0
C      1  0.2119590000000  0.4692290000000  0.5293280000000 1.0
C      1  0.6706620000000  0.2659500000000  0.5293280000000 1.0
C      1  0.3826350000000  0.7648300000000  0.5293230000000 1.0
C      1  0.7880410000000  0.4692290000000  0.5293280000000 1.0
C      1  0.3293380000000  0.2659500000000  0.5293280000000 1.0
C      1  0.3826350000000  0.2351700000000  0.4706770000000 1.0
C      1  0.7880410000000  0.5307710000000  0.4706720000000 1.0
C      1  0.3293380000000  0.7340500000000  0.4706720000000 1.0
C      1  0.4518130000000  0.4164590000000  0.3144470000000 1.0
C      1  0.4517460000000  0.5834960000000  0.3144450000000 1.0
C      1  0.5964420000000  0.5000360000000  0.3144460000000 1.0
C      1  0.4518130000000  0.5835410000000  0.6855530000000 1.0
C      1  0.4517460000000  0.4165040000000  0.6855550000000 1.0
C      1  0.5964420000000  0.4999640000000  0.6855540000000 1.0
C      1  0.5481870000000  0.5835410000000  0.6855530000000 1.0
C      1  0.5482540000000  0.4165040000000  0.6855550000000 1.0
C      1  0.4035580000000  0.4999640000000  0.6855540000000 1.0
C      1  0.5481870000000  0.4164590000000  0.3144470000000 1.0
C      1  0.5482540000000  0.5834960000000  0.3144450000000 1.0
C      1  0.4035580000000  0.5000360000000  0.3144460000000 1.0
END
