TITL C-3701779-4465-74 -0.00168250890726775 3375 -404.607546180002 0 0 60 (Cs) n - 1
REM
REM in /scratch/bkarasulu/791
REM
REM
REM
REM
REM
REM ./C.cell (830fe4e9c99271719e6d0bb221258042)
REM AIRSS Version 0.9.1 bugfix July 2018 build 013d7b7c2542+ Fri, 06 Jul 2018 19:26:36 +0100
REM compiler GCC version 9.2.1 20190827 (Red Hat 9.2.1-1)
REM options -cpp -mtune=generic -march=x86-64 -g -O0 -fpre-include=/usr/include/finclude/math-vector-fortran.h
REM seed 1387957968 -1318119114 -2057510247 -352670561 -1536787226 -1273156998 -235742035 -1572102830 -28542282 -1102366719 -1895446761 1160345384 -292623283 -1901317787 1588719139 -1247213663 -1032207464 702435870 -876186121 -1327277134 -596431955 -507521811 -353122348 -454462062 780661715 -899836743 1399876220 1877513146 -1530831605 -643262423 -1661714447 1022469047 -1726706082
REM
CELL 1.54180   15.00000   15.00000   15.00000   90.00000   90.00000   90.00000
LATT -1
SFAC C  
C      1  0.4506590000000  0.5299070000000  0.7084250000000 1.0
C      1  0.5493410000000  0.5299070000000  0.7084250000000 1.0
C      1  0.5497570000000  0.2839110000000  0.5205270000000 1.0
C      1  0.4502430000000  0.2839110000000  0.5205270000000 1.0
C      1  0.7270250000000  0.5256370000000  0.5341770000000 1.0
C      1  0.2729750000000  0.5256370000000  0.5341770000000 1.0
C      1  0.2325840000000  0.3615240000000  0.5344830000000 1.0
C      1  0.7674160000000  0.3615240000000  0.5344830000000 1.0
C      1  0.6191980000000  0.6222920000000  0.3498770000000 1.0
C      1  0.3808020000000  0.6222920000000  0.3498770000000 1.0
C      1  0.7071980000000  0.3104480000000  0.5024950000000 1.0
C      1  0.2928020000000  0.3104480000000  0.5024950000000 1.0
C      1  0.3104460000000  0.6184220000000  0.4149200000000 1.0
C      1  0.6895540000000  0.6184220000000  0.4149200000000 1.0
C      1  0.6122870000000  0.7133620000000  0.5275840000000 1.0
C      1  0.3877130000000  0.7133620000000  0.5275840000000 1.0
C      1  0.3930830000000  0.5256080000000  0.3275580000000 1.0
C      1  0.6069170000000  0.5256080000000  0.3275580000000 1.0
C      1  0.7340610000000  0.4424830000000  0.5803140000000 1.0
C      1  0.2659390000000  0.4424830000000  0.5803140000000 1.0
C      1  0.5486020000000  0.5308400000000  0.4157350000000 1.0
C      1  0.4513980000000  0.5308400000000  0.4157350000000 1.0
C      1  0.5490060000000  0.7294820000000  0.4594160000000 1.0
C      1  0.4509940000000  0.7294820000000  0.4594160000000 1.0
C      1  0.5492260000000  0.4696710000000  0.2731530000000 1.0
C      1  0.4507740000000  0.4696710000000  0.2731530000000 1.0
C      1  0.6754580000000  0.4218810000000  0.6525110000000 1.0
C      1  0.3245420000000  0.4218810000000  0.6525110000000 1.0
C      1  0.3758980000000  0.3072460000000  0.4596220000000 1.0
C      1  0.6241020000000  0.3072460000000  0.4596220000000 1.0
C      1  0.5500990000000  0.6871820000000  0.3709590000000 1.0
C      1  0.4499010000000  0.6871820000000  0.3709590000000 1.0
C      1  0.3109950000000  0.6682180000000  0.4925340000000 1.0
C      1  0.6890050000000  0.6682180000000  0.4925340000000 1.0
C      1  0.4510200000000  0.3065230000000  0.6158170000000 1.0
C      1  0.5489800000000  0.3065230000000  0.6158170000000 1.0
C      1  0.4506030000000  0.4387420000000  0.4540710000000 1.0
C      1  0.5493970000000  0.4387420000000  0.4540710000000 1.0
C      1  0.3952880000000  0.4515520000000  0.7049100000000 1.0
C      1  0.6047120000000  0.4515520000000  0.7049100000000 1.0
C      1  0.5485880000000  0.4767430000000  0.5491560000000 1.0
C      1  0.4514120000000  0.4767430000000  0.5491560000000 1.0
C      1  0.3275180000000  0.4659570000000  0.3773080000000 1.0
C      1  0.6724820000000  0.4659570000000  0.3773080000000 1.0
C      1  0.4483890000000  0.6198790000000  0.6678880000000 1.0
C      1  0.5516110000000  0.6198790000000  0.6678880000000 1.0
C      1  0.6202800000000  0.6592610000000  0.6143260000000 1.0
C      1  0.3797200000000  0.6592610000000  0.6143260000000 1.0
C      1  0.3930010000000  0.3613720000000  0.6662250000000 1.0
C      1  0.6069990000000  0.3613720000000  0.6662250000000 1.0
C      1  0.3025710000000  0.6118860000000  0.5700170000000 1.0
C      1  0.6974290000000  0.6118860000000  0.5700170000000 1.0
C      1  0.4504310000000  0.3808310000000  0.3121810000000 1.0
C      1  0.5495690000000  0.3808310000000  0.3121810000000 1.0
C      1  0.4481610000000  0.5683980000000  0.5099910000000 1.0
C      1  0.5518390000000  0.5683980000000  0.5099910000000 1.0
C      1  0.6088300000000  0.3830800000000  0.3947690000000 1.0
C      1  0.3911700000000  0.3830800000000  0.3947690000000 1.0
C      1  0.2871530000000  0.5276630000000  0.4390500000000 1.0
C      1  0.7128470000000  0.5276630000000  0.4390500000000 1.0
END
