TITL C-3701779-4465-163 -0.00307367128679277 3375 -403.735560799696 0 0 60 (C6) n - 1
REM
REM in /scratch/bkarasulu/791
REM
REM
REM
REM
REM
REM ./C.cell (830fe4e9c99271719e6d0bb221258042)
REM AIRSS Version 0.9.1 bugfix July 2018 build 013d7b7c2542+ Fri, 06 Jul 2018 19:26:36 +0100
REM compiler GCC version 9.2.1 20190827 (Red Hat 9.2.1-1)
REM options -cpp -mtune=generic -march=x86-64 -g -O0 -fpre-include=/usr/include/finclude/math-vector-fortran.h
REM seed 415928557 1302583064 -1797303351 1830201451 -1024673216 1064396459 -123060172 -771936696 75074940 1340560683 1900732443 1829527904 -1946355373 -1129212507 1005005982 1388602278 -1327466592 104796333 -460207775 660518916 -645576007 -667763255 253045202 -994063464 1789878062 987810950 2129721688 1333815127 -559603122 -1430561116 -1712308750 1993557393 -1218854865
REM
CELL 1.54180   15.00000   15.00000   15.00000   90.00000   90.00000   90.00000
LATT -1
SFAC C  
C      1  0.5274290000000  0.6196600000000  0.3250040000000 1.0
C      1  0.3621660000000  0.6196580000000  0.3887490000000 1.0
C      1  0.3347370000000  0.6196600000000  0.5637410000000 1.0
C      1  0.4725710000000  0.6196600000000  0.6749960000000 1.0
C      1  0.6378340000000  0.6196580000000  0.6112510000000 1.0
C      1  0.6652630000000  0.6196600000000  0.4362590000000 1.0
C      1  0.5274290000000  0.3803400000000  0.6749960000000 1.0
C      1  0.3621660000000  0.3803420000000  0.6112510000000 1.0
C      1  0.3347370000000  0.3803400000000  0.4362590000000 1.0
C      1  0.4725710000000  0.3803400000000  0.3250040000000 1.0
C      1  0.6378340000000  0.3803420000000  0.3887490000000 1.0
C      1  0.6652630000000  0.3803400000000  0.5637410000000 1.0
C      1  0.4175800000000  0.3890200000000  0.8072010000000 1.0
C      1  0.7248250000000  0.3890160000000  0.7249760000000 1.0
C      1  0.8072520000000  0.3890200000000  0.4177840000000 1.0
C      1  0.5824200000000  0.3890200000000  0.1927990000000 1.0
C      1  0.2751750000000  0.3890160000000  0.2750240000000 1.0
C      1  0.1927480000000  0.3890200000000  0.5822160000000 1.0
C      1  0.4175800000000  0.6109800000000  0.1927990000000 1.0
C      1  0.7248250000000  0.6109840000000  0.2750240000000 1.0
C      1  0.8072520000000  0.6109800000000  0.5822160000000 1.0
C      1  0.5824200000000  0.6109800000000  0.8072010000000 1.0
C      1  0.2751750000000  0.6109840000000  0.7249760000000 1.0
C      1  0.1927480000000  0.6109800000000  0.4177840000000 1.0
C      1  0.4863620000000  0.3271260000000  0.4056690000000 1.0
C      1  0.4114900000000  0.3271260000000  0.4646460000000 1.0
C      1  0.4251270000000  0.3271270000000  0.5589760000000 1.0
C      1  0.5136380000000  0.3271260000000  0.5943310000000 1.0
C      1  0.5885100000000  0.3271260000000  0.5353540000000 1.0
C      1  0.5748730000000  0.3271270000000  0.4410240000000 1.0
C      1  0.4863620000000  0.6728740000000  0.5943310000000 1.0
C      1  0.4114900000000  0.6728740000000  0.5353540000000 1.0
C      1  0.4251270000000  0.6728730000000  0.4410240000000 1.0
C      1  0.5136380000000  0.6728740000000  0.4056690000000 1.0
C      1  0.5885100000000  0.6728740000000  0.4646460000000 1.0
C      1  0.5748730000000  0.6728730000000  0.5589760000000 1.0
C      1  0.2718480000000  0.3691720000000  0.5992290000000 1.0
C      1  0.4718630000000  0.3691670000000  0.7472060000000 1.0
C      1  0.7000110000000  0.3691650000000  0.6479680000000 1.0
C      1  0.7281520000000  0.3691720000000  0.4007710000000 1.0
C      1  0.5281370000000  0.3691670000000  0.2527940000000 1.0
C      1  0.2999890000000  0.3691650000000  0.3520320000000 1.0
C      1  0.2718480000000  0.6308280000000  0.4007710000000 1.0
C      1  0.4718630000000  0.6308330000000  0.2527940000000 1.0
C      1  0.7000110000000  0.6308350000000  0.3520320000000 1.0
C      1  0.7281520000000  0.6308280000000  0.5992290000000 1.0
C      1  0.5281370000000  0.6308330000000  0.7472060000000 1.0
C      1  0.2999890000000  0.6308350000000  0.6479680000000 1.0
C      1  0.3831890000000  0.5218950000000  0.3829470000000 1.0
C      1  0.3402230000000  0.5218960000000  0.5426360000000 1.0
C      1  0.4570350000000  0.5218960000000  0.6596920000000 1.0
C      1  0.6168110000000  0.5218950000000  0.6170530000000 1.0
C      1  0.6597770000000  0.5218960000000  0.4573640000000 1.0
C      1  0.5429650000000  0.5218960000000  0.3403080000000 1.0
C      1  0.3831890000000  0.4781050000000  0.6170530000000 1.0
C      1  0.3402230000000  0.4781040000000  0.4573640000000 1.0
C      1  0.4570350000000  0.4781040000000  0.3403080000000 1.0
C      1  0.6168110000000  0.4781050000000  0.3829470000000 1.0
C      1  0.6597770000000  0.4781040000000  0.5426360000000 1.0
C      1  0.5429650000000  0.4781040000000  0.6596920000000 1.0
END
