TITL C-3701779-4465-206 -0.00244181129133088 3375 -389.564142712034 0 0 60 (C5v) n - 1
REM
REM in /scratch/bkarasulu/791
REM
REM
REM
REM
REM
REM ./C.cell (830fe4e9c99271719e6d0bb221258042)
REM AIRSS Version 0.9.1 bugfix July 2018 build 013d7b7c2542+ Fri, 06 Jul 2018 19:26:36 +0100
REM compiler GCC version 9.2.1 20190827 (Red Hat 9.2.1-1)
REM options -cpp -mtune=generic -march=x86-64 -g -O0 -fpre-include=/usr/include/finclude/math-vector-fortran.h
REM seed -314894690 -953130374 1160772773 1118439693 52933188 -1801782031 -2024889364 -487299077 998314410 -1511332674 965661023 1033441378 -1103224782 -1860114655 -1121184609 -385486143 -1943296829 -1697370021 1515381333 -1043123490 -2116275814 -1127649507 2031220541 -1332807900 1015570006 1357781533 -995568779 -1712293149 21747079 782792565 1708835299 -173618102 -933772126
REM
CELL 1.54180   15.00000   15.00000   15.00000   90.00000   90.00000   90.00000
LATT -1
SFAC C  
C      1  0.3454950000000  0.3161200000000  0.5020160000000 1.0
C      1  0.4541720000000  0.3161210000000  0.6475680000000 1.0
C      1  0.6261810000000  0.3161210000000  0.5891870000000 1.0
C      1  0.6238120000000  0.3161200000000  0.4075560000000 1.0
C      1  0.4503390000000  0.3161190000000  0.3536810000000 1.0
C      1  0.6545050000000  0.3161200000000  0.5020160000000 1.0
C      1  0.5458280000000  0.3161210000000  0.6475680000000 1.0
C      1  0.3738190000000  0.3161210000000  0.5891870000000 1.0
C      1  0.3761880000000  0.3161200000000  0.4075560000000 1.0
C      1  0.5496610000000  0.3161190000000  0.3536810000000 1.0
C      1  0.4472280000000  0.4831050000000  0.3435570000000 1.0
C      1  0.3349110000000  0.4831070000000  0.5018460000000 1.0
C      1  0.4507400000000  0.4831070000000  0.6575830000000 1.0
C      1  0.6346440000000  0.4831070000000  0.5955450000000 1.0
C      1  0.6324760000000  0.4831060000000  0.4014680000000 1.0
C      1  0.5527720000000  0.4831050000000  0.3435570000000 1.0
C      1  0.6650890000000  0.4831070000000  0.5018460000000 1.0
C      1  0.5492600000000  0.4831070000000  0.6575830000000 1.0
C      1  0.3653560000000  0.4831070000000  0.5955450000000 1.0
C      1  0.3675240000000  0.4831060000000  0.4014680000000 1.0
C      1  0.2896500000000  0.3958030000000  0.4811790000000 1.0
C      1  0.4170980000000  0.3958040000000  0.6942400000000 1.0
C      1  0.6591120000000  0.3958040000000  0.6388680000000 1.0
C      1  0.6812400000000  0.3958030000000  0.3915880000000 1.0
C      1  0.4528990000000  0.3958010000000  0.2941280000000 1.0
C      1  0.7103500000000  0.3958030000000  0.4811790000000 1.0
C      1  0.5829020000000  0.3958040000000  0.6942400000000 1.0
C      1  0.3408880000000  0.3958040000000  0.6388680000000 1.0
C      1  0.3187600000000  0.3958030000000  0.3915880000000 1.0
C      1  0.5471010000000  0.3958010000000  0.2941280000000 1.0
C      1  0.4534390000000  0.6517720000000  0.6411930000000 1.0
C      1  0.6198930000000  0.6517710000000  0.5879120000000 1.0
C      1  0.6206590000000  0.6517690000000  0.4131390000000 1.0
C      1  0.4546770000000  0.6517680000000  0.3584010000000 1.0
C      1  0.3513310000000  0.6517700000000  0.4993470000000 1.0
C      1  0.5465610000000  0.6517720000000  0.6411930000000 1.0
C      1  0.3801070000000  0.6517710000000  0.5879120000000 1.0
C      1  0.3793410000000  0.6517690000000  0.4131390000000 1.0
C      1  0.5453230000000  0.6517680000000  0.3584010000000 1.0
C      1  0.6486690000000  0.6517700000000  0.4993470000000 1.0
C      1  0.5514620000000  0.5714300000000  0.7098160000000 1.0
C      1  0.7154470000000  0.5714280000000  0.5158920000000 1.0
C      1  0.5816920000000  0.5714260000000  0.3000050000000 1.0
C      1  0.3350400000000  0.5714270000000  0.3605060000000 1.0
C      1  0.3163590000000  0.5714290000000  0.6137800000000 1.0
C      1  0.4485380000000  0.5714300000000  0.7098160000000 1.0
C      1  0.2845530000000  0.5714280000000  0.5158920000000 1.0
C      1  0.4183080000000  0.5714260000000  0.3000050000000 1.0
C      1  0.6649600000000  0.5714270000000  0.3605060000000 1.0
C      1  0.6836410000000  0.5714290000000  0.6137800000000 1.0
C      1  0.2946640000000  0.5817740000000  0.7053030000000 1.0
C      1  0.6318010000000  0.5817760000000  0.7587320000000 1.0
C      1  0.7867980000000  0.5817720000000  0.4546030000000 1.0
C      1  0.5454480000000  0.5817690000000  0.2132070000000 1.0
C      1  0.2412910000000  0.5817710000000  0.3681560000000 1.0
C      1  0.7053360000000  0.5817740000000  0.7053030000000 1.0
C      1  0.3681990000000  0.5817760000000  0.7587320000000 1.0
C      1  0.2132020000000  0.5817720000000  0.4546030000000 1.0
C      1  0.4545520000000  0.5817690000000  0.2132070000000 1.0
C      1  0.7587090000000  0.5817710000000  0.3681560000000 1.0
END
