TITL C-3701779-4465-155 -0.00395292732980688 3375 -391.371676166917 0 0 60 (Td) n - 1
REM
REM in /scratch/bkarasulu/791
REM
REM
REM
REM
REM
REM ./C.cell (830fe4e9c99271719e6d0bb221258042)
REM AIRSS Version 0.9.1 bugfix July 2018 build 013d7b7c2542+ Fri, 06 Jul 2018 19:26:36 +0100
REM compiler GCC version 9.2.1 20190827 (Red Hat 9.2.1-1)
REM options -cpp -mtune=generic -march=x86-64 -g -O0 -fpre-include=/usr/include/finclude/math-vector-fortran.h
REM seed 366871486 35895535 -2105734284 -524484142 -1024195810 -1304797072 1892163426 1160258212 172675806 2072215487 -1884355508 -15465120 -1656716784 550309741 -2012448780 -7862588 -1067013276 591925053 -148571092 1250940393 372165130 -1061477883 1383501161 774428571 1817603550 133945252 1411322114 102026363 323641830 -2009065601 1583914133 339952227 1318697462
REM
CELL 1.54180   15.00000   15.00000   15.00000   90.00000   90.00000   90.00000
LATT -1
SFAC C  
C      1  0.2827450000000  0.4157170000000  0.6503270000000 1.0
C      1  0.4157170000000  0.6503270000000  0.2827450000000 1.0
C      1  0.6503270000000  0.2827450000000  0.4157170000000 1.0
C      1  0.7172550000000  0.5842830000000  0.6503270000000 1.0
C      1  0.2827450000000  0.5842830000000  0.3496730000000 1.0
C      1  0.7172550000000  0.4157170000000  0.3496730000000 1.0
C      1  0.5842830000000  0.3496730000000  0.2827450000000 1.0
C      1  0.4157170000000  0.3496730000000  0.7172550000000 1.0
C      1  0.5842830000000  0.6503270000000  0.7172550000000 1.0
C      1  0.3496730000000  0.7172550000000  0.4157170000000 1.0
C      1  0.6503270000000  0.7172550000000  0.5842830000000 1.0
C      1  0.3496730000000  0.2827450000000  0.5842830000000 1.0
C      1  0.4157170000000  0.2827450000000  0.6503270000000 1.0
C      1  0.6503270000000  0.4157170000000  0.2827450000000 1.0
C      1  0.2827450000000  0.6503270000000  0.4157170000000 1.0
C      1  0.5842830000000  0.7172550000000  0.6503270000000 1.0
C      1  0.5842830000000  0.2827450000000  0.3496730000000 1.0
C      1  0.4157170000000  0.7172550000000  0.3496730000000 1.0
C      1  0.3496730000000  0.5842830000000  0.2827450000000 1.0
C      1  0.3496730000000  0.4157170000000  0.7172550000000 1.0
C      1  0.6503270000000  0.5842830000000  0.7172550000000 1.0
C      1  0.7172550000000  0.3496730000000  0.4157170000000 1.0
C      1  0.7172550000000  0.6503270000000  0.5842830000000 1.0
C      1  0.2827450000000  0.3496730000000  0.5842830000000 1.0
C      1  0.3421940000000  0.5138560000000  0.7238000000000 1.0
C      1  0.5138560000000  0.7238000000000  0.3421940000000 1.0
C      1  0.7238000000000  0.3421940000000  0.5138560000000 1.0
C      1  0.6578060000000  0.4861440000000  0.7238000000000 1.0
C      1  0.3421940000000  0.4861440000000  0.2762000000000 1.0
C      1  0.6578060000000  0.5138560000000  0.2762000000000 1.0
C      1  0.4861440000000  0.2762000000000  0.3421940000000 1.0
C      1  0.5138560000000  0.2762000000000  0.6578060000000 1.0
C      1  0.4861440000000  0.7238000000000  0.6578060000000 1.0
C      1  0.2762000000000  0.6578060000000  0.5138560000000 1.0
C      1  0.7238000000000  0.6578060000000  0.4861440000000 1.0
C      1  0.2762000000000  0.3421940000000  0.4861440000000 1.0
C      1  0.5138560000000  0.3421940000000  0.7238000000000 1.0
C      1  0.7238000000000  0.5138560000000  0.3421940000000 1.0
C      1  0.3421940000000  0.7238000000000  0.5138560000000 1.0
C      1  0.4861440000000  0.6578060000000  0.7238000000000 1.0
C      1  0.4861440000000  0.3421940000000  0.2762000000000 1.0
C      1  0.5138560000000  0.6578060000000  0.2762000000000 1.0
C      1  0.2762000000000  0.4861440000000  0.3421940000000 1.0
C      1  0.2762000000000  0.5138560000000  0.6578060000000 1.0
C      1  0.7238000000000  0.4861440000000  0.6578060000000 1.0
C      1  0.6578060000000  0.2762000000000  0.5138560000000 1.0
C      1  0.6578060000000  0.7238000000000  0.4861440000000 1.0
C      1  0.3421940000000  0.2762000000000  0.4861440000000 1.0
C      1  0.6629840000000  0.5912740000000  0.3370160000000 1.0
C      1  0.5912740000000  0.3370160000000  0.6629840000000 1.0
C      1  0.3370160000000  0.6629840000000  0.5912740000000 1.0
C      1  0.3370160000000  0.5912740000000  0.6629840000000 1.0
C      1  0.4087260000000  0.6629840000000  0.6629840000000 1.0
C      1  0.5912740000000  0.6629840000000  0.3370160000000 1.0
C      1  0.4087260000000  0.3370160000000  0.3370160000000 1.0
C      1  0.6629840000000  0.3370160000000  0.5912740000000 1.0
C      1  0.3370160000000  0.3370160000000  0.4087260000000 1.0
C      1  0.6629840000000  0.6629840000000  0.4087260000000 1.0
C      1  0.6629840000000  0.4087260000000  0.6629840000000 1.0
C      1  0.3370160000000  0.4087260000000  0.3370160000000 1.0
END
