TITL C-3701779-4465-6 -0.00160643800197754 3375 -396.952743332747 0 0 60 (C3i) n - 1
REM
REM in /scratch/bkarasulu/791
REM
REM
REM
REM
REM
REM ./C.cell (830fe4e9c99271719e6d0bb221258042)
REM AIRSS Version 0.9.1 bugfix July 2018 build 013d7b7c2542+ Fri, 06 Jul 2018 19:26:36 +0100
REM compiler GCC version 9.2.1 20190827 (Red Hat 9.2.1-1)
REM options -cpp -mtune=generic -march=x86-64 -g -O0 -fpre-include=/usr/include/finclude/math-vector-fortran.h
REM seed 190407701 -2132153807 444603496 430413521 -1518026811 49964030 62566560 771780576 -609214162 -1684692123 -1734450999 -1045578104 -1460871425 -1492279995 646078057 823467542 1898544259 -1652047222 -973028408 2002486638 2111509440 -357593943 553962516 -1306873148 1049613787 1991561818 -1361213927 -1117239795 631779872 1782184886 1856575079 1539724154 1462621632
REM
CELL 1.54180   15.00000   15.00000   15.00000   90.00000   90.00000   90.00000
LATT -1
SFAC C  
C      1  0.3751270000000  0.6574290000000  0.6171520000000 1.0
C      1  0.4609810000000  0.6574280000000  0.3332800000000 1.0
C      1  0.6638940000000  0.6574280000000  0.5495680000000 1.0
C      1  0.6248730000000  0.3425710000000  0.6171520000000 1.0
C      1  0.5390190000000  0.3425720000000  0.3332800000000 1.0
C      1  0.3361060000000  0.3425720000000  0.5495680000000 1.0
C      1  0.6248730000000  0.3425710000000  0.3828480000000 1.0
C      1  0.5390190000000  0.3425720000000  0.6667200000000 1.0
C      1  0.3361060000000  0.3425720000000  0.4504320000000 1.0
C      1  0.3751270000000  0.6574290000000  0.3828480000000 1.0
C      1  0.4609810000000  0.6574280000000  0.6667200000000 1.0
C      1  0.6638940000000  0.6574280000000  0.4504320000000 1.0
C      1  0.4995910000000  0.5520920000000  0.5959040000000 1.0
C      1  0.4171500000000  0.5520920000000  0.4516930000000 1.0
C      1  0.5832600000000  0.5520920000000  0.4524030000000 1.0
C      1  0.5004090000000  0.4479080000000  0.5959040000000 1.0
C      1  0.5828500000000  0.4479080000000  0.4516930000000 1.0
C      1  0.4167400000000  0.4479080000000  0.4524030000000 1.0
C      1  0.5004090000000  0.4479080000000  0.4040960000000 1.0
C      1  0.5828500000000  0.4479080000000  0.5483070000000 1.0
C      1  0.4167400000000  0.4479080000000  0.5475970000000 1.0
C      1  0.4995910000000  0.5520920000000  0.4040960000000 1.0
C      1  0.4171500000000  0.5520920000000  0.5483070000000 1.0
C      1  0.5832600000000  0.5520920000000  0.5475970000000 1.0
C      1  0.5821390000000  0.7140130000000  0.4510230000000 1.0
C      1  0.5013470000000  0.7140130000000  0.5956220000000 1.0
C      1  0.4165170000000  0.7140130000000  0.4533550000000 1.0
C      1  0.4178610000000  0.2859870000000  0.4510230000000 1.0
C      1  0.4986530000000  0.2859870000000  0.5956220000000 1.0
C      1  0.5834830000000  0.2859870000000  0.4533550000000 1.0
C      1  0.4178610000000  0.2859870000000  0.5489770000000 1.0
C      1  0.4986530000000  0.2859870000000  0.4043780000000 1.0
C      1  0.5834830000000  0.2859870000000  0.5466450000000 1.0
C      1  0.5821390000000  0.7140130000000  0.5489770000000 1.0
C      1  0.5013470000000  0.7140130000000  0.4043780000000 1.0
C      1  0.4165170000000  0.7140130000000  0.5466450000000 1.0
C      1  0.3348990000000  0.5705810000000  0.3962180000000 1.0
C      1  0.6724290000000  0.5705800000000  0.4089090000000 1.0
C      1  0.4926730000000  0.5705810000000  0.6948740000000 1.0
C      1  0.6651010000000  0.4294190000000  0.3962180000000 1.0
C      1  0.3275710000000  0.4294200000000  0.4089090000000 1.0
C      1  0.5073270000000  0.4294190000000  0.6948740000000 1.0
C      1  0.6651010000000  0.4294190000000  0.6037820000000 1.0
C      1  0.3275710000000  0.4294200000000  0.5910910000000 1.0
C      1  0.5073270000000  0.4294190000000  0.3051260000000 1.0
C      1  0.3348990000000  0.5705810000000  0.6037820000000 1.0
C      1  0.6724290000000  0.5705800000000  0.5910910000000 1.0
C      1  0.4926730000000  0.5705810000000  0.3051260000000 1.0
C      1  0.6495730000000  0.5052890000000  0.3307480000000 1.0
C      1  0.5717900000000  0.5052890000000  0.7141610000000 1.0
C      1  0.2786360000000  0.5052900000000  0.4550920000000 1.0
C      1  0.3504270000000  0.4947110000000  0.3307480000000 1.0
C      1  0.4282100000000  0.4947110000000  0.7141610000000 1.0
C      1  0.7213640000000  0.4947100000000  0.4550920000000 1.0
C      1  0.3504270000000  0.4947110000000  0.6692520000000 1.0
C      1  0.4282100000000  0.4947110000000  0.2858390000000 1.0
C      1  0.7213640000000  0.4947100000000  0.5449080000000 1.0
C      1  0.6495730000000  0.5052890000000  0.6692520000000 1.0
C      1  0.5717900000000  0.5052890000000  0.2858390000000 1.0
C      1  0.2786360000000  0.5052900000000  0.5449080000000 1.0
END
