TITL C-247201-3759-662 -2.74561745495869e-08 125000 -102.213825933245 0 0 18 (C1) n - 1
REM
REM in /home/nfs/bkarasulu/CARBON/AIRSS/Generating-Clusters/LCBOP/Only-C1/SD-CG/FIRE-HFTN
REM
REM
REM
REM
REM
REM ./C.cell (11c1c37f851c82e70ff6c80c92926a4b)
REM AIRSS Version 0.9.1 bugfix July 2018 build 013d7b7c2542+ Fri, 06 Jul 2018 19:26:36 +0100
REM compiler GCC version 9.2.1 20190827 (Red Hat 9.2.1-1)
REM options -cpp -mtune=generic -march=x86-64 -g -O0 -fpre-include=/usr/include/finclude/math-vector-fortran.h
REM seed 934511940 400543793 745326188 1018620915 -144227352 -368036261 -103433442 -1495988774 519913536 1408224719 1559823421 85476374 -266569861 658819728 -2106964791 589798602 1409404602 144115814 1719562205 334879616 965472464 7920387 1812350197 -1767112079 729420388 2055258813 896872780 -42965615 512405746 1211567417 -216515675 -874942005 932490166
REM
CELL 1.54180   50.00000   50.00000   50.00000   90.00000   90.00000   90.00000
LATT -1
SFAC C  
C      1  0.5194170000000  0.5551790000000  0.4957880000000 1.0
C      1  0.4978410000000  0.4897290000000  0.5518840000000 1.0
C      1  0.4328810000000  0.4701750000000  0.4950480000000 1.0
C      1  0.5567980000000  0.4607800000000  0.4524820000000 1.0
C      1  0.4820610000000  0.4738350000000  0.4964190000000 1.0
C      1  0.5090980000000  0.5313210000000  0.5069430000000 1.0
C      1  0.5186470000000  0.5062130000000  0.4951430000000 1.0
C      1  0.5379780000000  0.5064940000000  0.4738980000000 1.0
C      1  0.5374420000000  0.5554040000000  0.4755490000000 1.0
C      1  0.4907610000000  0.5305780000000  0.5284020000000 1.0
C      1  0.5128520000000  0.4765020000000  0.5332130000000 1.0
C      1  0.5479640000000  0.4831030000000  0.4626210000000 1.0
C      1  0.5077680000000  0.4818700000000  0.5055460000000 1.0
C      1  0.4110000000000  0.4609480000000  0.4843110000000 1.0
C      1  0.4561910000000  0.4800010000000  0.5064940000000 1.0
C      1  0.4787760000000  0.5086970000000  0.5419790000000 1.0
C      1  0.5463960000000  0.5320940000000  0.4650120000000 1.0
C      1  0.4561290000000  0.4970770000000  0.5292660000000 1.0
END
