TITL C-247197-3123-590 3.26359353883579e-07 125000 -754.227638821558 0 0 124 (C1) n - 1
REM
REM in /home/nfs/bkarasulu/CARBON/AIRSS/Generating-Clusters/LCBOP/Only-C1/SD-CG/FIRE-HFTN
REM
REM
REM
REM
REM
REM ./C.cell (11c1c37f851c82e70ff6c80c92926a4b)
REM AIRSS Version 0.9.1 bugfix July 2018 build 013d7b7c2542+ Fri, 06 Jul 2018 19:26:36 +0100
REM compiler GCC version 9.2.1 20190827 (Red Hat 9.2.1-1)
REM options -cpp -mtune=generic -march=x86-64 -g -O0 -fpre-include=/usr/include/finclude/math-vector-fortran.h
REM seed -1753940615 -921757077 575793524 1339296345 552714496 -1901001106 -405438976 -1036019707 -1420365974 401729094 449476933 -1715778641 -86517908 -1201710038 1530416255 1011124414 923001859 374989098 -1027600052 107112871 1260510570 -1705767885 -1847889942 -1646613887 -762641270 1235657088 -888893255 -1367639089 1525753476 758396132 -1795666752 -1138850834 -256554646
REM
CELL 1.54180   50.00000   50.00000   50.00000   90.00000   90.00000   90.00000
LATT -1
SFAC C  
C      1  0.4699830000000  0.4277980000000  0.5542390000000 1.0
C      1  0.5320380000000  0.5444450000000  0.5187090000000 1.0
C      1  0.4680610000000  0.5825510000000  0.5053680000000 1.0
C      1  0.4050810000000  0.5915630000000  0.5255240000000 1.0
C      1  0.4266540000000  0.4376440000000  0.4853840000000 1.0
C      1  0.4300570000000  0.5527770000000  0.5098380000000 1.0
C      1  0.5832130000000  0.5581330000000  0.5330030000000 1.0
C      1  0.5103000000000  0.4525520000000  0.4855570000000 1.0
C      1  0.4813920000000  0.4213270000000  0.4499100000000 1.0
C      1  0.4622530000000  0.5101260000000  0.3977210000000 1.0
C      1  0.5201510000000  0.5797950000000  0.3991330000000 1.0
C      1  0.4482970000000  0.4735250000000  0.4564630000000 1.0
C      1  0.4726870000000  0.4633760000000  0.5095310000000 1.0
C      1  0.5353890000000  0.5701430000000  0.5065990000000 1.0
C      1  0.5091050000000  0.6017200000000  0.5393370000000 1.0
C      1  0.4968590000000  0.4490170000000  0.4119170000000 1.0
C      1  0.4818780000000  0.4068840000000  0.5379340000000 1.0
C      1  0.4868570000000  0.4511620000000  0.5555420000000 1.0
C      1  0.5773170000000  0.5153310000000  0.5843190000000 1.0
C      1  0.4135070000000  0.4797420000000  0.4216420000000 1.0
C      1  0.4499920000000  0.5522200000000  0.3995380000000 1.0
C      1  0.5412050000000  0.5228780000000  0.5029120000000 1.0
C      1  0.4840900000000  0.5648620000000  0.4510070000000 1.0
C      1  0.4455880000000  0.5678260000000  0.4223450000000 1.0
C      1  0.4786340000000  0.5127260000000  0.4530820000000 1.0
C      1  0.6058470000000  0.5097270000000  0.4815290000000 1.0
C      1  0.5292460000000  0.3920420000000  0.4813710000000 1.0
C      1  0.5211190000000  0.5400730000000  0.5448040000000 1.0
C      1  0.4583460000000  0.5574870000000  0.5132060000000 1.0
C      1  0.4169820000000  0.4709730000000  0.5237270000000 1.0
C      1  0.4653390000000  0.3951370000000  0.5164880000000 1.0
C      1  0.5327840000000  0.5006240000000  0.5980330000000 1.0
C      1  0.3921920000000  0.5319560000000  0.5666240000000 1.0
C      1  0.4813140000000  0.3912550000000  0.4927450000000 1.0
C      1  0.4924340000000  0.5365730000000  0.5466290000000 1.0
C      1  0.4194150000000  0.4829110000000  0.4974840000000 1.0
C      1  0.5652050000000  0.4518410000000  0.4786670000000 1.0
C      1  0.4149050000000  0.5099480000000  0.4918960000000 1.0
C      1  0.4761640000000  0.4905460000000  0.4950180000000 1.0
C      1  0.4750050000000  0.4017420000000  0.4672770000000 1.0
C      1  0.5459440000000  0.4793130000000  0.5148470000000 1.0
C      1  0.4743300000000  0.5364110000000  0.5235110000000 1.0
C      1  0.5602770000000  0.4293150000000  0.5272100000000 1.0
C      1  0.4680600000000  0.5793260000000  0.4349440000000 1.0
C      1  0.5800180000000  0.5783940000000  0.5130340000000 1.0
C      1  0.4406540000000  0.4773120000000  0.4290310000000 1.0
C      1  0.4392340000000  0.5275300000000  0.3928380000000 1.0
C      1  0.4841780000000  0.5386180000000  0.4559560000000 1.0
C      1  0.4268940000000  0.4261570000000  0.5116670000000 1.0
C      1  0.5105950000000  0.4043800000000  0.5277470000000 1.0
C      1  0.5046020000000  0.5037810000000  0.6006470000000 1.0
C      1  0.5766890000000  0.4849230000000  0.4433430000000 1.0
C      1  0.5243780000000  0.5553350000000  0.4105990000000 1.0
C      1  0.5775620000000  0.4422430000000  0.5469010000000 1.0
C      1  0.5927030000000  0.5337470000000  0.5209440000000 1.0
C      1  0.4940740000000  0.5988310000000  0.5612550000000 1.0
C      1  0.5703940000000  0.4652010000000  0.5921200000000 1.0
C      1  0.5967660000000  0.4611310000000  0.5370540000000 1.0
C      1  0.5495960000000  0.5370820000000  0.4548790000000 1.0
C      1  0.4131400000000  0.5178900000000  0.3919200000000 1.0
C      1  0.4796760000000  0.5333220000000  0.5726080000000 1.0
C      1  0.4243160000000  0.5612570000000  0.4398330000000 1.0
C      1  0.5701220000000  0.4416860000000  0.5745410000000 1.0
C      1  0.5447900000000  0.4296670000000  0.5829060000000 1.0
C      1  0.5607710000000  0.5712810000000  0.4925400000000 1.0
C      1  0.4429560000000  0.4416830000000  0.5576350000000 1.0
C      1  0.5652920000000  0.5562300000000  0.5553270000000 1.0
C      1  0.4261080000000  0.4453150000000  0.5334800000000 1.0
C      1  0.4151450000000  0.6149800000000  0.5173110000000 1.0
C      1  0.4803560000000  0.5834920000000  0.5783710000000 1.0
C      1  0.5960090000000  0.5120650000000  0.5653260000000 1.0
C      1  0.5278420000000  0.4235010000000  0.4416250000000 1.0
C      1  0.5310450000000  0.4853910000000  0.4551170000000 1.0
C      1  0.4016640000000  0.4973990000000  0.4050940000000 1.0
C      1  0.5687110000000  0.5473870000000  0.4764000000000 1.0
C      1  0.5443650000000  0.4834680000000  0.5419830000000 1.0
C      1  0.4301440000000  0.4647810000000  0.4773640000000 1.0
C      1  0.5574550000000  0.4988300000000  0.4987590000000 1.0
C      1  0.4747870000000  0.4855800000000  0.4644740000000 1.0
C      1  0.5657040000000  0.4351720000000  0.4998130000000 1.0
C      1  0.5057350000000  0.4655290000000  0.4579790000000 1.0
C      1  0.5431380000000  0.5520730000000  0.4316520000000 1.0
C      1  0.4865720000000  0.4427580000000  0.4969890000000 1.0
C      1  0.5709660000000  0.4908860000000  0.4176840000000 1.0
C      1  0.4785620000000  0.4647410000000  0.4006570000000 1.0
C      1  0.5259360000000  0.4506290000000  0.5903110000000 1.0
C      1  0.4797030000000  0.5081450000000  0.5872330000000 1.0
C      1  0.5092630000000  0.4597160000000  0.5691290000000 1.0
C      1  0.4171620000000  0.5493700000000  0.4626870000000 1.0
C      1  0.4380700000000  0.4008420000000  0.5154490000000 1.0
C      1  0.5433000000000  0.4735810000000  0.6001870000000 1.0
C      1  0.6049730000000  0.4854100000000  0.5247290000000 1.0
C      1  0.4592160000000  0.4870000000000  0.5860940000000 1.0
C      1  0.4739150000000  0.4690950000000  0.5375500000000 1.0
C      1  0.5287080000000  0.5104730000000  0.3947960000000 1.0
C      1  0.5222100000000  0.5920240000000  0.5181160000000 1.0
C      1  0.4613560000000  0.4941310000000  0.5396860000000 1.0
C      1  0.5215940000000  0.4721520000000  0.5027830000000 1.0
C      1  0.5091370000000  0.3923240000000  0.5008800000000 1.0
C      1  0.4599390000000  0.4840720000000  0.4083850000000 1.0
C      1  0.5221300000000  0.4810920000000  0.5562080000000 1.0
C      1  0.5518290000000  0.4982090000000  0.4004340000000 1.0
C      1  0.5053400000000  0.4956980000000  0.4975520000000 1.0
C      1  0.6123530000000  0.4883630000000  0.4973250000000 1.0
C      1  0.5422820000000  0.5405530000000  0.5646410000000 1.0
C      1  0.5593360000000  0.4781430000000  0.4665440000000 1.0
C      1  0.5492320000000  0.5203940000000  0.5844210000000 1.0
C      1  0.5995770000000  0.5108160000000  0.5374440000000 1.0
C      1  0.4610140000000  0.6081800000000  0.5020900000000 1.0
C      1  0.4452610000000  0.4645780000000  0.5771960000000 1.0
C      1  0.5187860000000  0.5170070000000  0.4857180000000 1.0
C      1  0.5360160000000  0.4041110000000  0.4583760000000 1.0
C      1  0.5110650000000  0.5318280000000  0.4006710000000 1.0
C      1  0.4388470000000  0.6224830000000  0.5071240000000 1.0
C      1  0.4656870000000  0.5103190000000  0.5164140000000 1.0
C      1  0.4830930000000  0.5286940000000  0.3992420000000 1.0
C      1  0.4733950000000  0.5582280000000  0.5844260000000 1.0
C      1  0.4112610000000  0.5642720000000  0.5280310000000 1.0
C      1  0.5304590000000  0.5149570000000  0.4596680000000 1.0
C      1  0.5356940000000  0.4161860000000  0.5338830000000 1.0
C      1  0.5903090000000  0.5317530000000  0.4910140000000 1.0
C      1  0.4202670000000  0.5372590000000  0.4878880000000 1.0
C      1  0.5030320000000  0.4408840000000  0.4394660000000 1.0
C      1  0.4000530000000  0.5486690000000  0.5482380000000 1.0
END
