TITL C-247201-3759-299 -2452.02486624674 125000 -208.643799620569 0 0 36 (C1) n - 1
REM
REM in /home/nfs/bkarasulu/CARBON/AIRSS/Generating-Clusters/LCBOP/Only-C1/SD-CG/FIRE-HFTN
REM
REM
REM
REM
REM
REM ./C.cell (11c1c37f851c82e70ff6c80c92926a4b)
REM AIRSS Version 0.9.1 bugfix July 2018 build 013d7b7c2542+ Fri, 06 Jul 2018 19:26:36 +0100
REM compiler GCC version 9.2.1 20190827 (Red Hat 9.2.1-1)
REM options -cpp -mtune=generic -march=x86-64 -g -O0 -fpre-include=/usr/include/finclude/math-vector-fortran.h
REM seed 660288580 296485467 147970069 506452571 1071480990 1892458461 814296416 1508185709 -1152204524 1197773038 1772101975 208080355 431657082 1273557234 -1179849960 -1427860915 -127192702 -2083425072 74398831 -651123751 -1719689326 -2054247793 832919987 1426292996 1460982404 113805265 2134031770 234324982 -662792839 551307050 -1805223573 -607233125 1517589417
REM
CELL 1.54180   50.00000   50.00000   50.00000   90.00000   90.00000   90.00000
LATT -1
SFAC C  
C      1  0.4459290000000  0.4204150000000  0.4843180000000 1.0
C      1  0.5274630000000  0.4981710000000  0.5216990000000 1.0
C      1  0.4300200000000  0.4447390000000  0.5604490000000 1.0
C      1  0.4438490000000  0.4772010000000  0.4691710000000 1.0
C      1  0.4747090000000  0.4276300000000  0.4853370000000 1.0
C      1  0.5124170000000  0.4746360000000  0.5217700000000 1.0
C      1  0.4855270000000  0.4536190000000  0.4862210000000 1.0
C      1  0.4697350000000  0.4742520000000  0.4754500000000 1.0
C      1  0.4545000000000  0.4522180000000  0.5677040000000 1.0
C      1  0.4135750000000  0.4391210000000  0.5402780000000 1.0
C      1  0.5340290000000  0.4488550000000  0.4864560000000 1.0
C      1  0.4884530000000  0.4024210000000  0.4821540000000 1.0
C      1  0.4204380000000  0.3773660000000  0.4764760000000 1.0
C      1  0.3507360000000  0.4758430000000  0.4364780000000 1.0
C      1  0.6063360000000  0.6970580000000  0.4823640000000 1.0
C      1  0.4245860000000  0.4382750000000  0.4892810000000 1.0
C      1  0.6272050000000  0.6559050000000  0.5112830000000 1.0
C      1  0.5961990000000  0.7166540000000  0.4684760000000 1.0
C      1  0.5107090000000  0.4589270000000  0.4981000000000 1.0
C      1  0.4987800000000  0.4668110000000  0.5448830000000 1.0
C      1  0.5556660000000  0.4392430000000  0.4755690000000 1.0
C      1  0.3969510000000  0.4663990000000  0.4596710000000 1.0
C      1  0.3736680000000  0.4711690000000  0.4479650000000 1.0
C      1  0.5563600000000  0.5425200000000  0.5193410000000 1.0
C      1  0.5419490000000  0.5203200000000  0.5206370000000 1.0
C      1  0.6166060000000  0.6771180000000  0.4964670000000 1.0
C      1  0.5847860000000  0.5871580000000  0.5164610000000 1.0
C      1  0.5706330000000  0.5648040000000  0.5179470000000 1.0
C      1  0.4791440000000  0.4598220000000  0.5613060000000 1.0
C      1  0.6127630000000  0.6320410000000  0.5132290000000 1.0
C      1  0.4704080000000  0.3818040000000  0.4787010000000 1.0
C      1  0.4112540000000  0.4368450000000  0.5138550000000 1.0
C      1  0.6514250000000  0.6584690000000  0.5237320000000 1.0
C      1  0.5988310000000  0.6095740000000  0.5148870000000 1.0
C      1  0.4432720000000  0.3916260000000  0.4795440000000 1.0
C      1  0.4210880000000  0.4609710000000  0.4723400000000 1.0
END
