TITL C-247199-3331-455 0.0124001129716897 125000 -641.841664072015 0 0 106 (C1) n - 1
REM
REM in /home/nfs/bkarasulu/CARBON/AIRSS/Generating-Clusters/LCBOP/Only-C1/SD-CG/FIRE-HFTN
REM
REM
REM
REM
REM
REM ./C.cell (11c1c37f851c82e70ff6c80c92926a4b)
REM AIRSS Version 0.9.1 bugfix July 2018 build 013d7b7c2542+ Fri, 06 Jul 2018 19:26:36 +0100
REM compiler GCC version 9.2.1 20190827 (Red Hat 9.2.1-1)
REM options -cpp -mtune=generic -march=x86-64 -g -O0 -fpre-include=/usr/include/finclude/math-vector-fortran.h
REM seed -145033808 -248374567 -68206045 -1295008409 1816222867 1664015838 623167272 -1925602145 1368615473 -1548226848 1251495947 157243087 -1152807421 1087181319 -1490032998 1827326126 1725937442 2089585444 1588273959 1152667384 59285896 -1467742190 -2036421310 -685739745 392278089 -1840281953 485166117 601938892 1619377635 1654287942 -1484239704 -322117276 1470216634
REM
CELL 1.54180   50.00000   50.00000   50.00000   90.00000   90.00000   90.00000
LATT -1
SFAC C  
C      1  0.4495020000000  0.5181330000000  0.4053860000000 1.0
C      1  0.4864740000000  0.5668900000000  0.5227210000000 1.0
C      1  0.5122620000000  0.5298770000000  0.4995250000000 1.0
C      1  0.5791360000000  0.4847890000000  0.5333990000000 1.0
C      1  0.5270700000000  0.5911570000000  0.5238810000000 1.0
C      1  0.5198510000000  0.4112830000000  0.5622770000000 1.0
C      1  0.4879040000000  0.5452230000000  0.5042660000000 1.0
C      1  0.4627280000000  0.5736230000000  0.4522050000000 1.0
C      1  0.4839270000000  0.4853150000000  0.5221210000000 1.0
C      1  0.5331800000000  0.5428380000000  0.4409630000000 1.0
C      1  0.5875560000000  0.4647490000000  0.4532810000000 1.0
C      1  0.4465050000000  0.4994080000000  0.5957700000000 1.0
C      1  0.3984260000000  0.4916110000000  0.5028450000000 1.0
C      1  0.5470210000000  0.4385140000000  0.4629480000000 1.0
C      1  0.5434300000000  0.4248880000000  0.5536430000000 1.0
C      1  0.4580770000000  0.4801360000000  0.5565880000000 1.0
C      1  0.5337880000000  0.4557610000000  0.4826340000000 1.0
C      1  0.5096800000000  0.4089180000000  0.4689090000000 1.0
C      1  0.4005910000000  0.5380990000000  0.4757740000000 1.0
C      1  0.5183670000000  0.5339450000000  0.3638290000000 1.0
C      1  0.5310220000000  0.5283140000000  0.3417440000000 1.0
C      1  0.4004380000000  0.4237930000000  0.4411330000000 1.0
C      1  0.5841850000000  0.4511420000000  0.5731950000000 1.0
C      1  0.5725240000000  0.4946640000000  0.4876090000000 1.0
C      1  0.5487900000000  0.4399910000000  0.6030340000000 1.0
C      1  0.4441330000000  0.4459990000000  0.4383900000000 1.0
C      1  0.4906700000000  0.5120110000000  0.4594440000000 1.0
C      1  0.4302440000000  0.5687100000000  0.4989290000000 1.0
C      1  0.5692620000000  0.5457290000000  0.4844750000000 1.0
C      1  0.4998700000000  0.4152970000000  0.5800090000000 1.0
C      1  0.5726780000000  0.4467710000000  0.6178230000000 1.0
C      1  0.4917050000000  0.5738250000000  0.4486920000000 1.0
C      1  0.5415760000000  0.5180380000000  0.4296550000000 1.0
C      1  0.4679470000000  0.4686140000000  0.5066470000000 1.0
C      1  0.5368630000000  0.4048730000000  0.5100600000000 1.0
C      1  0.5906300000000  0.5883840000000  0.5020580000000 1.0
C      1  0.4460040000000  0.4830410000000  0.4675050000000 1.0
C      1  0.4820340000000  0.4649340000000  0.5636540000000 1.0
C      1  0.4194800000000  0.5286090000000  0.4570840000000 1.0
C      1  0.5904880000000  0.4688700000000  0.5529030000000 1.0
C      1  0.5756830000000  0.4894400000000  0.4598310000000 1.0
C      1  0.5105380000000  0.4721700000000  0.4754750000000 1.0
C      1  0.5469050000000  0.4270070000000  0.5246420000000 1.0
C      1  0.5221790000000  0.4418490000000  0.6115550000000 1.0
C      1  0.4451550000000  0.4733660000000  0.4937250000000 1.0
C      1  0.5088030000000  0.5016550000000  0.4784700000000 1.0
C      1  0.4352900000000  0.4024700000000  0.4175450000000 1.0
C      1  0.5932890000000  0.4529000000000  0.6004940000000 1.0
C      1  0.5007180000000  0.4707360000000  0.5411870000000 1.0
C      1  0.4187390000000  0.5155740000000  0.5496700000000 1.0
C      1  0.5705060000000  0.5117250000000  0.5344650000000 1.0
C      1  0.4241840000000  0.5481750000000  0.4368300000000 1.0
C      1  0.4053960000000  0.5024580000000  0.5271960000000 1.0
C      1  0.4673350000000  0.5012510000000  0.5389490000000 1.0
C      1  0.5355100000000  0.4984560000000  0.5944560000000 1.0
C      1  0.5174290000000  0.3969020000000  0.4932060000000 1.0
C      1  0.5265550000000  0.4680160000000  0.5318410000000 1.0
C      1  0.5065600000000  0.5776570000000  0.5394500000000 1.0
C      1  0.4344030000000  0.5593390000000  0.5258770000000 1.0
C      1  0.4281040000000  0.5023920000000  0.4111170000000 1.0
C      1  0.5057840000000  0.5394810000000  0.3864750000000 1.0
C      1  0.5578450000000  0.4380550000000  0.5743850000000 1.0
C      1  0.4665180000000  0.5236650000000  0.4668090000000 1.0
C      1  0.4381030000000  0.5371510000000  0.5431450000000 1.0
C      1  0.6109510000000  0.6049410000000  0.5058590000000 1.0
C      1  0.4645060000000  0.5413770000000  0.4131830000000 1.0
C      1  0.5603080000000  0.5014250000000  0.4394970000000 1.0
C      1  0.4515600000000  0.4237660000000  0.4223960000000 1.0
C      1  0.4976640000000  0.4369870000000  0.5984360000000 1.0
C      1  0.4590520000000  0.4739430000000  0.6035640000000 1.0
C      1  0.6512750000000  0.6378170000000  0.5134370000000 1.0
C      1  0.4241090000000  0.5037180000000  0.5765470000000 1.0
C      1  0.5451200000000  0.4554180000000  0.5115680000000 1.0
C      1  0.5694100000000  0.5711830000000  0.4985040000000 1.0
C      1  0.5328350000000  0.5457270000000  0.5116640000000 1.0
C      1  0.5736640000000  0.4418750000000  0.4551120000000 1.0
C      1  0.4795310000000  0.5311480000000  0.5738960000000 1.0
C      1  0.4418300000000  0.5106820000000  0.4627750000000 1.0
C      1  0.4929530000000  0.5446870000000  0.4106850000000 1.0
C      1  0.5522560000000  0.5489230000000  0.4613150000000 1.0
C      1  0.4153450000000  0.4475960000000  0.4453680000000 1.0
C      1  0.5311280000000  0.5158480000000  0.5740560000000 1.0
C      1  0.4800150000000  0.4579390000000  0.5911080000000 1.0
C      1  0.4677730000000  0.5440120000000  0.4855500000000 1.0
C      1  0.5425250000000  0.5735290000000  0.5076130000000 1.0
C      1  0.5173670000000  0.5569340000000  0.5560590000000 1.0
C      1  0.5366680000000  0.5428390000000  0.5394960000000 1.0
C      1  0.5077890000000  0.5551400000000  0.4336010000000 1.0
C      1  0.4645870000000  0.5272310000000  0.5491880000000 1.0
C      1  0.4040520000000  0.4737100000000  0.4498270000000 1.0
C      1  0.5320410000000  0.4166560000000  0.4533780000000 1.0
C      1  0.6312800000000  0.6215160000000  0.5096790000000 1.0
C      1  0.4095080000000  0.4911060000000  0.4274470000000 1.0
C      1  0.3964620000000  0.4822470000000  0.4769070000000 1.0
C      1  0.5696330000000  0.4738280000000  0.5084620000000 1.0
C      1  0.4046590000000  0.5613330000000  0.4891060000000 1.0
C      1  0.5725690000000  0.5209650000000  0.4997020000000 1.0
C      1  0.4890630000000  0.4279440000000  0.4675760000000 1.0
C      1  0.4873530000000  0.4563710000000  0.4632650000000 1.0
C      1  0.4524250000000  0.5674980000000  0.4796560000000 1.0
C      1  0.5078560000000  0.5353670000000  0.5731930000000 1.0
C      1  0.4098260000000  0.4023170000000  0.4272560000000 1.0
C      1  0.4613650000000  0.4644500000000  0.4518190000000 1.0
C      1  0.5495340000000  0.5209010000000  0.5513280000000 1.0
C      1  0.4494970000000  0.5589860000000  0.4307330000000 1.0
C      1  0.4651040000000  0.5214600000000  0.5963860000000 1.0
END
