TITL C-247199-3331-447 4.27277923057892e-08 125000 -785.60183554152 0 0 127 (C1) n - 1
REM
REM in /home/nfs/bkarasulu/CARBON/AIRSS/Generating-Clusters/LCBOP/Only-C1/SD-CG/FIRE-HFTN
REM
REM
REM
REM
REM
REM ./C.cell (11c1c37f851c82e70ff6c80c92926a4b)
REM AIRSS Version 0.9.1 bugfix July 2018 build 013d7b7c2542+ Fri, 06 Jul 2018 19:26:36 +0100
REM compiler GCC version 9.2.1 20190827 (Red Hat 9.2.1-1)
REM options -cpp -mtune=generic -march=x86-64 -g -O0 -fpre-include=/usr/include/finclude/math-vector-fortran.h
REM seed 151014081 -1812849063 720965832 824867798 1970299879 -334107621 99963863 -1973649881 -876406905 -7847980 -1616529566 1650226474 89318751 -913599984 1404066467 -1269199969 30232161 51564735 472937754 -1608271322 455352447 1837670633 -1511152171 -1103796775 -1847888134 470984198 566154061 -347086522 -373881391 -1359602674 2075751159 -1537451051 577221779
REM
CELL 1.54180   50.00000   50.00000   50.00000   90.00000   90.00000   90.00000
LATT -1
SFAC C  
C      1  0.4237530000000  0.5183070000000  0.4786890000000 1.0
C      1  0.5314020000000  0.5087670000000  0.4156540000000 1.0
C      1  0.4278560000000  0.4483710000000  0.4800940000000 1.0
C      1  0.5205240000000  0.6192290000000  0.5538790000000 1.0
C      1  0.4514230000000  0.5763970000000  0.5892180000000 1.0
C      1  0.4639580000000  0.5036550000000  0.4599430000000 1.0
C      1  0.5267040000000  0.4936870000000  0.4854490000000 1.0
C      1  0.4811770000000  0.5537260000000  0.4126370000000 1.0
C      1  0.4599160000000  0.4601180000000  0.4178630000000 1.0
C      1  0.5080930000000  0.5829910000000  0.4775280000000 1.0
C      1  0.4929040000000  0.4560140000000  0.5600520000000 1.0
C      1  0.5047640000000  0.4863250000000  0.4068660000000 1.0
C      1  0.4490640000000  0.5529920000000  0.4568340000000 1.0
C      1  0.4193880000000  0.4964150000000  0.5721650000000 1.0
C      1  0.5385860000000  0.4192020000000  0.4241270000000 1.0
C      1  0.5791350000000  0.5442510000000  0.5277820000000 1.0
C      1  0.4716420000000  0.4211890000000  0.4483290000000 1.0
C      1  0.5224350000000  0.4565300000000  0.5146050000000 1.0
C      1  0.4781260000000  0.5724060000000  0.5893560000000 1.0
C      1  0.5329150000000  0.4462770000000  0.4286460000000 1.0
C      1  0.5449270000000  0.5136020000000  0.4870040000000 1.0
C      1  0.4674280000000  0.4463030000000  0.5509260000000 1.0
C      1  0.5910760000000  0.4341510000000  0.5225320000000 1.0
C      1  0.4510050000000  0.4010920000000  0.5120740000000 1.0
C      1  0.4819280000000  0.5060140000000  0.5093030000000 1.0
C      1  0.4343580000000  0.5488340000000  0.5498640000000 1.0
C      1  0.5465260000000  0.4675660000000  0.5765650000000 1.0
C      1  0.4321950000000  0.4958340000000  0.4970700000000 1.0
C      1  0.4472430000000  0.4507660000000  0.5711720000000 1.0
C      1  0.5564610000000  0.5619790000000  0.4475890000000 1.0
C      1  0.6241000000000  0.4967110000000  0.4988290000000 1.0
C      1  0.5691020000000  0.4780790000000  0.5113480000000 1.0
C      1  0.5687260000000  0.5058520000000  0.5005180000000 1.0
C      1  0.4795200000000  0.5318940000000  0.5634290000000 1.0
C      1  0.5496420000000  0.4257520000000  0.5506630000000 1.0
C      1  0.5797300000000  0.5162000000000  0.4398790000000 1.0
C      1  0.4192520000000  0.4593290000000  0.4551210000000 1.0
C      1  0.5065650000000  0.5471600000000  0.4029290000000 1.0
C      1  0.4932140000000  0.5647410000000  0.4954860000000 1.0
C      1  0.5894080000000  0.5439380000000  0.4783690000000 1.0
C      1  0.4365740000000  0.4919380000000  0.5929240000000 1.0
C      1  0.4584300000000  0.5289510000000  0.4465190000000 1.0
C      1  0.5279640000000  0.4528520000000  0.5928250000000 1.0
C      1  0.4333570000000  0.5659060000000  0.5722520000000 1.0
C      1  0.4589410000000  0.5351690000000  0.5439540000000 1.0
C      1  0.4218990000000  0.4522570000000  0.5562980000000 1.0
C      1  0.4730250000000  0.4264470000000  0.4759750000000 1.0
C      1  0.4395560000000  0.5498430000000  0.4840360000000 1.0
C      1  0.6043860000000  0.5080110000000  0.5462730000000 1.0
C      1  0.5314110000000  0.5379380000000  0.4825600000000 1.0
C      1  0.5876830000000  0.4568010000000  0.5043450000000 1.0
C      1  0.5287190000000  0.5500290000000  0.4476950000000 1.0
C      1  0.4603680000000  0.4588150000000  0.5240640000000 1.0
C      1  0.5514800000000  0.4543900000000  0.5520360000000 1.0
C      1  0.5457080000000  0.4963630000000  0.5808000000000 1.0
C      1  0.4320240000000  0.4208480000000  0.5196340000000 1.0
C      1  0.4544260000000  0.5062560000000  0.4092840000000 1.0
C      1  0.5506640000000  0.5856840000000  0.5093250000000 1.0
C      1  0.4829580000000  0.5737930000000  0.4338870000000 1.0
C      1  0.5450450000000  0.4562760000000  0.4531970000000 1.0
C      1  0.4918130000000  0.5067960000000  0.5634900000000 1.0
C      1  0.5003370000000  0.4539220000000  0.5872420000000 1.0
C      1  0.5043010000000  0.4764110000000  0.4496540000000 1.0
C      1  0.4048900000000  0.5678320000000  0.5152790000000 1.0
C      1  0.5002830000000  0.4944730000000  0.6096770000000 1.0
C      1  0.5839440000000  0.4425520000000  0.4791420000000 1.0
C      1  0.5172220000000  0.5934720000000  0.5516060000000 1.0
C      1  0.5772510000000  0.5426530000000  0.4523420000000 1.0
C      1  0.6198730000000  0.4999440000000  0.5254020000000 1.0
C      1  0.5650150000000  0.3996160000000  0.4630310000000 1.0
C      1  0.4742780000000  0.4843900000000  0.4056640000000 1.0
C      1  0.3831410000000  0.5834570000000  0.5205190000000 1.0
C      1  0.4829880000000  0.4720920000000  0.6021090000000 1.0
C      1  0.4583300000000  0.5780540000000  0.4473040000000 1.0
C      1  0.5759400000000  0.4146130000000  0.4840600000000 1.0
C      1  0.5118780000000  0.4649680000000  0.4243580000000 1.0
C      1  0.4001620000000  0.4814090000000  0.4575050000000 1.0
C      1  0.4774100000000  0.4829050000000  0.5247420000000 1.0
C      1  0.4033950000000  0.5201480000000  0.5266450000000 1.0
C      1  0.5501180000000  0.4084030000000  0.5279010000000 1.0
C      1  0.4912220000000  0.4989300000000  0.4605160000000 1.0
C      1  0.4644240000000  0.5311980000000  0.4184050000000 1.0
C      1  0.4172610000000  0.4952060000000  0.5229370000000 1.0
C      1  0.4160410000000  0.4281290000000  0.5420220000000 1.0
C      1  0.5156530000000  0.5482720000000  0.5046850000000 1.0
C      1  0.4922040000000  0.5562660000000  0.5710610000000 1.0
C      1  0.4667720000000  0.5512790000000  0.4991240000000 1.0
C      1  0.5722610000000  0.4553910000000  0.4576430000000 1.0
C      1  0.5744000000000  0.4114310000000  0.5130450000000 1.0
C      1  0.5343750000000  0.5259290000000  0.5445820000000 1.0
C      1  0.5837550000000  0.5306520000000  0.5027740000000 1.0
C      1  0.5810990000000  0.5243470000000  0.5498210000000 1.0
C      1  0.4929140000000  0.4828800000000  0.5490290000000 1.0
C      1  0.5513730000000  0.4013550000000  0.4399000000000 1.0
C      1  0.4693770000000  0.4346370000000  0.4251290000000 1.0
C      1  0.4780160000000  0.4546120000000  0.4833130000000 1.0
C      1  0.5667840000000  0.5698690000000  0.5246690000000 1.0
C      1  0.5244690000000  0.4680820000000  0.4707340000000 1.0
C      1  0.4353180000000  0.4679660000000  0.4314860000000 1.0
C      1  0.5553200000000  0.5152390000000  0.5604530000000 1.0
C      1  0.6171930000000  0.4964240000000  0.4726500000000 1.0
C      1  0.5368800000000  0.5901690000000  0.4843960000000 1.0
C      1  0.5233780000000  0.5346480000000  0.4219210000000 1.0
C      1  0.5206000000000  0.5472250000000  0.5328380000000 1.0
C      1  0.4549320000000  0.4700750000000  0.5927970000000 1.0
C      1  0.5007550000000  0.3986110000000  0.5067420000000 1.0
C      1  0.4259490000000  0.5961870000000  0.4784530000000 1.0
C      1  0.4751130000000  0.4064370000000  0.4971270000000 1.0
C      1  0.5464650000000  0.4667130000000  0.5266390000000 1.0
C      1  0.4437220000000  0.5996340000000  0.4580440000000 1.0
C      1  0.4167930000000  0.4799640000000  0.5483220000000 1.0
C      1  0.5105240000000  0.5664580000000  0.5517330000000 1.0
C      1  0.5587640000000  0.5046420000000  0.4235600000000 1.0
C      1  0.4396240000000  0.4457980000000  0.5065590000000 1.0
C      1  0.6014110000000  0.5010980000000  0.4511120000000 1.0
C      1  0.5256660000000  0.3988250000000  0.5170570000000 1.0
C      1  0.5547480000000  0.5871180000000  0.4614850000000 1.0
C      1  0.4551820000000  0.4830940000000  0.4805220000000 1.0
C      1  0.4681990000000  0.5296690000000  0.5176450000000 1.0
C      1  0.5000640000000  0.5037450000000  0.4875380000000 1.0
C      1  0.4145420000000  0.5068420000000  0.4520780000000 1.0
C      1  0.4214290000000  0.5719330000000  0.4927030000000 1.0
C      1  0.5249000000000  0.5033580000000  0.6003710000000 1.0
C      1  0.4311420000000  0.4976840000000  0.4267690000000 1.0
C      1  0.4121890000000  0.5462260000000  0.5322510000000 1.0
C      1  0.5067410000000  0.5720270000000  0.4505320000000 1.0
C      1  0.5066960000000  0.4543990000000  0.4908880000000 1.0
END
