TITL C-247197-3123-609 43808.2915721307 125000 -1098.61931739135 0 0 180 (C1) n - 1
REM
REM in /home/nfs/bkarasulu/CARBON/AIRSS/Generating-Clusters/LCBOP/Only-C1/SD-CG/FIRE-HFTN
REM
REM
REM
REM
REM
REM ./C.cell (11c1c37f851c82e70ff6c80c92926a4b)
REM AIRSS Version 0.9.1 bugfix July 2018 build 013d7b7c2542+ Fri, 06 Jul 2018 19:26:36 +0100
REM compiler GCC version 9.2.1 20190827 (Red Hat 9.2.1-1)
REM options -cpp -mtune=generic -march=x86-64 -g -O0 -fpre-include=/usr/include/finclude/math-vector-fortran.h
REM seed 1951472957 2001402192 1350875538 1563886013 1436725042 1149044846 1763723443 636499343 1073897803 898742948 267627080 -2006875255 -2008908280 1305870161 -1617548050 1952482390 1354229816 -1545065607 1805513986 -1713514637 364812838 2021867765 1151236340 296619863 -799427812 2104871560 726089204 1999410290 -1753408999 271406876 -1786102292 1422102673 -1301620445
REM
CELL 1.54180   50.00000   50.00000   50.00000   90.00000   90.00000   90.00000
LATT -1
SFAC C  
C      1  0.4537330000000  0.6116230000000  0.5295140000000 1.0
C      1  0.5997650000000  0.5276030000000  0.5675070000000 1.0
C      1  0.4823470000000  0.4368080000000  0.5311860000000 1.0
C      1  0.5183760000000  0.3803510000000  0.4845420000000 1.0
C      1  0.4332470000000  0.5463390000000  0.4079390000000 1.0
C      1  0.5079640000000  0.6283230000000  0.4834450000000 1.0
C      1  0.5666040000000  0.5154110000000  0.6301800000000 1.0
C      1  0.4641670000000  0.5248550000000  0.5540650000000 1.0
C      1  0.4276970000000  0.5273180000000  0.4546050000000 1.0
C      1  0.4179840000000  0.4063700000000  0.4710310000000 1.0
C      1  0.4321860000000  0.5931220000000  0.5345720000000 1.0
C      1  0.4137910000000  0.4855970000000  0.3924210000000 1.0
C      1  0.3894630000000  0.4764100000000  0.3873430000000 1.0
C      1  0.4544000000000  0.5404020000000  0.5099520000000 1.0
C      1  0.4480300000000  0.4688070000000  0.5155130000000 1.0
C      1  0.4881120000000  0.5179880000000  0.3626190000000 1.0
C      1  0.5393590000000  0.4554070000000  0.4872940000000 1.0
C      1  0.5721910000000  0.5026940000000  0.4080330000000 1.0
C      1  0.5457330000000  0.3820930000000  0.4779470000000 1.0
C      1  0.4037630000000  0.5587260000000  0.5144410000000 1.0
C      1  0.5988190000000  0.4816510000000  0.4905450000000 1.0
C      1  0.4568670000000  0.5592750000000  0.4888670000000 1.0
C      1  0.5183310000000  0.4308900000000  0.5986210000000 1.0
C      1  0.4167620000000  0.5048470000000  0.5640750000000 1.0
C      1  0.5431400000000  0.4237980000000  0.5380690000000 1.0
C      1  0.5292350000000  0.4744690000000  0.5025090000000 1.0
C      1  0.4690490000000  0.4254220000000  0.4579060000000 1.0
C      1  0.5824510000000  0.5813560000000  0.4821970000000 1.0
C      1  0.5904470000000  0.3871490000000  0.5009860000000 1.0
C      1  0.4263600000000  0.4545690000000  0.5757390000000 1.0
C      1  0.4865930000000  0.4396450000000  0.5008430000000 1.0
C      1  0.4575920000000  0.4280530000000  0.3957380000000 1.0
C      1  0.5823710000000  0.5683090000000  0.5472410000000 1.0
C      1  0.5352410000000  0.4935650000000  0.5259150000000 1.0
C      1  0.4111040000000  0.5209950000000  0.4779730000000 1.0
C      1  0.4916020000000  0.4666130000000  0.4604160000000 1.0
C      1  0.4530800000000  0.4491660000000  0.5346210000000 1.0
C      1  0.5344660000000  0.6179030000000  0.4746390000000 1.0
C      1  0.5556160000000  0.5507270000000  0.4040230000000 1.0
C      1  0.3670430000000  0.4980790000000  0.5199150000000 1.0
C      1  0.5627210000000  0.5345120000000  0.5047850000000 1.0
C      1  0.5152540000000  0.4575990000000  0.6081500000000 1.0
C      1  0.4696390000000  0.4080290000000  0.4136330000000 1.0
C      1  0.4353910000000  0.4995440000000  0.4031260000000 1.0
C      1  0.5001700000000  0.4453450000000  0.4075270000000 1.0
C      1  0.6121920000000  0.5338550000000  0.5000250000000 1.0
C      1  0.5050700000000  0.6255710000000  0.5131090000000 1.0
C      1  0.4233220000000  0.4990430000000  0.4924690000000 1.0
C      1  0.4236600000000  0.5460510000000  0.4335010000000 1.0
C      1  0.6177800000000  0.4964620000000  0.4720000000000 1.0
C      1  0.5632760000000  0.5130980000000  0.4603510000000 1.0
C      1  0.5413540000000  0.4084230000000  0.5619130000000 1.0
C      1  0.4088210000000  0.5512680000000  0.5433920000000 1.0
C      1  0.4712010000000  0.4529710000000  0.4028040000000 1.0
C      1  0.4630980000000  0.4205080000000  0.5854950000000 1.0
C      1  0.4985580000000  0.4159470000000  0.4117740000000 1.0
C      1  0.4870610000000  0.5921150000000  0.4602060000000 1.0
C      1  0.4869040000000  0.6200890000000  0.4661400000000 1.0
C      1  0.5395720000000  0.5154340000000  0.3741300000000 1.0
C      1  0.5466940000000  0.5302270000000  0.6191570000000 1.0
C      1  0.5854090000000  0.4511040000000  0.5598940000000 1.0
C      1  0.5448130000000  0.6079730000000  0.5480130000000 1.0
C      1  0.4665080000000  0.5457490000000  0.5355270000000 1.0
C      1  0.6162050000000  0.5399650000000  0.4481580000000 1.0
C      1  0.5289930000000  0.5045980000000  0.5792310000000 1.0
C      1  0.5148340000000  0.5290700000000  0.4974530000000 1.0
C      1  0.4686450000000  0.5096800000000  0.6142370000000 1.0
C      1  0.6154510000000  0.4850390000000  0.4455880000000 1.0
C      1  0.4152050000000  0.5848950000000  0.5119590000000 1.0
C      1  0.4441330000000  0.5114320000000  0.5650220000000 1.0
C      1  0.5034980000000  0.5409710000000  0.6045280000000 1.0
C      1  0.5223900000000  0.5296050000000  0.4485890000000 1.0
C      1  0.4760110000000  0.6086330000000  0.5812730000000 1.0
C      1  0.5901350000000  0.4716720000000  0.4425890000000 1.0
C      1  0.3371070000000  0.4700890000000  0.3892270000000 1.0
C      1  0.4821300000000  0.4182510000000  0.4822930000000 1.0
C      1  0.5236690000000  0.3867910000000  0.5591540000000 1.0
C      1  0.5904020000000  0.5408320000000  0.5453690000000 1.0
C      1  0.5407950000000  0.3876800000000  0.4272750000000 1.0
C      1  0.5624420000000  0.4484440000000  0.4764150000000 1.0
C      1  0.5186030000000  0.4635900000000  0.4203050000000 1.0
C      1  0.4698030000000  0.4525410000000  0.4494600000000 1.0
C      1  0.5578230000000  0.5907800000000  0.4342410000000 1.0
C      1  0.5191850000000  0.5367050000000  0.5476600000000 1.0
C      1  0.5320750000000  0.6170660000000  0.5235720000000 1.0
C      1  0.4791870000000  0.5151930000000  0.4593850000000 1.0
C      1  0.4552620000000  0.5542170000000  0.5978040000000 1.0
C      1  0.5252600000000  0.5096890000000  0.5514350000000 1.0
C      1  0.4457080000000  0.4431580000000  0.5939120000000 1.0
C      1  0.6149430000000  0.4137080000000  0.5365650000000 1.0
C      1  0.5197060000000  0.5657960000000  0.6058100000000 1.0
C      1  0.5807800000000  0.5585260000000  0.4664370000000 1.0
C      1  0.5689360000000  0.5918500000000  0.5470850000000 1.0
C      1  0.4755680000000  0.5361090000000  0.6065820000000 1.0
C      1  0.5125920000000  0.5831720000000  0.4494280000000 1.0
C      1  0.4789570000000  0.5896100000000  0.5635390000000 1.0
C      1  0.5582770000000  0.5233080000000  0.3946160000000 1.0
C      1  0.5222100000000  0.5603090000000  0.5591580000000 1.0
C      1  0.4762410000000  0.5699710000000  0.5456060000000 1.0
C      1  0.5687440000000  0.5348480000000  0.4756240000000 1.0
C      1  0.5299190000000  0.5620290000000  0.3961440000000 1.0
C      1  0.5071010000000  0.4807480000000  0.4405520000000 1.0
C      1  0.4859100000000  0.4907940000000  0.5002740000000 1.0
C      1  0.5358580000000  0.6005680000000  0.4508990000000 1.0
C      1  0.5194980000000  0.5561240000000  0.4495630000000 1.0
C      1  0.4903820000000  0.4657060000000  0.4885100000000 1.0
C      1  0.5709590000000  0.4779480000000  0.4221940000000 1.0
C      1  0.5235000000000  0.5784230000000  0.5807590000000 1.0
C      1  0.5282050000000  0.5857170000000  0.3825970000000 1.0
C      1  0.5430250000000  0.5588520000000  0.6218380000000 1.0
C      1  0.5497970000000  0.4725590000000  0.5409790000000 1.0
C      1  0.4954540000000  0.3938970000000  0.4851690000000 1.0
C      1  0.5198980000000  0.5569670000000  0.5027360000000 1.0
C      1  0.4453390000000  0.5136240000000  0.5067970000000 1.0
C      1  0.4050920000000  0.4443080000000  0.5331020000000 1.0
C      1  0.5784830000000  0.4726380000000  0.5402580000000 1.0
C      1  0.4483120000000  0.4910440000000  0.4272090000000 1.0
C      1  0.3111340000000  0.4714490000000  0.3943550000000 1.0
C      1  0.5841800000000  0.4644800000000  0.4706770000000 1.0
C      1  0.5391220000000  0.5169050000000  0.5084230000000 1.0
C      1  0.5928200000000  0.5559050000000  0.4406670000000 1.0
C      1  0.4377620000000  0.5664030000000  0.5810270000000 1.0
C      1  0.4320300000000  0.3986210000000  0.4492100000000 1.0
C      1  0.5525010000000  0.4119890000000  0.5149160000000 1.0
C      1  0.4806630000000  0.4087220000000  0.5427170000000 1.0
C      1  0.4576780000000  0.4062230000000  0.5600600000000 1.0
C      1  0.4241110000000  0.4007850000000  0.5198720000000 1.0
C      1  0.4784670000000  0.6219270000000  0.5236520000000 1.0
C      1  0.4573860000000  0.4067890000000  0.4397480000000 1.0
C      1  0.4957940000000  0.4736930000000  0.5953410000000 1.0
C      1  0.5017090000000  0.5105930000000  0.4383530000000 1.0
C      1  0.4285530000000  0.4451510000000  0.5494570000000 1.0
C      1  0.4239820000000  0.4699870000000  0.4986280000000 1.0
C      1  0.4962300000000  0.5237660000000  0.4123440000000 1.0
C      1  0.4598260000000  0.4652250000000  0.4261920000000 1.0
C      1  0.4120440000000  0.4796290000000  0.5769170000000 1.0
C      1  0.5035220000000  0.4529430000000  0.5462730000000 1.0
C      1  0.3870510000000  0.5164080000000  0.5221850000000 1.0
C      1  0.5467600000000  0.4635530000000  0.4185090000000 1.0
C      1  0.4096750000000  0.4449790000000  0.5043940000000 1.0
C      1  0.5440450000000  0.4255720000000  0.5847020000000 1.0
C      1  0.4543950000000  0.4614640000000  0.6138080000000 1.0
C      1  0.4989440000000  0.5745340000000  0.5013120000000 1.0
C      1  0.5612550000000  0.5858900000000  0.4996470000000 1.0
C      1  0.4930430000000  0.5143210000000  0.4858790000000 1.0
C      1  0.5632390000000  0.3928580000000  0.4973650000000 1.0
C      1  0.5206700000000  0.3993050000000  0.4143540000000 1.0
C      1  0.6098960000000  0.3961720000000  0.5170570000000 1.0
C      1  0.5308800000000  0.6043620000000  0.5725160000000 1.0
C      1  0.4915290000000  0.4187030000000  0.5948120000000 1.0
C      1  0.2859280000000  0.4740230000000  0.4004950000000 1.0
C      1  0.4257520000000  0.5719500000000  0.5557440000000 1.0
C      1  0.4625290000000  0.4924840000000  0.5145970000000 1.0
C      1  0.4517790000000  0.5103350000000  0.4493230000000 1.0
C      1  0.4435700000000  0.5248060000000  0.3924040000000 1.0
C      1  0.5763430000000  0.4543100000000  0.6079240000000 1.0
C      1  0.5473570000000  0.6101180000000  0.4993970000000 1.0
C      1  0.5249260000000  0.5200080000000  0.6027250000000 1.0
C      1  0.3634430000000  0.4714180000000  0.3865470000000 1.0
C      1  0.4349070000000  0.3976990000000  0.5448170000000 1.0
C      1  0.5321140000000  0.4496090000000  0.5417070000000 1.0
C      1  0.4014750000000  0.5228600000000  0.5471720000000 1.0
C      1  0.4638700000000  0.5245340000000  0.3726190000000 1.0
C      1  0.5069000000000  0.5462830000000  0.4015090000000 1.0
C      1  0.3961240000000  0.5347720000000  0.4996940000000 1.0
C      1  0.4781680000000  0.5762000000000  0.4822530000000 1.0
C      1  0.5905810000000  0.4902670000000  0.5180870000000 1.0
C      1  0.5715990000000  0.5665610000000  0.4228960000000 1.0
C      1  0.4946530000000  0.4697760000000  0.5673080000000 1.0
C      1  0.5148280000000  0.5138780000000  0.3633510000000 1.0
C      1  0.6060060000000  0.4332760000000  0.5523230000000 1.0
C      1  0.5681690000000  0.4436350000000  0.5835970000000 1.0
C      1  0.6195980000000  0.5248940000000  0.4736120000000 1.0
C      1  0.5581180000000  0.5760620000000  0.6364140000000 1.0
C      1  0.5480450000000  0.5619250000000  0.5074490000000 1.0
C      1  0.5884720000000  0.5261690000000  0.5190710000000 1.0
C      1  0.5003860000000  0.3889690000000  0.5456930000000 1.0
C      1  0.4730370000000  0.4823270000000  0.6099520000000 1.0
C      1  0.5518100000000  0.3809440000000  0.4506250000000 1.0
C      1  0.4164310000000  0.4172170000000  0.4970550000000 1.0
END
