TITL C-247202-1916-606 -7.66800244172649e-07 125000 -774.756762804472 0 0 125 (C1) n - 1
REM
REM in /home/nfs/bkarasulu/CARBON/AIRSS/Generating-Clusters/LCBOP/Only-C1/SD-CG/FIRE-HFTN
REM
REM
REM
REM
REM
REM ./C.cell (11c1c37f851c82e70ff6c80c92926a4b)
REM AIRSS Version 0.9.1 bugfix July 2018 build 013d7b7c2542+ Fri, 06 Jul 2018 19:26:36 +0100
REM compiler GCC version 9.2.1 20190827 (Red Hat 9.2.1-1)
REM options -cpp -mtune=generic -march=x86-64 -g -O0 -fpre-include=/usr/include/finclude/math-vector-fortran.h
REM seed -315947168 -2070831704 2075305926 951388608 -489344869 1134811306 -1056323525 -1124585690 -174094708 -1342446158 -673448357 -959207756 849346843 -1096218979 -1643553015 1286276276 335443272 1776193511 475124672 -513733396 703858885 -1670019985 508418127 -956033878 240665104 -1761573763 572390574 1254125049 -673514704 -1830875793 361686962 -1085641963 57676300
REM
CELL 1.54180   50.00000   50.00000   50.00000   90.00000   90.00000   90.00000
LATT -1
SFAC C  
C      1  0.5080870000000  0.5170730000000  0.4437390000000 1.0
C      1  0.5248320000000  0.5938980000000  0.5023280000000 1.0
C      1  0.4679770000000  0.5558200000000  0.4286710000000 1.0
C      1  0.4773450000000  0.4800220000000  0.4271840000000 1.0
C      1  0.4705780000000  0.4096560000000  0.5574250000000 1.0
C      1  0.4212910000000  0.5074440000000  0.5005000000000 1.0
C      1  0.5718340000000  0.4624140000000  0.5404270000000 1.0
C      1  0.5473330000000  0.5764730000000  0.5442130000000 1.0
C      1  0.5353100000000  0.4634970000000  0.5812340000000 1.0
C      1  0.5259410000000  0.4193990000000  0.5614480000000 1.0
C      1  0.4627160000000  0.4363570000000  0.5663380000000 1.0
C      1  0.4520790000000  0.4387080000000  0.4221120000000 1.0
C      1  0.4842780000000  0.5016620000000  0.4425120000000 1.0
C      1  0.4059250000000  0.4610390000000  0.5000380000000 1.0
C      1  0.5609240000000  0.4722390000000  0.5674160000000 1.0
C      1  0.4659780000000  0.4608440000000  0.5167090000000 1.0
C      1  0.5591500000000  0.4546530000000  0.4678690000000 1.0
C      1  0.5701240000000  0.5002430000000  0.5730320000000 1.0
C      1  0.4660040000000  0.5052240000000  0.4630720000000 1.0
C      1  0.5712950000000  0.5827320000000  0.5016410000000 1.0
C      1  0.4768300000000  0.4707010000000  0.4929820000000 1.0
C      1  0.5690580000000  0.5406590000000  0.4283610000000 1.0
C      1  0.4785430000000  0.5494870000000  0.5366140000000 1.0
C      1  0.5022660000000  0.4417090000000  0.4169830000000 1.0
C      1  0.4318340000000  0.5309880000000  0.5526560000000 1.0
C      1  0.4860010000000  0.4501080000000  0.5796290000000 1.0
C      1  0.4892600000000  0.4745550000000  0.5966670000000 1.0
C      1  0.5434550000000  0.4730940000000  0.4198250000000 1.0
C      1  0.4314580000000  0.4738670000000  0.5415390000000 1.0
C      1  0.4715570000000  0.5239470000000  0.6068280000000 1.0
C      1  0.5157290000000  0.4421870000000  0.5736000000000 1.0
C      1  0.5183720000000  0.4793080000000  0.5991180000000 1.0
C      1  0.4860480000000  0.3950210000000  0.5408070000000 1.0
C      1  0.5490830000000  0.5893550000000  0.5178080000000 1.0
C      1  0.5700310000000  0.4410920000000  0.5191930000000 1.0
C      1  0.4174750000000  0.5531640000000  0.5122480000000 1.0
C      1  0.5331590000000  0.4655540000000  0.4754030000000 1.0
C      1  0.5316590000000  0.4084390000000  0.5362040000000 1.0
C      1  0.5325300000000  0.5515500000000  0.4754160000000 1.0
C      1  0.4193620000000  0.4996990000000  0.4403220000000 1.0
C      1  0.5587340000000  0.5410650000000  0.4804430000000 1.0
C      1  0.5201280000000  0.5778720000000  0.5547180000000 1.0
C      1  0.5110570000000  0.5984540000000  0.5709620000000 1.0
C      1  0.5836120000000  0.4972550000000  0.4736340000000 1.0
C      1  0.4885670000000  0.5631020000000  0.4915510000000 1.0
C      1  0.5864160000000  0.4800580000000  0.4966770000000 1.0
C      1  0.6038570000000  0.5481670000000  0.5006240000000 1.0
C      1  0.4808420000000  0.4008120000000  0.4347010000000 1.0
C      1  0.5250310000000  0.5233390000000  0.4191980000000 1.0
C      1  0.4561610000000  0.4335160000000  0.5126740000000 1.0
C      1  0.4312990000000  0.5886810000000  0.5446460000000 1.0
C      1  0.5040570000000  0.5556920000000  0.5466050000000 1.0
C      1  0.4798390000000  0.5428680000000  0.5090370000000 1.0
C      1  0.5209430000000  0.5330260000000  0.5452260000000 1.0
C      1  0.5279880000000  0.4788540000000  0.5343730000000 1.0
C      1  0.5792900000000  0.5577560000000  0.4907150000000 1.0
C      1  0.5647780000000  0.4664600000000  0.4412070000000 1.0
C      1  0.4823060000000  0.4981810000000  0.3869150000000 1.0
C      1  0.4589850000000  0.4803230000000  0.5362030000000 1.0
C      1  0.4940910000000  0.5600710000000  0.4168250000000 1.0
C      1  0.4712680000000  0.4241240000000  0.4901480000000 1.0
C      1  0.4573130000000  0.4109880000000  0.4221480000000 1.0
C      1  0.5200530000000  0.5703610000000  0.4266190000000 1.0
C      1  0.5195560000000  0.4214370000000  0.4575970000000 1.0
C      1  0.5045120000000  0.6128490000000  0.4936390000000 1.0
C      1  0.5007590000000  0.6167450000000  0.5864020000000 1.0
C      1  0.4760410000000  0.4535200000000  0.4199450000000 1.0
C      1  0.4863090000000  0.4475100000000  0.4797660000000 1.0
C      1  0.4322310000000  0.5250060000000  0.4392410000000 1.0
C      1  0.4166700000000  0.4721860000000  0.4472250000000 1.0
C      1  0.4291720000000  0.4521790000000  0.4314510000000 1.0
C      1  0.5964560000000  0.5544780000000  0.5482970000000 1.0
C      1  0.5043320000000  0.4814640000000  0.3891500000000 1.0
C      1  0.4051550000000  0.4647240000000  0.4720350000000 1.0
C      1  0.5610070000000  0.5275370000000  0.5688290000000 1.0
C      1  0.4513530000000  0.5434640000000  0.6027560000000 1.0
C      1  0.4720100000000  0.5789240000000  0.4743510000000 1.0
C      1  0.4799980000000  0.4919810000000  0.5492320000000 1.0
C      1  0.4116390000000  0.5380130000000  0.5360790000000 1.0
C      1  0.4242930000000  0.5353170000000  0.4902380000000 1.0
C      1  0.5353740000000  0.4933060000000  0.4834570000000 1.0
C      1  0.5761740000000  0.4522900000000  0.4918960000000 1.0
C      1  0.5151480000000  0.5299990000000  0.4680240000000 1.0
C      1  0.5050130000000  0.4177760000000  0.4329070000000 1.0
C      1  0.5156730000000  0.5137080000000  0.4941120000000 1.0
C      1  0.4816550000000  0.6060930000000  0.4790220000000 1.0
C      1  0.5305940000000  0.5210920000000  0.5209040000000 1.0
C      1  0.5198250000000  0.4624970000000  0.4064510000000 1.0
C      1  0.4762560000000  0.3871410000000  0.4591110000000 1.0
C      1  0.5418860000000  0.5500140000000  0.4258010000000 1.0
C      1  0.4976980000000  0.5342800000000  0.6090280000000 1.0
C      1  0.4083320000000  0.4354790000000  0.5123540000000 1.0
C      1  0.5696050000000  0.5529320000000  0.5562110000000 1.0
C      1  0.5052090000000  0.4841810000000  0.5469270000000 1.0
C      1  0.5166440000000  0.5695330000000  0.4898930000000 1.0
C      1  0.4806040000000  0.3979370000000  0.4848540000000 1.0
C      1  0.4360610000000  0.4453910000000  0.5523640000000 1.0
C      1  0.4569220000000  0.5631150000000  0.4556100000000 1.0
C      1  0.5041270000000  0.5368690000000  0.4012160000000 1.0
C      1  0.5328430000000  0.5283780000000  0.5705900000000 1.0
C      1  0.4317340000000  0.4293450000000  0.5272590000000 1.0
C      1  0.5475750000000  0.4979020000000  0.5256250000000 1.0
C      1  0.4576530000000  0.5383810000000  0.5514600000000 1.0
C      1  0.4164790000000  0.4829000000000  0.5162680000000 1.0
C      1  0.5261900000000  0.4005130000000  0.4760380000000 1.0
C      1  0.5092840000000  0.3956070000000  0.5240660000000 1.0
C      1  0.5739850000000  0.4868510000000  0.5225810000000 1.0
C      1  0.4523120000000  0.5322070000000  0.4184530000000 1.0
C      1  0.4362230000000  0.5826500000000  0.5705580000000 1.0
C      1  0.4250300000000  0.5795090000000  0.5197570000000 1.0
C      1  0.5724330000000  0.5119780000000  0.4272700000000 1.0
C      1  0.5201060000000  0.5331940000000  0.5948030000000 1.0
C      1  0.4872160000000  0.5163670000000  0.5020340000000 1.0
C      1  0.5466750000000  0.5021850000000  0.4158910000000 1.0
C      1  0.6112270000000  0.5489330000000  0.5265590000000 1.0
C      1  0.4629550000000  0.5149500000000  0.3975360000000 1.0
C      1  0.4712360000000  0.4955450000000  0.6033920000000 1.0
C      1  0.4420400000000  0.5659850000000  0.5910320000000 1.0
C      1  0.4720840000000  0.4974850000000  0.4885420000000 1.0
C      1  0.5068490000000  0.3931640000000  0.4959070000000 1.0
C      1  0.5127540000000  0.4465130000000  0.4706270000000 1.0
C      1  0.5548840000000  0.4178210000000  0.5235570000000 1.0
C      1  0.5595340000000  0.5119560000000  0.4790680000000 1.0
C      1  0.4351810000000  0.5428530000000  0.4635860000000 1.0
C      1  0.5818950000000  0.4909530000000  0.4452100000000 1.0
END
