TITL C-247199-3331-698 137307.333970919 125000 -616.639599632044 0 0 102 (C1) n - 1
REM
REM in /home/nfs/bkarasulu/CARBON/AIRSS/Generating-Clusters/LCBOP/Only-C1/SD-CG/FIRE-HFTN
REM
REM
REM
REM
REM
REM ./C.cell (11c1c37f851c82e70ff6c80c92926a4b)
REM AIRSS Version 0.9.1 bugfix July 2018 build 013d7b7c2542+ Fri, 06 Jul 2018 19:26:36 +0100
REM compiler GCC version 9.2.1 20190827 (Red Hat 9.2.1-1)
REM options -cpp -mtune=generic -march=x86-64 -g -O0 -fpre-include=/usr/include/finclude/math-vector-fortran.h
REM seed -1074215470 -761826755 1950258561 -1135137280 -1833237587 247809505 1321927873 -571681518 2047308200 2024162652 -2016462977 -460583120 585816253 1503665655 -1897049569 -1995965487 -1009661025 698505194 184917413 -1100818231 -2125218373 -1452407183 1889782968 1149763568 152226251 789215392 -712374507 307635466 244375763 -1408659204 -105150596 -1507420597 688700660
REM
CELL 1.54180   50.00000   50.00000   50.00000   90.00000   90.00000   90.00000
LATT -1
SFAC C  
C      1  0.4153170000000  0.5246460000000  0.4834530000000 1.0
C      1  0.5244160000000  0.4890630000000  0.4546640000000 1.0
C      1  0.4855520000000  0.5800670000000  0.4383690000000 1.0
C      1  0.4513340000000  0.4592430000000  0.5601200000000 1.0
C      1  0.4942390000000  0.4500980000000  0.4272250000000 1.0
C      1  0.4479980000000  0.5314090000000  0.6119560000000 1.0
C      1  0.5761710000000  0.5407090000000  0.5013810000000 1.0
C      1  0.5563880000000  0.5860490000000  0.5020100000000 1.0
C      1  0.5424610000000  0.4174470000000  0.5249750000000 1.0
C      1  0.4796340000000  0.5143090000000  0.4090800000000 1.0
C      1  0.5374530000000  0.5218420000000  0.4158640000000 1.0
C      1  0.4798510000000  0.4721050000000  0.4641280000000 1.0
C      1  0.4887000000000  0.4852410000000  0.3713660000000 1.0
C      1  0.4316670000000  0.4805380000000  0.4460970000000 1.0
C      1  0.5914130000000  0.5556590000000  0.5561940000000 1.0
C      1  0.4351730000000  0.4770140000000  0.4747130000000 1.0
C      1  0.5870530000000  0.5283410000000  0.5628180000000 1.0
C      1  0.3825620000000  0.5182810000000  0.5458420000000 1.0
C      1  0.5210740000000  0.4589240000000  0.5151910000000 1.0
C      1  0.4741730000000  0.5329290000000  0.6076690000000 1.0
C      1  0.4217530000000  0.4922380000000  0.6227880000000 1.0
C      1  0.5201190000000  0.5259690000000  0.5295430000000 1.0
C      1  0.5539760000000  0.5580540000000  0.4966770000000 1.0
C      1  0.4446020000000  0.4605370000000  0.5870860000000 1.0
C      1  0.5424900000000  0.4686800000000  0.5532960000000 1.0
C      1  0.4239380000000  0.4603830000000  0.5167370000000 1.0
C      1  0.5237410000000  0.4802410000000  0.4972660000000 1.0
C      1  0.5838950000000  0.5772920000000  0.5423520000000 1.0
C      1  0.4931230000000  0.4857840000000  0.5395560000000 1.0
C      1  0.5462940000000  0.5076480000000  0.4666310000000 1.0
C      1  0.5476990000000  0.4656380000000  0.4222900000000 1.0
C      1  0.4619700000000  0.4758900000000  0.4853040000000 1.0
C      1  0.5005370000000  0.5005370000000  0.4900610000000 1.0
C      1  0.5907320000000  0.5224890000000  0.5153330000000 1.0
C      1  0.5709260000000  0.5952750000000  0.5248330000000 1.0
C      1  0.5742600000000  0.4736610000000  0.4878340000000 1.0
C      1  0.5632860000000  0.4377430000000  0.5218250000000 1.0
C      1  0.4810540000000  0.4886830000000  0.3973380000000 1.0
C      1  0.5464720000000  0.4967540000000  0.5516740000000 1.0
C      1  0.4482420000000  0.4682960000000  0.4264230000000 1.0
C      1  0.4582260000000  0.5222190000000  0.5091770000000 1.0
C      1  0.5132270000000  0.5168860000000  0.5756810000000 1.0
C      1  0.5230560000000  0.6063740000000  0.4658440000000 1.0
C      1  0.4799580000000  0.4245330000000  0.4752290000000 1.0
C      1  0.5281980000000  0.4190930000000  0.4699460000000 1.0
C      1  0.4740830000000  0.4724800000000  0.5127800000000 1.0
C      1  0.4334170000000  0.4709840000000  0.6087660000000 1.0
C      1  0.4466980000000  0.5038880000000  0.5301710000000 1.0
C      1  0.5275760000000  0.5493520000000  0.4880200000000 1.0
C      1  0.4993540000000  0.4348800000000  0.5466730000000 1.0
C      1  0.4155860000000  0.5028740000000  0.4393460000000 1.0
C      1  0.4093760000000  0.4887750000000  0.6468560000000 1.0
C      1  0.5282260000000  0.4204740000000  0.4406260000000 1.0
C      1  0.5130380000000  0.4166360000000  0.5198340000000 1.0
C      1  0.4972070000000  0.5263880000000  0.5961920000000 1.0
C      1  0.5883750000000  0.4796040000000  0.5422400000000 1.0
C      1  0.4033060000000  0.5260440000000  0.5930260000000 1.0
C      1  0.4512940000000  0.5571970000000  0.4744120000000 1.0
C      1  0.5721960000000  0.4574960000000  0.4384600000000 1.0
C      1  0.4154330000000  0.4778080000000  0.4952960000000 1.0
C      1  0.5026120000000  0.5118410000000  0.5488410000000 1.0
C      1  0.5676140000000  0.4581210000000  0.5422130000000 1.0
C      1  0.5227890000000  0.5441140000000  0.4605130000000 1.0
C      1  0.5719840000000  0.6221370000000  0.5302570000000 1.0
C      1  0.4644710000000  0.5710310000000  0.4554760000000 1.0
C      1  0.5087100000000  0.5402680000000  0.5079150000000 1.0
C      1  0.5166900000000  0.5640430000000  0.3985320000000 1.0
C      1  0.4863960000000  0.5228130000000  0.5010850000000 1.0
C      1  0.3870330000000  0.5098310000000  0.5210460000000 1.0
C      1  0.5416970000000  0.6029260000000  0.4847430000000 1.0
C      1  0.5293750000000  0.4658300000000  0.4713120000000 1.0
C      1  0.5681790000000  0.5018460000000  0.4479370000000 1.0
C      1  0.4972030000000  0.4940070000000  0.4615270000000 1.0
C      1  0.5174240000000  0.5302400000000  0.4362170000000 1.0
C      1  0.4526620000000  0.4222370000000  0.4857790000000 1.0
C      1  0.4417610000000  0.4377320000000  0.5078810000000 1.0
C      1  0.4936040000000  0.5631690000000  0.4165330000000 1.0
C      1  0.5919980000000  0.5090030000000  0.5409030000000 1.0
C      1  0.5148960000000  0.4610500000000  0.5437100000000 1.0
C      1  0.5665720000000  0.5238290000000  0.5824370000000 1.0
C      1  0.4659640000000  0.4460710000000  0.5207390000000 1.0
C      1  0.4843130000000  0.4454150000000  0.4547940000000 1.0
C      1  0.5495610000000  0.4971190000000  0.4976140000000 1.0
C      1  0.4037660000000  0.5037010000000  0.4996240000000 1.0
C      1  0.5524120000000  0.4974920000000  0.4217850000000 1.0
C      1  0.5036480000000  0.5989830000000  0.4489730000000 1.0
C      1  0.4235550000000  0.5178800000000  0.6104850000000 1.0
C      1  0.5051370000000  0.4157330000000  0.4890100000000 1.0
C      1  0.4088310000000  0.5232090000000  0.4558570000000 1.0
C      1  0.5659100000000  0.4471890000000  0.4948590000000 1.0
C      1  0.5417680000000  0.5125800000000  0.5752780000000 1.0
C      1  0.4371900000000  0.4763660000000  0.5393230000000 1.0
C      1  0.5357760000000  0.5437430000000  0.3967490000000 1.0
C      1  0.4712080000000  0.4408540000000  0.5481180000000 1.0
C      1  0.4918480000000  0.5348150000000  0.4233910000000 1.0
C      1  0.5446190000000  0.5103480000000  0.5256080000000 1.0
C      1  0.5436900000000  0.4418250000000  0.4771560000000 1.0
C      1  0.4742590000000  0.4666170000000  0.4139080000000 1.0
C      1  0.5236560000000  0.4457140000000  0.4248460000000 1.0
C      1  0.3888270000000  0.5249800000000  0.5707790000000 1.0
C      1  0.5802330000000  0.4772210000000  0.4589830000000 1.0
C      1  0.4405900000000  0.5363880000000  0.4907310000000 1.0
END
