TITL C-247198-3593-604 151.258350678221 125000 -121.121569355719 0 0 22 (C1) n - 1
REM
REM in /home/nfs/bkarasulu/CARBON/AIRSS/Generating-Clusters/LCBOP/Only-C1/SD-CG/FIRE-HFTN
REM
REM
REM
REM
REM
REM ./C.cell (11c1c37f851c82e70ff6c80c92926a4b)
REM AIRSS Version 0.9.1 bugfix July 2018 build 013d7b7c2542+ Fri, 06 Jul 2018 19:26:36 +0100
REM compiler GCC version 9.2.1 20190827 (Red Hat 9.2.1-1)
REM options -cpp -mtune=generic -march=x86-64 -g -O0 -fpre-include=/usr/include/finclude/math-vector-fortran.h
REM seed -2027052872 -1123316850 465857505 167954664 1368814018 -924820755 1522693253 609654772 -148432527 -1799791143 -180219911 897089881 -32840164 -2051756588 -1377452278 340896343 -1815658090 763313650 186908684 879591698 1293325449 -449949438 402353212 -800366680 -605685224 -1131797717 -1007879078 -393363146 -515235745 -416698082 -1403589385 1367377235 1633687423
REM
CELL 1.54180   50.00000   50.00000   50.00000   90.00000   90.00000   90.00000
LATT -1
SFAC C  
C      1  0.4872740000000  0.5288040000000  0.4347230000000 1.0
C      1  0.4537650000000  0.5450940000000  0.4062130000000 1.0
C      1  0.4415660000000  0.5292310000000  0.4514780000000 1.0
C      1  0.4694340000000  0.5231200000000  0.4562120000000 1.0
C      1  0.5484630000000  0.4463090000000  0.5317280000000 1.0
C      1  0.4355850000000  0.5401840000000  0.4258500000000 1.0
C      1  0.4799930000000  0.5393210000000  0.4107080000000 1.0
C      1  0.4831110000000  0.4782470000000  0.5448980000000 1.0
C      1  0.5515360000000  0.4712930000000  0.4903010000000 1.0
C      1  0.4690100000000  0.4662990000000  0.5638790000000 1.0
C      1  0.5400100000000  0.5105980000000  0.5422080000000 1.0
C      1  0.4874680000000  0.5017920000000  0.5027600000000 1.0
C      1  0.5273270000000  0.4900710000000  0.5281810000000 1.0
C      1  0.5639350000000  0.5492500000000  0.5685960000000 1.0
C      1  0.4784400000000  0.5123420000000  0.4802210000000 1.0
C      1  0.5425880000000  0.4690730000000  0.5166610000000 1.0
C      1  0.5531960000000  0.4252810000000  0.5463760000000 1.0
C      1  0.4552590000000  0.4544570000000  0.5825950000000 1.0
C      1  0.5520660000000  0.5300770000000  0.5555140000000 1.0
C      1  0.5587190000000  0.4742260000000  0.4654220000000 1.0
C      1  0.4221770000000  0.5248620000000  0.4701900000000 1.0
C      1  0.4990770000000  0.4900680000000  0.5252820000000 1.0
END
