TITL C-247201-3759-303 -3.11600942949807e-07 125000 -943.769629894752 0 0 155 (C1) n - 1
REM
REM in /home/nfs/bkarasulu/CARBON/AIRSS/Generating-Clusters/LCBOP/Only-C1/SD-CG/FIRE-HFTN
REM
REM
REM
REM
REM
REM ./C.cell (11c1c37f851c82e70ff6c80c92926a4b)
REM AIRSS Version 0.9.1 bugfix July 2018 build 013d7b7c2542+ Fri, 06 Jul 2018 19:26:36 +0100
REM compiler GCC version 9.2.1 20190827 (Red Hat 9.2.1-1)
REM options -cpp -mtune=generic -march=x86-64 -g -O0 -fpre-include=/usr/include/finclude/math-vector-fortran.h
REM seed -545173656 2115434539 456499813 -69623049 2059851464 -323010678 -448082910 1757471725 -1809899742 -1877019139 228660668 -1940086832 -842248472 -385301660 1689192519 188576584 1839562527 -1466533072 -311504863 -2015687311 876675057 704908588 82334707 1823982698 813329879 -1190901048 -1331357274 1718409221 1880879714 687788798 -1020338210 -602074121 -2009749356
REM
CELL 1.54180   50.00000   50.00000   50.00000   90.00000   90.00000   90.00000
LATT -1
SFAC C  
C      1  0.4399910000000  0.4401570000000  0.4187100000000 1.0
C      1  0.4416430000000  0.5872400000000  0.4539930000000 1.0
C      1  0.3905550000000  0.5390920000000  0.5022800000000 1.0
C      1  0.5681840000000  0.5589660000000  0.5720810000000 1.0
C      1  0.5058380000000  0.4810200000000  0.6366640000000 1.0
C      1  0.5138490000000  0.5293890000000  0.3867750000000 1.0
C      1  0.4067470000000  0.5155660000000  0.4610670000000 1.0
C      1  0.4716810000000  0.4781990000000  0.4418690000000 1.0
C      1  0.6018680000000  0.4877140000000  0.5331250000000 1.0
C      1  0.5249870000000  0.4969040000000  0.4580470000000 1.0
C      1  0.5440120000000  0.5606590000000  0.4200320000000 1.0
C      1  0.5358490000000  0.5433220000000  0.3987450000000 1.0
C      1  0.4847700000000  0.5737920000000  0.6186750000000 1.0
C      1  0.5786250000000  0.4127690000000  0.4698610000000 1.0
C      1  0.5876430000000  0.5383520000000  0.5265650000000 1.0
C      1  0.4818720000000  0.5204290000000  0.4198880000000 1.0
C      1  0.4775000000000  0.5667380000000  0.5026720000000 1.0
C      1  0.4388180000000  0.5109130000000  0.5876260000000 1.0
C      1  0.4811580000000  0.4507760000000  0.4399820000000 1.0
C      1  0.4302530000000  0.5626590000000  0.5180630000000 1.0
C      1  0.5521640000000  0.5744340000000  0.5085540000000 1.0
C      1  0.4343420000000  0.4305930000000  0.4442510000000 1.0
C      1  0.5035570000000  0.3945820000000  0.5602200000000 1.0
C      1  0.5577030000000  0.4556920000000  0.4792530000000 1.0
C      1  0.5868980000000  0.5586490000000  0.4756350000000 1.0
C      1  0.5559100000000  0.4332800000000  0.4347380000000 1.0
C      1  0.4785410000000  0.5463330000000  0.6176630000000 1.0
C      1  0.4408840000000  0.4177990000000  0.4964040000000 1.0
C      1  0.4199120000000  0.5035380000000  0.5699130000000 1.0
C      1  0.5426750000000  0.4784140000000  0.4195020000000 1.0
C      1  0.5083980000000  0.6181540000000  0.4570230000000 1.0
C      1  0.4690120000000  0.4130850000000  0.5856570000000 1.0
C      1  0.5135250000000  0.4793930000000  0.5297280000000 1.0
C      1  0.5172780000000  0.5281240000000  0.5757830000000 1.0
C      1  0.4777660000000  0.6325700000000  0.5006230000000 1.0
C      1  0.5785120000000  0.5593320000000  0.5047080000000 1.0
C      1  0.5284200000000  0.4855710000000  0.5544430000000 1.0
C      1  0.4993170000000  0.3810250000000  0.4647960000000 1.0
C      1  0.4633710000000  0.5024960000000  0.5991690000000 1.0
C      1  0.4294420000000  0.5606500000000  0.4584520000000 1.0
C      1  0.4729270000000  0.4605340000000  0.5687020000000 1.0
C      1  0.4936620000000  0.5489750000000  0.4546430000000 1.0
C      1  0.4652710000000  0.5918050000000  0.6254040000000 1.0
C      1  0.5061590000000  0.5072210000000  0.6264070000000 1.0
C      1  0.4129370000000  0.5400960000000  0.4442980000000 1.0
C      1  0.4346480000000  0.4170970000000  0.5459290000000 1.0
C      1  0.4497720000000  0.4941390000000  0.4535260000000 1.0
C      1  0.5324530000000  0.5175310000000  0.6187020000000 1.0
C      1  0.4859260000000  0.6100440000000  0.4407070000000 1.0
C      1  0.5873340000000  0.4725450000000  0.5529390000000 1.0
C      1  0.4606170000000  0.4516420000000  0.4001980000000 1.0
C      1  0.5058410000000  0.4451650000000  0.5004950000000 1.0
C      1  0.5932160000000  0.4953500000000  0.4349720000000 1.0
C      1  0.4566290000000  0.5217840000000  0.4610740000000 1.0
C      1  0.5304450000000  0.5424790000000  0.4827010000000 1.0
C      1  0.4900930000000  0.4294930000000  0.4577880000000 1.0
C      1  0.4793020000000  0.5636780000000  0.3967110000000 1.0
C      1  0.5837100000000  0.5402660000000  0.5566990000000 1.0
C      1  0.5645110000000  0.4833190000000  0.4810860000000 1.0
C      1  0.4837390000000  0.4336150000000  0.4865670000000 1.0
C      1  0.5284500000000  0.5762740000000  0.4405930000000 1.0
C      1  0.3536310000000  0.4747300000000  0.5718700000000 1.0
C      1  0.4331300000000  0.5617600000000  0.4062210000000 1.0
C      1  0.4868670000000  0.4447940000000  0.4116510000000 1.0
C      1  0.4811360000000  0.4927640000000  0.4855700000000 1.0
C      1  0.4576730000000  0.5761080000000  0.4095130000000 1.0
C      1  0.4277050000000  0.4175260000000  0.4697510000000 1.0
C      1  0.4048810000000  0.4016650000000  0.4686680000000 1.0
C      1  0.5054400000000  0.5729200000000  0.4575390000000 1.0
C      1  0.4391780000000  0.4968930000000  0.3926310000000 1.0
C      1  0.4861840000000  0.4004120000000  0.4503950000000 1.0
C      1  0.4453370000000  0.5082270000000  0.5136670000000 1.0
C      1  0.4517810000000  0.5556070000000  0.5012540000000 1.0
C      1  0.4600190000000  0.4779080000000  0.3867100000000 1.0
C      1  0.4454500000000  0.6054130000000  0.4756340000000 1.0
C      1  0.5091110000000  0.4939280000000  0.4807730000000 1.0
C      1  0.4144450000000  0.4530160000000  0.5204310000000 1.0
C      1  0.4197140000000  0.5384850000000  0.4159530000000 1.0
C      1  0.5435670000000  0.6012910000000  0.4993860000000 1.0
C      1  0.5296710000000  0.4461360000000  0.4831450000000 1.0
C      1  0.5115690000000  0.4998280000000  0.5747440000000 1.0
C      1  0.6014780000000  0.5395660000000  0.4565660000000 1.0
C      1  0.4895810000000  0.5378230000000  0.3991570000000 1.0
C      1  0.4708860000000  0.4769160000000  0.5896700000000 1.0
C      1  0.4712900000000  0.6098990000000  0.4869470000000 1.0
C      1  0.4691790000000  0.4128160000000  0.4990230000000 1.0
C      1  0.5304430000000  0.5555500000000  0.5069880000000 1.0
C      1  0.5439410000000  0.5106580000000  0.5437340000000 1.0
C      1  0.5381150000000  0.3945740000000  0.4942900000000 1.0
C      1  0.5717580000000  0.5642750000000  0.4288110000000 1.0
C      1  0.4283510000000  0.4283530000000  0.5204870000000 1.0
C      1  0.5692390000000  0.5001440000000  0.5026890000000 1.0
C      1  0.4037450000000  0.5578850000000  0.5165590000000 1.0
C      1  0.4024920000000  0.4884680000000  0.5533280000000 1.0
C      1  0.4904730000000  0.4941420000000  0.4255060000000 1.0
C      1  0.5461430000000  0.4592320000000  0.5916800000000 1.0
C      1  0.5322390000000  0.5370600000000  0.5979360000000 1.0
C      1  0.5142750000000  0.4571650000000  0.6281060000000 1.0
C      1  0.3772070000000  0.4815420000000  0.5630970000000 1.0
C      1  0.5375870000000  0.5842220000000  0.6040790000000 1.0
C      1  0.4177560000000  0.5145680000000  0.3997670000000 1.0
C      1  0.4813980000000  0.4503950000000  0.5454120000000 1.0
C      1  0.5481360000000  0.5603440000000  0.5927080000000 1.0
C      1  0.5387030000000  0.4130820000000  0.4479640000000 1.0
C      1  0.5098250000000  0.3858290000000  0.4911310000000 1.0
C      1  0.4844010000000  0.4881280000000  0.3742070000000 1.0
C      1  0.5479510000000  0.5920790000000  0.4554080000000 1.0
C      1  0.4214910000000  0.4920440000000  0.4527490000000 1.0
C      1  0.5001790000000  0.4558640000000  0.5254900000000 1.0
C      1  0.5268990000000  0.4440490000000  0.6066140000000 1.0
C      1  0.5548360000000  0.4997710000000  0.6179150000000 1.0
C      1  0.5184090000000  0.5000470000000  0.5083910000000 1.0
C      1  0.5322360000000  0.3969470000000  0.6138100000000 1.0
C      1  0.3927210000000  0.5082040000000  0.3901400000000 1.0
C      1  0.5433430000000  0.4615470000000  0.5633940000000 1.0
C      1  0.5658630000000  0.4527550000000  0.5474220000000 1.0
C      1  0.5408070000000  0.4499680000000  0.4158910000000 1.0
C      1  0.5146940000000  0.4416090000000  0.4055590000000 1.0
C      1  0.5492150000000  0.4091710000000  0.5171330000000 1.0
C      1  0.4883100000000  0.3931120000000  0.5095700000000 1.0
C      1  0.4617290000000  0.5926480000000  0.4328760000000 1.0
C      1  0.4473800000000  0.4135410000000  0.5693790000000 1.0
C      1  0.4815390000000  0.5183740000000  0.6154680000000 1.0
C      1  0.5831840000000  0.4889930000000  0.5774300000000 1.0
C      1  0.4971590000000  0.5218180000000  0.5170940000000 1.0
C      1  0.5064600000000  0.5046700000000  0.3733410000000 1.0
C      1  0.5525080000000  0.6069240000000  0.6066030000000 1.0
C      1  0.4723210000000  0.5093170000000  0.5076090000000 1.0
C      1  0.4755750000000  0.5324430000000  0.4438170000000 1.0
C      1  0.5107560000000  0.5829980000000  0.6128370000000 1.0
C      1  0.5184690000000  0.4171040000000  0.6009740000000 1.0
C      1  0.4880030000000  0.5864300000000  0.4855230000000 1.0
C      1  0.4932850000000  0.3880930000000  0.5365250000000 1.0
C      1  0.5896680000000  0.5165450000000  0.5724220000000 1.0
C      1  0.5141810000000  0.5434920000000  0.5272810000000 1.0
C      1  0.4096280000000  0.4801520000000  0.5266900000000 1.0
C      1  0.5335500000000  0.6099570000000  0.4727940000000 1.0
C      1  0.5720460000000  0.5769170000000  0.4562050000000 1.0
C      1  0.5646870000000  0.4808730000000  0.5990160000000 1.0
C      1  0.5280180000000  0.5346500000000  0.5503530000000 1.0
C      1  0.5532250000000  0.3981200000000  0.4693810000000 1.0
C      1  0.5199050000000  0.4305550000000  0.4600900000000 1.0
C      1  0.5654690000000  0.4906520000000  0.4334790000000 1.0
C      1  0.6060380000000  0.5117030000000  0.4529170000000 1.0
C      1  0.5729770000000  0.4398190000000  0.4593480000000 1.0
C      1  0.4970940000000  0.4091250000000  0.5834990000000 1.0
C      1  0.5960160000000  0.5498310000000  0.4294600000000 1.0
C      1  0.5533120000000  0.4968650000000  0.4591500000000 1.0
C      1  0.5613720000000  0.4292680000000  0.5313490000000 1.0
C      1  0.4451320000000  0.5435500000000  0.4762880000000 1.0
C      1  0.5916730000000  0.5096650000000  0.5174110000000 1.0
C      1  0.5459560000000  0.5073930000000  0.5154690000000 1.0
C      1  0.5177850000000  0.4901350000000  0.4308960000000 1.0
C      1  0.4185410000000  0.5004960000000  0.5087070000000 1.0
C      1  0.4021680000000  0.5162490000000  0.4901100000000 1.0
END
