TITL C-247202-1916-74 0.000243970267374719 125000 -781.496712033367 0 0 129 (C1) n - 1
REM
REM in /home/nfs/bkarasulu/CARBON/AIRSS/Generating-Clusters/LCBOP/Only-C1/SD-CG/FIRE-HFTN
REM
REM
REM
REM
REM
REM ./C.cell (11c1c37f851c82e70ff6c80c92926a4b)
REM AIRSS Version 0.9.1 bugfix July 2018 build 013d7b7c2542+ Fri, 06 Jul 2018 19:26:36 +0100
REM compiler GCC version 9.2.1 20190827 (Red Hat 9.2.1-1)
REM options -cpp -mtune=generic -march=x86-64 -g -O0 -fpre-include=/usr/include/finclude/math-vector-fortran.h
REM seed 1293789968 54446553 1651463068 -2028370409 -1110810830 -1937980922 -2115619231 -1054176554 -1263557138 -436723806 -1653373324 62307719 1375084795 900096763 -531659597 -465307246 98985607 1074257923 -607614103 513976497 -1827023206 917231875 1302062471 310495436 943183279 79527293 -1823165698 -1639058052 -944655449 -332710081 627543627 333242144 -1750169867
REM
CELL 1.54180   50.00000   50.00000   50.00000   90.00000   90.00000   90.00000
LATT -1
SFAC C  
C      1  0.3777170000000  0.4919900000000  0.5229520000000 1.0
C      1  0.5402950000000  0.6040260000000  0.4640970000000 1.0
C      1  0.5055910000000  0.5089000000000  0.6068650000000 1.0
C      1  0.4478030000000  0.4166030000000  0.5440780000000 1.0
C      1  0.6249890000000  0.4956250000000  0.4292320000000 1.0
C      1  0.4383400000000  0.5514040000000  0.5610550000000 1.0
C      1  0.5752350000000  0.4551820000000  0.5654880000000 1.0
C      1  0.5341120000000  0.5370420000000  0.4968840000000 1.0
C      1  0.6212910000000  0.5110940000000  0.4526750000000 1.0
C      1  0.4625000000000  0.5345870000000  0.6024550000000 1.0
C      1  0.4171510000000  0.4491530000000  0.4783750000000 1.0
C      1  0.4890310000000  0.5310270000000  0.5473210000000 1.0
C      1  0.5517680000000  0.6271380000000  0.4532340000000 1.0
C      1  0.4348890000000  0.5748420000000  0.4572820000000 1.0
C      1  0.4928350000000  0.5418070000000  0.4516030000000 1.0
C      1  0.5240510000000  0.5000380000000  0.3946350000000 1.0
C      1  0.4814070000000  0.4836630000000  0.5187280000000 1.0
C      1  0.4921610000000  0.4074040000000  0.5006560000000 1.0
C      1  0.4207480000000  0.4559510000000  0.5293010000000 1.0
C      1  0.5662820000000  0.4761320000000  0.5801880000000 1.0
C      1  0.5807530000000  0.4370410000000  0.5461090000000 1.0
C      1  0.5565510000000  0.4014310000000  0.5202310000000 1.0
C      1  0.5722040000000  0.5093960000000  0.3821380000000 1.0
C      1  0.5823440000000  0.4871410000000  0.4943200000000 1.0
C      1  0.4895550000000  0.5324160000000  0.6114500000000 1.0
C      1  0.4642550000000  0.3955440000000  0.5407040000000 1.0
C      1  0.4658920000000  0.6086600000000  0.4729110000000 1.0
C      1  0.4917480000000  0.4847580000000  0.6023900000000 1.0
C      1  0.5150160000000  0.6059740000000  0.4762020000000 1.0
C      1  0.4543390000000  0.4976330000000  0.4778240000000 1.0
C      1  0.4155590000000  0.4747970000000  0.5503970000000 1.0
C      1  0.3259860000000  0.5371260000000  0.4913300000000 1.0
C      1  0.5020260000000  0.4751890000000  0.5374200000000 1.0
C      1  0.6034900000000  0.4873040000000  0.4127640000000 1.0
C      1  0.4325910000000  0.4874190000000  0.5714020000000 1.0
C      1  0.4210540000000  0.5135570000000  0.5796140000000 1.0
C      1  0.5406580000000  0.4955650000000  0.4422620000000 1.0
C      1  0.3856910000000  0.4781940000000  0.5001440000000 1.0
C      1  0.4985160000000  0.5459110000000  0.5270740000000 1.0
C      1  0.4273450000000  0.5346000000000  0.5389750000000 1.0
C      1  0.4832290000000  0.3917040000000  0.5220160000000 1.0
C      1  0.4391430000000  0.5154140000000  0.4628740000000 1.0
C      1  0.5305760000000  0.4508110000000  0.4704920000000 1.0
C      1  0.5338520000000  0.4667230000000  0.4464500000000 1.0
C      1  0.3944510000000  0.5606490000000  0.4819680000000 1.0
C      1  0.4860280000000  0.4351870000000  0.4990860000000 1.0
C      1  0.4830790000000  0.5228630000000  0.4051900000000 1.0
C      1  0.3510930000000  0.5380090000000  0.4844040000000 1.0
C      1  0.4936470000000  0.5502970000000  0.4770600000000 1.0
C      1  0.5109220000000  0.6004160000000  0.5334500000000 1.0
C      1  0.4059340000000  0.5201390000000  0.5539410000000 1.0
C      1  0.5812650000000  0.4860090000000  0.3956110000000 1.0
C      1  0.5272980000000  0.4879700000000  0.5392310000000 1.0
C      1  0.4898260000000  0.6068720000000  0.4887080000000 1.0
C      1  0.4952280000000  0.4592580000000  0.5604800000000 1.0
C      1  0.4432040000000  0.4387440000000  0.5273880000000 1.0
C      1  0.5298020000000  0.5898520000000  0.5490790000000 1.0
C      1  0.4577690000000  0.4394010000000  0.5025540000000 1.0
C      1  0.4478570000000  0.5172200000000  0.5270990000000 1.0
C      1  0.4879200000000  0.6020190000000  0.5172730000000 1.0
C      1  0.5129260000000  0.4986800000000  0.4801870000000 1.0
C      1  0.5388710000000  0.4012540000000  0.5424600000000 1.0
C      1  0.4604430000000  0.4908830000000  0.5669030000000 1.0
C      1  0.4961890000000  0.5076790000000  0.3860110000000 1.0
C      1  0.4022760000000  0.4657140000000  0.4595710000000 1.0
C      1  0.4147890000000  0.5199320000000  0.4531860000000 1.0
C      1  0.4897060000000  0.4224460000000  0.5913870000000 1.0
C      1  0.4986470000000  0.5261780000000  0.4292670000000 1.0
C      1  0.5699590000000  0.5582780000000  0.4595280000000 1.0
C      1  0.5606310000000  0.4660450000000  0.3957620000000 1.0
C      1  0.3867110000000  0.4871690000000  0.4726530000000 1.0
C      1  0.6751890000000  0.4809830000000  0.4156050000000 1.0
C      1  0.5630940000000  0.5108530000000  0.4488330000000 1.0
C      1  0.5561690000000  0.5025580000000  0.5853650000000 1.0
C      1  0.4911770000000  0.4555060000000  0.4244520000000 1.0
C      1  0.5085350000000  0.5482740000000  0.5009600000000 1.0
C      1  0.5467380000000  0.3905360000000  0.4953250000000 1.0
C      1  0.6509910000000  0.4881750000000  0.4220800000000 1.0
C      1  0.3781250000000  0.5377390000000  0.4776820000000 1.0
C      1  0.4698520000000  0.4570900000000  0.4433710000000 1.0
C      1  0.5271420000000  0.3891780000000  0.4761970000000 1.0
C      1  0.5790160000000  0.5318130000000  0.4590320000000 1.0
C      1  0.4673280000000  0.5131310000000  0.5496530000000 1.0
C      1  0.4365060000000  0.5925150000000  0.5229080000000 1.0
C      1  0.4627280000000  0.5957980000000  0.5287490000000 1.0
C      1  0.4999840000000  0.3980090000000  0.4747230000000 1.0
C      1  0.5027050000000  0.4328940000000  0.5686880000000 1.0
C      1  0.5470580000000  0.4450670000000  0.4926630000000 1.0
C      1  0.5192500000000  0.4590080000000  0.4220520000000 1.0
C      1  0.4395760000000  0.5358070000000  0.5860160000000 1.0
C      1  0.4953100000000  0.4781270000000  0.4758190000000 1.0
C      1  0.5744760000000  0.4403000000000  0.4977520000000 1.0
C      1  0.5456120000000  0.5148550000000  0.3802900000000 1.0
C      1  0.5334380000000  0.5080880000000  0.6014330000000 1.0
C      1  0.4429360000000  0.4372030000000  0.4777180000000 1.0
C      1  0.4584410000000  0.5884210000000  0.4540590000000 1.0
C      1  0.4165470000000  0.5778210000000  0.4792550000000 1.0
C      1  0.4591410000000  0.4995460000000  0.5066460000000 1.0
C      1  0.4608420000000  0.4319900000000  0.4552010000000 1.0
C      1  0.5454240000000  0.5726660000000  0.5622240000000 1.0
C      1  0.3902270000000  0.5146430000000  0.4658650000000 1.0
C      1  0.4059950000000  0.4577940000000  0.5045640000000 1.0
C      1  0.5624270000000  0.6486840000000  0.4431650000000 1.0
C      1  0.6170290000000  0.4555570000000  0.4803770000000 1.0
C      1  0.4253870000000  0.5985220000000  0.4975840000000 1.0
C      1  0.4772940000000  0.4124290000000  0.6119980000000 1.0
C      1  0.5922120000000  0.4608840000000  0.4903150000000 1.0
C      1  0.5989470000000  0.5106470000000  0.4971440000000 1.0
C      1  0.5033380000000  0.4517820000000  0.4821910000000 1.0
C      1  0.5761810000000  0.4233410000000  0.5211590000000 1.0
C      1  0.5322130000000  0.4706050000000  0.3989620000000 1.0
C      1  0.5558430000000  0.4939950000000  0.5021990000000 1.0
C      1  0.5723420000000  0.5139730000000  0.5416170000000 1.0
C      1  0.4705790000000  0.4793690000000  0.4626290000000 1.0
C      1  0.4802330000000  0.4750450000000  0.5788670000000 1.0
C      1  0.3954420000000  0.4956220000000  0.5440730000000 1.0
C      1  0.5006370000000  0.5535900000000  0.6249610000000 1.0
C      1  0.5220630000000  0.4162370000000  0.5569460000000 1.0
C      1  0.5545520000000  0.5798470000000  0.4624410000000 1.0
C      1  0.5327830000000  0.4452870000000  0.5164330000000 1.0
C      1  0.4417090000000  0.6188250000000  0.4847990000000 1.0
C      1  0.6032810000000  0.5224060000000  0.4713240000000 1.0
C      1  0.5579180000000  0.5503840000000  0.5699720000000 1.0
C      1  0.5941920000000  0.5210790000000  0.5238050000000 1.0
C      1  0.5525740000000  0.4962640000000  0.5302290000000 1.0
C      1  0.5651450000000  0.5233740000000  0.5673820000000 1.0
C      1  0.5364730000000  0.5099480000000  0.4895440000000 1.0
C      1  0.4801590000000  0.4092090000000  0.4558310000000 1.0
C      1  0.5224500000000  0.5096290000000  0.4248340000000 1.0
END
