TITL C-247202-1916-617 0.0084202763972149 125000 -1163.97628597488 0 0 189 (C1) n - 1
REM
REM in /home/nfs/bkarasulu/CARBON/AIRSS/Generating-Clusters/LCBOP/Only-C1/SD-CG/FIRE-HFTN
REM
REM
REM
REM
REM
REM ./C.cell (11c1c37f851c82e70ff6c80c92926a4b)
REM AIRSS Version 0.9.1 bugfix July 2018 build 013d7b7c2542+ Fri, 06 Jul 2018 19:26:36 +0100
REM compiler GCC version 9.2.1 20190827 (Red Hat 9.2.1-1)
REM options -cpp -mtune=generic -march=x86-64 -g -O0 -fpre-include=/usr/include/finclude/math-vector-fortran.h
REM seed 591564628 178155244 1700370161 -673573479 338410830 522345775 -567396607 198708691 1332552619 -1163915659 -132665056 -510717218 2126647596 60597862 -1614531996 -564253512 1174845766 -2002326496 1601197217 932451514 1608674537 -1736196640 -363635585 673318842 -651145553 -1152466761 -796325953 -569593263 1543454888 -1018578262 2113126241 444380590 -2069996104
REM
CELL 1.54180   50.00000   50.00000   50.00000   90.00000   90.00000   90.00000
LATT -1
SFAC C  
C      1  0.4753690000000  0.5167100000000  0.5713520000000 1.0
C      1  0.4703910000000  0.4436330000000  0.4019220000000 1.0
C      1  0.5699180000000  0.5850560000000  0.5599020000000 1.0
C      1  0.5099540000000  0.3867670000000  0.5569750000000 1.0
C      1  0.4930790000000  0.5513440000000  0.4509120000000 1.0
C      1  0.6185380000000  0.5130720000000  0.4284780000000 1.0
C      1  0.4109760000000  0.5839660000000  0.4613240000000 1.0
C      1  0.5804670000000  0.5094510000000  0.5546450000000 1.0
C      1  0.5311840000000  0.5111950000000  0.5601920000000 1.0
C      1  0.5048320000000  0.4752030000000  0.5040950000000 1.0
C      1  0.4456560000000  0.5931480000000  0.5603250000000 1.0
C      1  0.4855630000000  0.5133890000000  0.5433230000000 1.0
C      1  0.5684730000000  0.4389560000000  0.4358420000000 1.0
C      1  0.5368370000000  0.4958640000000  0.4359450000000 1.0
C      1  0.4138400000000  0.5209560000000  0.5642560000000 1.0
C      1  0.4880780000000  0.3700440000000  0.4828090000000 1.0
C      1  0.5723590000000  0.5829720000000  0.4749200000000 1.0
C      1  0.4235940000000  0.4856990000000  0.4374860000000 1.0
C      1  0.5122150000000  0.3869380000000  0.4792290000000 1.0
C      1  0.5527590000000  0.4564430000000  0.5425460000000 1.0
C      1  0.5748220000000  0.5330620000000  0.5718620000000 1.0
C      1  0.4107200000000  0.4168710000000  0.5474430000000 1.0
C      1  0.6153240000000  0.4547810000000  0.4918490000000 1.0
C      1  0.4914940000000  0.4339120000000  0.4207290000000 1.0
C      1  0.5683410000000  0.4327670000000  0.5393140000000 1.0
C      1  0.5069390000000  0.6253260000000  0.4579990000000 1.0
C      1  0.5386130000000  0.3826300000000  0.4931880000000 1.0
C      1  0.4927660000000  0.6006110000000  0.5373390000000 1.0
C      1  0.4856600000000  0.4679850000000  0.5221080000000 1.0
C      1  0.4352320000000  0.5927720000000  0.4490520000000 1.0
C      1  0.5079040000000  0.4659320000000  0.6194970000000 1.0
C      1  0.4143330000000  0.4694100000000  0.5581950000000 1.0
C      1  0.4615870000000  0.4904160000000  0.4806950000000 1.0
C      1  0.5095310000000  0.5836960000000  0.4927060000000 1.0
C      1  0.4481360000000  0.6043970000000  0.5134180000000 1.0
C      1  0.5401390000000  0.4343270000000  0.4296370000000 1.0
C      1  0.5607880000000  0.5472020000000  0.5260710000000 1.0
C      1  0.4694370000000  0.4032040000000  0.5838190000000 1.0
C      1  0.5180740000000  0.3948600000000  0.4514500000000 1.0
C      1  0.5690790000000  0.5329230000000  0.4835110000000 1.0
C      1  0.6018200000000  0.5292670000000  0.4155430000000 1.0
C      1  0.4282060000000  0.5131610000000  0.4411460000000 1.0
C      1  0.5592970000000  0.4723480000000  0.4770230000000 1.0
C      1  0.4467280000000  0.5331920000000  0.3679050000000 1.0
C      1  0.3837400000000  0.5338480000000  0.5279660000000 1.0
C      1  0.4360730000000  0.4512830000000  0.4692440000000 1.0
C      1  0.5393800000000  0.5450270000000  0.4527750000000 1.0
C      1  0.5213920000000  0.4344370000000  0.4776680000000 1.0
C      1  0.3896830000000  0.5612770000000  0.5219160000000 1.0
C      1  0.4944370000000  0.4912040000000  0.6156060000000 1.0
C      1  0.4814460000000  0.4712140000000  0.3968580000000 1.0
C      1  0.5443210000000  0.5332400000000  0.5780580000000 1.0
C      1  0.4506770000000  0.4225780000000  0.4033620000000 1.0
C      1  0.5835650000000  0.4286440000000  0.4610860000000 1.0
C      1  0.5528230000000  0.4171870000000  0.5783540000000 1.0
C      1  0.3874080000000  0.5267000000000  0.5551360000000 1.0
C      1  0.4139520000000  0.4683260000000  0.4582630000000 1.0
C      1  0.6198190000000  0.4951430000000  0.4501240000000 1.0
C      1  0.4551080000000  0.4312320000000  0.4567650000000 1.0
C      1  0.4846380000000  0.4961370000000  0.5889700000000 1.0
C      1  0.5789410000000  0.4855880000000  0.4939440000000 1.0
C      1  0.5019550000000  0.4154540000000  0.4927670000000 1.0
C      1  0.4497960000000  0.4661560000000  0.4899000000000 1.0
C      1  0.5117880000000  0.4648130000000  0.3936360000000 1.0
C      1  0.3914460000000  0.4696810000000  0.5740400000000 1.0
C      1  0.3818800000000  0.5101480000000  0.4800490000000 1.0
C      1  0.4519570000000  0.4350630000000  0.5523820000000 1.0
C      1  0.5022860000000  0.5130310000000  0.6312540000000 1.0
C      1  0.5384830000000  0.5321860000000  0.6067920000000 1.0
C      1  0.5190430000000  0.6059890000000  0.5492880000000 1.0
C      1  0.4777260000000  0.4983460000000  0.4091010000000 1.0
C      1  0.4150280000000  0.5713530000000  0.5300220000000 1.0
C      1  0.4534340000000  0.4018920000000  0.4505990000000 1.0
C      1  0.4477310000000  0.4021550000000  0.4220180000000 1.0
C      1  0.3938800000000  0.5356120000000  0.4655240000000 1.0
C      1  0.6296840000000  0.5064780000000  0.4749770000000 1.0
C      1  0.5310980000000  0.4802100000000  0.3803100000000 1.0
C      1  0.5614500000000  0.5212740000000  0.3908560000000 1.0
C      1  0.4625760000000  0.4314350000000  0.5262030000000 1.0
C      1  0.4499260000000  0.5430170000000  0.4731920000000 1.0
C      1  0.5006280000000  0.5692950000000  0.3835640000000 1.0
C      1  0.4626960000000  0.6053140000000  0.5395850000000 1.0
C      1  0.5327020000000  0.5659130000000  0.6708550000000 1.0
C      1  0.4987220000000  0.5719510000000  0.4693080000000 1.0
C      1  0.5015960000000  0.5132840000000  0.4033880000000 1.0
C      1  0.6039290000000  0.5534270000000  0.5355160000000 1.0
C      1  0.3905870000000  0.4828440000000  0.4703920000000 1.0
C      1  0.5740870000000  0.5120040000000  0.5013290000000 1.0
C      1  0.5895720000000  0.4836580000000  0.5647900000000 1.0
C      1  0.5212050000000  0.5282000000000  0.5018750000000 1.0
C      1  0.5478590000000  0.5974910000000  0.4650820000000 1.0
C      1  0.3916530000000  0.5152990000000  0.5075810000000 1.0
C      1  0.5221060000000  0.4426300000000  0.6111610000000 1.0
C      1  0.6216370000000  0.5051540000000  0.5030730000000 1.0
C      1  0.4919730000000  0.3698790000000  0.5379630000000 1.0
C      1  0.5262870000000  0.4217170000000  0.4510960000000 1.0
C      1  0.5483670000000  0.4748680000000  0.5231720000000 1.0
C      1  0.4730800000000  0.5091680000000  0.4976640000000 1.0
C      1  0.4963950000000  0.5223580000000  0.4911870000000 1.0
C      1  0.5824830000000  0.5556770000000  0.4716940000000 1.0
C      1  0.4740470000000  0.4887020000000  0.4560710000000 1.0
C      1  0.4750770000000  0.5601850000000  0.5181880000000 1.0
C      1  0.5417780000000  0.4620850000000  0.5684770000000 1.0
C      1  0.4512030000000  0.5505420000000  0.3883630000000 1.0
C      1  0.5377480000000  0.5579150000000  0.5379680000000 1.0
C      1  0.5542690000000  0.4088670000000  0.5306750000000 1.0
C      1  0.4594990000000  0.4476970000000  0.5986730000000 1.0
C      1  0.6185910000000  0.5293510000000  0.5222110000000 1.0
C      1  0.4238950000000  0.4424580000000  0.5522320000000 1.0
C      1  0.5884310000000  0.5582800000000  0.5621990000000 1.0
C      1  0.5831790000000  0.5644700000000  0.5179340000000 1.0
C      1  0.4644940000000  0.5091850000000  0.5241420000000 1.0
C      1  0.4175440000000  0.5339350000000  0.4229370000000 1.0
C      1  0.4409160000000  0.3766690000000  0.5567690000000 1.0
C      1  0.4529890000000  0.5586720000000  0.4984480000000 1.0
C      1  0.4522740000000  0.6179400000000  0.4890170000000 1.0
C      1  0.5567340000000  0.4024000000000  0.5028630000000 1.0
C      1  0.4421540000000  0.5795860000000  0.4245570000000 1.0
C      1  0.5662700000000  0.4233140000000  0.4844620000000 1.0
C      1  0.5145290000000  0.5985050000000  0.4203670000000 1.0
C      1  0.5745150000000  0.5346220000000  0.4120590000000 1.0
C      1  0.4630640000000  0.3840550000000  0.4727420000000 1.0
C      1  0.5186240000000  0.4427920000000  0.4118280000000 1.0
C      1  0.4705530000000  0.5090570000000  0.4366270000000 1.0
C      1  0.4593700000000  0.5399080000000  0.5678680000000 1.0
C      1  0.5098280000000  0.3950010000000  0.6073440000000 1.0
C      1  0.5199300000000  0.5823060000000  0.3978520000000 1.0
C      1  0.5191910000000  0.5154810000000  0.4249680000000 1.0
C      1  0.4260570000000  0.5711740000000  0.5567890000000 1.0
C      1  0.5485470000000  0.5005580000000  0.3797970000000 1.0
C      1  0.5532530000000  0.6022450000000  0.5146220000000 1.0
C      1  0.4731350000000  0.5692590000000  0.3900300000000 1.0
C      1  0.4249390000000  0.5262250000000  0.4703060000000 1.0
C      1  0.4550630000000  0.6113230000000  0.4614220000000 1.0
C      1  0.3916260000000  0.5376710000000  0.4350080000000 1.0
C      1  0.4242420000000  0.4964080000000  0.5510110000000 1.0
C      1  0.4962040000000  0.3931330000000  0.5826390000000 1.0
C      1  0.5702010000000  0.5191370000000  0.5284740000000 1.0
C      1  0.4365410000000  0.5042480000000  0.5260680000000 1.0
C      1  0.4750240000000  0.4128880000000  0.5084110000000 1.0
C      1  0.6052370000000  0.4700670000000  0.4469670000000 1.0
C      1  0.5230420000000  0.5319040000000  0.6301810000000 1.0
C      1  0.5285380000000  0.6079300000000  0.4442410000000 1.0
C      1  0.5782000000000  0.4673730000000  0.4350320000000 1.0
C      1  0.4807750000000  0.4410800000000  0.4464360000000 1.0
C      1  0.3798720000000  0.5712350000000  0.4975630000000 1.0
C      1  0.4922520000000  0.3606720000000  0.5102760000000 1.0
C      1  0.3928480000000  0.5652820000000  0.4733140000000 1.0
C      1  0.5295990000000  0.4831020000000  0.5067890000000 1.0
C      1  0.5379730000000  0.4000730000000  0.5551000000000 1.0
C      1  0.4662660000000  0.5881270000000  0.4110930000000 1.0
C      1  0.5906850000000  0.4567740000000  0.5724150000000 1.0
C      1  0.5385390000000  0.4411870000000  0.5877750000000 1.0
C      1  0.4991210000000  0.4786660000000  0.5716550000000 1.0
C      1  0.5479790000000  0.6008050000000  0.5435460000000 1.0
C      1  0.4203420000000  0.5127620000000  0.5039280000000 1.0
C      1  0.5408280000000  0.5364800000000  0.4807750000000 1.0
C      1  0.5573220000000  0.4819090000000  0.4492980000000 1.0
C      1  0.4944780000000  0.5807350000000  0.5158970000000 1.0
C      1  0.4344670000000  0.5786340000000  0.5098320000000 1.0
C      1  0.5155150000000  0.5385240000000  0.4404760000000 1.0
C      1  0.4802090000000  0.6177990000000  0.4482640000000 1.0
C      1  0.4312000000000  0.5442770000000  0.5684880000000 1.0
C      1  0.4335400000000  0.5543110000000  0.4114930000000 1.0
C      1  0.5756120000000  0.5875860000000  0.5037730000000 1.0
C      1  0.4894400000000  0.4659020000000  0.5494520000000 1.0
C      1  0.5160990000000  0.4170520000000  0.6216220000000 1.0
C      1  0.5265030000000  0.4850540000000  0.5701900000000 1.0
C      1  0.4622050000000  0.4560350000000  0.5124110000000 1.0
C      1  0.4857540000000  0.6039010000000  0.4235300000000 1.0
C      1  0.4235930000000  0.3921020000000  0.5392970000000 1.0
C      1  0.5472590000000  0.4463870000000  0.4839150000000 1.0
C      1  0.5171390000000  0.6293460000000  0.4845770000000 1.0
C      1  0.5142830000000  0.5184260000000  0.5368310000000 1.0
C      1  0.4645860000000  0.3644780000000  0.5465340000000 1.0
C      1  0.4704430000000  0.5540190000000  0.5454020000000 1.0
C      1  0.4307070000000  0.3902780000000  0.5118630000000 1.0
C      1  0.4630830000000  0.4301300000000  0.5780530000000 1.0
C      1  0.4897080000000  0.4663190000000  0.4537220000000 1.0
C      1  0.4690360000000  0.5361840000000  0.4509100000000 1.0
C      1  0.5321580000000  0.5568520000000  0.5646130000000 1.0
C      1  0.5279950000000  0.5494340000000  0.6512200000000 1.0
C      1  0.4468540000000  0.3861540000000  0.5826800000000 1.0
C      1  0.5604490000000  0.5468580000000  0.4334290000000 1.0
C      1  0.5784440000000  0.4300140000000  0.5668790000000 1.0
C      1  0.5322200000000  0.6043250000000  0.4926680000000 1.0
C      1  0.6058580000000  0.4794200000000  0.5025970000000 1.0
C      1  0.6067990000000  0.4469590000000  0.4657010000000 1.0
C      1  0.4542370000000  0.3954850000000  0.4976240000000 1.0
END
