TITL C-247195-3186-544 0.326451219299114 125000 -525.05168348419 0 0 87 (C1) n - 1
REM
REM in /home/nfs/bkarasulu/CARBON/AIRSS/Generating-Clusters/LCBOP/Only-C1/SD-CG/FIRE-HFTN
REM
REM
REM
REM
REM
REM ./C.cell (11c1c37f851c82e70ff6c80c92926a4b)
REM AIRSS Version 0.9.1 bugfix July 2018 build 013d7b7c2542+ Fri, 06 Jul 2018 19:26:36 +0100
REM compiler GCC version 9.2.1 20190827 (Red Hat 9.2.1-1)
REM options -cpp -mtune=generic -march=x86-64 -g -O0 -fpre-include=/usr/include/finclude/math-vector-fortran.h
REM seed 996513114 -808387867 427724506 -52245397 1973363203 -228100075 -1623398758 -1526529391 -1675614514 147359794 -2122193249 1531292343 -1503310692 -282535871 1862163341 1803600952 -1300923725 -1383703654 -1537515795 279433579 1115524546 -426980304 1981410210 -1586551894 -1520226299 662202135 -759175977 568336006 -1712734043 594359654 -1095447471 -386864606 1925780067
REM
CELL 1.54180   50.00000   50.00000   50.00000   90.00000   90.00000   90.00000
LATT -1
SFAC C  
C      1  0.5395090000000  0.5784080000000  0.4851490000000 1.0
C      1  0.5469550000000  0.5518580000000  0.4806490000000 1.0
C      1  0.4866950000000  0.4041060000000  0.4419660000000 1.0
C      1  0.4413400000000  0.4096380000000  0.4924980000000 1.0
C      1  0.5837220000000  0.4942490000000  0.4555150000000 1.0
C      1  0.5378090000000  0.4186390000000  0.5376600000000 1.0
C      1  0.5502650000000  0.4412850000000  0.5278560000000 1.0
C      1  0.4752890000000  0.6115510000000  0.5106670000000 1.0
C      1  0.4695670000000  0.4133170000000  0.5353670000000 1.0
C      1  0.4355200000000  0.5030010000000  0.5596500000000 1.0
C      1  0.4122710000000  0.5870350000000  0.5615660000000 1.0
C      1  0.4532440000000  0.4812490000000  0.5631340000000 1.0
C      1  0.5299880000000  0.4943620000000  0.5278470000000 1.0
C      1  0.4622210000000  0.5526200000000  0.5185180000000 1.0
C      1  0.4546360000000  0.4023440000000  0.5143910000000 1.0
C      1  0.5041270000000  0.4882710000000  0.5756000000000 1.0
C      1  0.5609360000000  0.5002710000000  0.4394100000000 1.0
C      1  0.4825100000000  0.4813080000000  0.5584030000000 1.0
C      1  0.5165060000000  0.4043860000000  0.5446070000000 1.0
C      1  0.5447560000000  0.4811720000000  0.4275820000000 1.0
C      1  0.5079640000000  0.4190330000000  0.4482360000000 1.0
C      1  0.4176340000000  0.4772870000000  0.4761610000000 1.0
C      1  0.4996470000000  0.5987250000000  0.5045650000000 1.0
C      1  0.4191760000000  0.5126620000000  0.5081770000000 1.0
C      1  0.5547580000000  0.5347640000000  0.5264620000000 1.0
C      1  0.4707560000000  0.6360580000000  0.4972320000000 1.0
C      1  0.5097540000000  0.6454570000000  0.4695420000000 1.0
C      1  0.4658880000000  0.4405210000000  0.5411040000000 1.0
C      1  0.4642510000000  0.4856980000000  0.4443540000000 1.0
C      1  0.4848110000000  0.4620680000000  0.5353710000000 1.0
C      1  0.5866440000000  0.5203750000000  0.4963440000000 1.0
C      1  0.4481400000000  0.5737300000000  0.5300610000000 1.0
C      1  0.5890490000000  0.5050300000000  0.5217630000000 1.0
C      1  0.4637930000000  0.4704400000000  0.4687530000000 1.0
C      1  0.5221360000000  0.4747990000000  0.5082730000000 1.0
C      1  0.5759570000000  0.5220120000000  0.5425600000000 1.0
C      1  0.5788450000000  0.5450900000000  0.4347130000000 1.0
C      1  0.4854260000000  0.6506530000000  0.4799710000000 1.0
C      1  0.4457190000000  0.4537810000000  0.5569870000000 1.0
C      1  0.4787950000000  0.4828980000000  0.4902990000000 1.0
C      1  0.4690000000000  0.4395570000000  0.3871360000000 1.0
C      1  0.4349920000000  0.5197810000000  0.4606750000000 1.0
C      1  0.5641250000000  0.4637950000000  0.5417310000000 1.0
C      1  0.5690360000000  0.4673000000000  0.4961800000000 1.0
C      1  0.4868700000000  0.4607120000000  0.3825400000000 1.0
C      1  0.5715160000000  0.5198240000000  0.5704700000000 1.0
C      1  0.5082210000000  0.4641790000000  0.4004440000000 1.0
C      1  0.4206330000000  0.5052430000000  0.4809770000000 1.0
C      1  0.5292340000000  0.5228270000000  0.5301020000000 1.0
C      1  0.5360360000000  0.5385390000000  0.4575910000000 1.0
C      1  0.5960830000000  0.5156630000000  0.4700810000000 1.0
C      1  0.4944230000000  0.4695250000000  0.5096200000000 1.0
C      1  0.4246640000000  0.5085620000000  0.5340920000000 1.0
C      1  0.4729750000000  0.5299610000000  0.5096220000000 1.0
C      1  0.5326160000000  0.4905890000000  0.5750530000000 1.0
C      1  0.4221890000000  0.6123520000000  0.5629250000000 1.0
C      1  0.5554170000000  0.5285880000000  0.4391170000000 1.0
C      1  0.4746670000000  0.3579560000000  0.5822390000000 1.0
C      1  0.5217530000000  0.4404100000000  0.4402900000000 1.0
C      1  0.4809940000000  0.5120230000000  0.4897550000000 1.0
C      1  0.5817050000000  0.4772920000000  0.5209720000000 1.0
C      1  0.4822120000000  0.3774950000000  0.5660160000000 1.0
C      1  0.5514000000000  0.5091760000000  0.5857650000000 1.0
C      1  0.4677360000000  0.4039740000000  0.4230740000000 1.0
C      1  0.4837350000000  0.5235330000000  0.4632670000000 1.0
C      1  0.4988910000000  0.5515700000000  0.5630230000000 1.0
C      1  0.4613200000000  0.4185220000000  0.4015900000000 1.0
C      1  0.4353180000000  0.4309960000000  0.4778460000000 1.0
C      1  0.5083480000000  0.5340140000000  0.4552230000000 1.0
C      1  0.4606720000000  0.5139010000000  0.4486890000000 1.0
C      1  0.4671870000000  0.3387350000000  0.5981840000000 1.0
C      1  0.4437830000000  0.6188480000000  0.5477050000000 1.0
C      1  0.4568290000000  0.6013600000000  0.5292610000000 1.0
C      1  0.5101330000000  0.5373110000000  0.5442790000000 1.0
C      1  0.5225470000000  0.6001850000000  0.4881120000000 1.0
C      1  0.4286210000000  0.5184520000000  0.5811620000000 1.0
C      1  0.5805320000000  0.5644050000000  0.4156330000000 1.0
C      1  0.4384760000000  0.4582780000000  0.4739480000000 1.0
C      1  0.4895210000000  0.3981570000000  0.5487510000000 1.0
C      1  0.5252010000000  0.4619370000000  0.4226460000000 1.0
C      1  0.5998820000000  0.5383890000000  0.4529490000000 1.0
C      1  0.4835490000000  0.4775260000000  0.3612650000000 1.0
C      1  0.5430380000000  0.4555420000000  0.5025820000000 1.0
C      1  0.5636220000000  0.5385880000000  0.4993270000000 1.0
C      1  0.5430270000000  0.4813210000000  0.5503990000000 1.0
C      1  0.5256700000000  0.6240310000000  0.4732870000000 1.0
C      1  0.4245900000000  0.5689240000000  0.5454400000000 1.0
END
