TITL C-247199-3331-482 24.5060730753493 125000 -886.434427347818 0 0 144 (C1) n - 1
REM
REM in /home/nfs/bkarasulu/CARBON/AIRSS/Generating-Clusters/LCBOP/Only-C1/SD-CG/FIRE-HFTN
REM
REM
REM
REM
REM
REM ./C.cell (11c1c37f851c82e70ff6c80c92926a4b)
REM AIRSS Version 0.9.1 bugfix July 2018 build 013d7b7c2542+ Fri, 06 Jul 2018 19:26:36 +0100
REM compiler GCC version 9.2.1 20190827 (Red Hat 9.2.1-1)
REM options -cpp -mtune=generic -march=x86-64 -g -O0 -fpre-include=/usr/include/finclude/math-vector-fortran.h
REM seed 2036369128 -522102526 1776345712 -1465952444 1345232743 -893314770 2053566720 -1043421764 -1779622934 -1210817820 1979696105 -27963287 1659780010 2062697824 656388046 -1935341208 1943826275 -862028732 -1606151877 -737794729 1656967892 -514659926 843325373 -1983515761 1837178581 1379460928 2017303206 1854906829 -1808525567 2025519923 -2028715461 -2143483956 1645925999
REM
CELL 1.54180   50.00000   50.00000   50.00000   90.00000   90.00000   90.00000
LATT -1
SFAC C  
C      1  0.5912460000000  0.4935710000000  0.4705110000000 1.0
C      1  0.6073880000000  0.4664770000000  0.5031330000000 1.0
C      1  0.5204810000000  0.6146030000000  0.5551260000000 1.0
C      1  0.5490730000000  0.5250130000000  0.5218880000000 1.0
C      1  0.5324590000000  0.4801710000000  0.4153600000000 1.0
C      1  0.5047150000000  0.5509930000000  0.5190130000000 1.0
C      1  0.4749740000000  0.4561100000000  0.5668200000000 1.0
C      1  0.4222620000000  0.5502720000000  0.4543040000000 1.0
C      1  0.4242880000000  0.5337800000000  0.5854710000000 1.0
C      1  0.4836180000000  0.3941040000000  0.4700320000000 1.0
C      1  0.5254650000000  0.5516620000000  0.5931060000000 1.0
C      1  0.5391680000000  0.4133230000000  0.5021210000000 1.0
C      1  0.4590890000000  0.6087280000000  0.4167470000000 1.0
C      1  0.5275450000000  0.4535410000000  0.5807710000000 1.0
C      1  0.5128770000000  0.4989550000000  0.4041220000000 1.0
C      1  0.4805600000000  0.5913870000000  0.4118540000000 1.0
C      1  0.4680260000000  0.4897280000000  0.5215350000000 1.0
C      1  0.5887590000000  0.5314260000000  0.5528400000000 1.0
C      1  0.4370570000000  0.4249550000000  0.5257020000000 1.0
C      1  0.4670760000000  0.4373600000000  0.6119330000000 1.0
C      1  0.6124240000000  0.4930550000000  0.4905930000000 1.0
C      1  0.4778840000000  0.5628640000000  0.4114460000000 1.0
C      1  0.5283570000000  0.4388110000000  0.4949030000000 1.0
C      1  0.4291290000000  0.5112310000000  0.5693980000000 1.0
C      1  0.5125690000000  0.6221970000000  0.5308090000000 1.0
C      1  0.4670800000000  0.6364510000000  0.4782220000000 1.0
C      1  0.4719390000000  0.5580470000000  0.5552670000000 1.0
C      1  0.4518190000000  0.4418400000000  0.4521330000000 1.0
C      1  0.4779810000000  0.5582460000000  0.5279380000000 1.0
C      1  0.5063330000000  0.4371380000000  0.4123080000000 1.0
C      1  0.4544980000000  0.4029870000000  0.5167520000000 1.0
C      1  0.5617560000000  0.4768230000000  0.5589840000000 1.0
C      1  0.5177440000000  0.5155100000000  0.4548980000000 1.0
C      1  0.4805470000000  0.4809730000000  0.4059180000000 1.0
C      1  0.5238550000000  0.5240660000000  0.5980490000000 1.0
C      1  0.5562000000000  0.4716040000000  0.4303120000000 1.0
C      1  0.5184540000000  0.5228670000000  0.5267000000000 1.0
C      1  0.5398260000000  0.4612490000000  0.4818490000000 1.0
C      1  0.5184790000000  0.5684940000000  0.4998230000000 1.0
C      1  0.4583950000000  0.4962390000000  0.4150990000000 1.0
C      1  0.5418580000000  0.4253990000000  0.4467160000000 1.0
C      1  0.3340420000000  0.4973790000000  0.4614110000000 1.0
C      1  0.5191470000000  0.5060020000000  0.6487680000000 1.0
C      1  0.4744840000000  0.5251110000000  0.4723230000000 1.0
C      1  0.4581900000000  0.4429500000000  0.5856830000000 1.0
C      1  0.5414880000000  0.4806280000000  0.5814390000000 1.0
C      1  0.5370990000000  0.4856990000000  0.4971050000000 1.0
C      1  0.5034420000000  0.6153120000000  0.5052210000000 1.0
C      1  0.4643180000000  0.5646750000000  0.5814910000000 1.0
C      1  0.4033830000000  0.4727450000000  0.5545990000000 1.0
C      1  0.4830100000000  0.5480750000000  0.4569480000000 1.0
C      1  0.5421740000000  0.5423600000000  0.4120370000000 1.0
C      1  0.4742080000000  0.3937690000000  0.5381350000000 1.0
C      1  0.5032050000000  0.4638020000000  0.4499220000000 1.0
C      1  0.5472210000000  0.4089820000000  0.5756410000000 1.0
C      1  0.6310570000000  0.5131850000000  0.4842660000000 1.0
C      1  0.5263830000000  0.5911380000000  0.4356300000000 1.0
C      1  0.5181370000000  0.5961370000000  0.4905450000000 1.0
C      1  0.4861170000000  0.4178480000000  0.6133230000000 1.0
C      1  0.4664440000000  0.4280760000000  0.4316420000000 1.0
C      1  0.4182570000000  0.5409930000000  0.5241830000000 1.0
C      1  0.4400290000000  0.6696570000000  0.4554090000000 1.0
C      1  0.5676290000000  0.5084680000000  0.4740480000000 1.0
C      1  0.5182340000000  0.3937090000000  0.5071640000000 1.0
C      1  0.5964480000000  0.4480170000000  0.4811970000000 1.0
C      1  0.4396040000000  0.5552530000000  0.5907920000000 1.0
C      1  0.5016340000000  0.4414830000000  0.5021540000000 1.0
C      1  0.5659540000000  0.4052450000000  0.5567630000000 1.0
C      1  0.4562500000000  0.5041970000000  0.5663720000000 1.0
C      1  0.4835270000000  0.4748770000000  0.4685690000000 1.0
C      1  0.4810470000000  0.4491740000000  0.4863090000000 1.0
C      1  0.5988090000000  0.5071580000000  0.5587010000000 1.0
C      1  0.3797280000000  0.5009960000000  0.4871440000000 1.0
C      1  0.4595170000000  0.4317350000000  0.4781020000000 1.0
C      1  0.5757630000000  0.4075190000000  0.5318130000000 1.0
C      1  0.4285320000000  0.4922410000000  0.4884760000000 1.0
C      1  0.5056930000000  0.5099100000000  0.5529910000000 1.0
C      1  0.4440890000000  0.4783110000000  0.5095940000000 1.0
C      1  0.5936520000000  0.5334080000000  0.4231800000000 1.0
C      1  0.4484460000000  0.4194030000000  0.5716910000000 1.0
C      1  0.5060390000000  0.6012360000000  0.4189320000000 1.0
C      1  0.4375620000000  0.4919730000000  0.4602020000000 1.0
C      1  0.4043950000000  0.5026080000000  0.4997690000000 1.0
C      1  0.5056390000000  0.3824900000000  0.4840720000000 1.0
C      1  0.4996350000000  0.4021290000000  0.5275160000000 1.0
C      1  0.5689580000000  0.5329100000000  0.4124560000000 1.0
C      1  0.5134470000000  0.4979090000000  0.5074260000000 1.0
C      1  0.4716350000000  0.4019800000000  0.5661760000000 1.0
C      1  0.4504980000000  0.6276550000000  0.4334600000000 1.0
C      1  0.4409190000000  0.5377060000000  0.4373750000000 1.0
C      1  0.5570040000000  0.5068810000000  0.5005180000000 1.0
C      1  0.4919270000000  0.5040470000000  0.4635180000000 1.0
C      1  0.5233500000000  0.5044390000000  0.5770280000000 1.0
C      1  0.6292180000000  0.5289630000000  0.4621440000000 1.0
C      1  0.5809970000000  0.4229690000000  0.4817050000000 1.0
C      1  0.5674700000000  0.5383700000000  0.5380500000000 1.0
C      1  0.4107700000000  0.4998580000000  0.5504270000000 1.0
C      1  0.4374080000000  0.4509640000000  0.5139990000000 1.0
C      1  0.4955170000000  0.5452680000000  0.3977010000000 1.0
C      1  0.4889630000000  0.4882670000000  0.5037950000000 1.0
C      1  0.6010540000000  0.4670090000000  0.5307660000000 1.0
C      1  0.4282010000000  0.6928800000000  0.4552740000000 1.0
C      1  0.4942760000000  0.4483990000000  0.5477710000000 1.0
C      1  0.4570990000000  0.5697400000000  0.5117690000000 1.0
C      1  0.3566920000000  0.4992890000000  0.4741770000000 1.0
C      1  0.4622830000000  0.4049620000000  0.4879160000000 1.0
C      1  0.6143720000000  0.5344620000000  0.4402990000000 1.0
C      1  0.4559730000000  0.4705200000000  0.4557590000000 1.0
C      1  0.4091190000000  0.4465810000000  0.5581530000000 1.0
C      1  0.5841820000000  0.4675740000000  0.4317140000000 1.0
C      1  0.4778510000000  0.4440940000000  0.4090810000000 1.0
C      1  0.4659280000000  0.5518090000000  0.4345940000000 1.0
C      1  0.4525020000000  0.6446900000000  0.4556870000000 1.0
C      1  0.5938080000000  0.4672670000000  0.4581160000000 1.0
C      1  0.5280530000000  0.5549110000000  0.4770850000000 1.0
C      1  0.4217580000000  0.5586630000000  0.4796990000000 1.0
C      1  0.4079280000000  0.5146620000000  0.5257170000000 1.0
C      1  0.4953600000000  0.4305620000000  0.5266220000000 1.0
C      1  0.5664820000000  0.4137220000000  0.4575550000000 1.0
C      1  0.5150410000000  0.4170560000000  0.4330890000000 1.0
C      1  0.5448030000000  0.4629520000000  0.5399170000000 1.0
C      1  0.5217830000000  0.5152190000000  0.6245350000000 1.0
C      1  0.5118320000000  0.5438640000000  0.4573910000000 1.0
C      1  0.5223240000000  0.5979460000000  0.5758720000000 1.0
C      1  0.4768040000000  0.5009000000000  0.5474970000000 1.0
C      1  0.5886750000000  0.4817240000000  0.5518310000000 1.0
C      1  0.4322390000000  0.5570770000000  0.5058320000000 1.0
C      1  0.5457880000000  0.5106960000000  0.4556260000000 1.0
C      1  0.5248470000000  0.4238540000000  0.5851510000000 1.0
C      1  0.5392230000000  0.5682090000000  0.4246060000000 1.0
C      1  0.4598020000000  0.5966670000000  0.5044710000000 1.0
C      1  0.5264820000000  0.5996650000000  0.4630680000000 1.0
C      1  0.5178020000000  0.5278680000000  0.4027340000000 1.0
C      1  0.5207290000000  0.4546890000000  0.5524260000000 1.0
C      1  0.4762650000000  0.6180930000000  0.4971270000000 1.0
C      1  0.4879400000000  0.4084460000000  0.4441060000000 1.0
C      1  0.4847140000000  0.5762910000000  0.5968220000000 1.0
C      1  0.4279890000000  0.4257520000000  0.5528430000000 1.0
C      1  0.5675550000000  0.4131100000000  0.5055170000000 1.0
C      1  0.4984280000000  0.4106330000000  0.5884740000000 1.0
C      1  0.5462010000000  0.4548780000000  0.4539600000000 1.0
C      1  0.4418740000000  0.5089130000000  0.4359170000000 1.0
C      1  0.5145310000000  0.4607860000000  0.4250550000000 1.0
C      1  0.5124050000000  0.5764170000000  0.5908230000000 1.0
END
