TITL C-247196-3112-311 2026.49981798295 125000 -1212.17320237472 0 0 199 (C1) n - 1
REM
REM in /home/nfs/bkarasulu/CARBON/AIRSS/Generating-Clusters/LCBOP/Only-C1/SD-CG/FIRE-HFTN
REM
REM
REM
REM
REM
REM ./C.cell (11c1c37f851c82e70ff6c80c92926a4b)
REM AIRSS Version 0.9.1 bugfix July 2018 build 013d7b7c2542+ Fri, 06 Jul 2018 19:26:36 +0100
REM compiler GCC version 9.2.1 20190827 (Red Hat 9.2.1-1)
REM options -cpp -mtune=generic -march=x86-64 -g -O0 -fpre-include=/usr/include/finclude/math-vector-fortran.h
REM seed -360271041 929564884 888096020 -391419091 -2121914678 -438595737 -1889169891 -100326907 -910377882 -295443967 -980957943 781799865 -1696935336 -100210330 -1732337383 495557205 -340810611 1190042476 780575747 1989602137 2015264880 3856729 1196428016 -2003830247 1635914304 -2085739648 2132940881 -983380192 1137803398 -1612882191 -1300415097 2061056702 1750254524
REM
CELL 1.54180   50.00000   50.00000   50.00000   90.00000   90.00000   90.00000
LATT -1
SFAC C  
C      1  0.5635090000000  0.4192270000000  0.5568970000000 1.0
C      1  0.5550070000000  0.6423540000000  0.4673980000000 1.0
C      1  0.4630320000000  0.5516700000000  0.4549080000000 1.0
C      1  0.4360910000000  0.5554350000000  0.4628120000000 1.0
C      1  0.4718590000000  0.4634760000000  0.5534880000000 1.0
C      1  0.5207380000000  0.5026450000000  0.5342830000000 1.0
C      1  0.4601130000000  0.5358100000000  0.5883440000000 1.0
C      1  0.4764490000000  0.5543370000000  0.5679390000000 1.0
C      1  0.6022590000000  0.4846430000000  0.4581770000000 1.0
C      1  0.5682400000000  0.4937270000000  0.6065870000000 1.0
C      1  0.4600830000000  0.5687270000000  0.5450020000000 1.0
C      1  0.5135570000000  0.5572640000000  0.3927960000000 1.0
C      1  0.6029860000000  0.5005600000000  0.5706620000000 1.0
C      1  0.5026110000000  0.4710790000000  0.6082500000000 1.0
C      1  0.4591800000000  0.5147230000000  0.5000790000000 1.0
C      1  0.4769820000000  0.4891870000000  0.5696170000000 1.0
C      1  0.5828830000000  0.4296900000000  0.4430530000000 1.0
C      1  0.5632990000000  0.6061450000000  0.4982670000000 1.0
C      1  0.5436940000000  0.4634710000000  0.5524450000000 1.0
C      1  0.5305200000000  0.5497530000000  0.5299480000000 1.0
C      1  0.4578460000000  0.4570540000000  0.5077070000000 1.0
C      1  0.5196690000000  0.4258930000000  0.4890080000000 1.0
C      1  0.4097190000000  0.5490940000000  0.5944820000000 1.0
C      1  0.4117390000000  0.4101280000000  0.4706740000000 1.0
C      1  0.5895690000000  0.4122920000000  0.6035130000000 1.0
C      1  0.3947840000000  0.5976310000000  0.5656670000000 1.0
C      1  0.4193800000000  0.4401880000000  0.4293360000000 1.0
C      1  0.6071960000000  0.5431050000000  0.5051740000000 1.0
C      1  0.5827590000000  0.4903040000000  0.5028320000000 1.0
C      1  0.4312850000000  0.4224350000000  0.5414320000000 1.0
C      1  0.6015060000000  0.4422900000000  0.4881990000000 1.0
C      1  0.3880450000000  0.4212920000000  0.4811730000000 1.0
C      1  0.4184200000000  0.4763220000000  0.5778420000000 1.0
C      1  0.4609960000000  0.6253240000000  0.5164650000000 1.0
C      1  0.4951190000000  0.6106860000000  0.5539250000000 1.0
C      1  0.5476900000000  0.3900380000000  0.4652460000000 1.0
C      1  0.4938380000000  0.4957150000000  0.5260080000000 1.0
C      1  0.5422380000000  0.6052690000000  0.5190710000000 1.0
C      1  0.4728400000000  0.5395480000000  0.5036970000000 1.0
C      1  0.5721230000000  0.4006980000000  0.5130820000000 1.0
C      1  0.5163850000000  0.5468600000000  0.5972630000000 1.0
C      1  0.4268210000000  0.5927320000000  0.4933460000000 1.0
C      1  0.5744540000000  0.4920360000000  0.5318970000000 1.0
C      1  0.4758150000000  0.4106940000000  0.4998600000000 1.0
C      1  0.4438710000000  0.4983480000000  0.5405980000000 1.0
C      1  0.5156150000000  0.5599840000000  0.5086580000000 1.0
C      1  0.4151700000000  0.4141320000000  0.4418120000000 1.0
C      1  0.4788420000000  0.6230850000000  0.5364680000000 1.0
C      1  0.4607360000000  0.5004710000000  0.4477240000000 1.0
C      1  0.3557840000000  0.5417600000000  0.5458590000000 1.0
C      1  0.5692670000000  0.5754900000000  0.5819970000000 1.0
C      1  0.4892510000000  0.5324380000000  0.5520100000000 1.0
C      1  0.4595250000000  0.4081930000000  0.4771460000000 1.0
C      1  0.5709740000000  0.5583800000000  0.4699510000000 1.0
C      1  0.6245590000000  0.4914740000000  0.5521360000000 1.0
C      1  0.5241590000000  0.4460340000000  0.5596760000000 1.0
C      1  0.4679310000000  0.4212640000000  0.4525150000000 1.0
C      1  0.3902860000000  0.6056290000000  0.4392480000000 1.0
C      1  0.4794650000000  0.5746330000000  0.4592230000000 1.0
C      1  0.4283750000000  0.5265310000000  0.4011970000000 1.0
C      1  0.4889710000000  0.4611510000000  0.4692930000000 1.0
C      1  0.4104000000000  0.4868780000000  0.4588960000000 1.0
C      1  0.3881880000000  0.5509860000000  0.5770400000000 1.0
C      1  0.5870010000000  0.5840950000000  0.4369080000000 1.0
C      1  0.5433550000000  0.5994560000000  0.4220590000000 1.0
C      1  0.4972150000000  0.3964590000000  0.5118630000000 1.0
C      1  0.5945160000000  0.5300240000000  0.4415620000000 1.0
C      1  0.4376190000000  0.6167630000000  0.5760160000000 1.0
C      1  0.3851580000000  0.4457590000000  0.4920950000000 1.0
C      1  0.5163150000000  0.5296100000000  0.5438270000000 1.0
C      1  0.5178170000000  0.5342770000000  0.4323150000000 1.0
C      1  0.5018640000000  0.4871330000000  0.3962730000000 1.0
C      1  0.3954570000000  0.5094450000000  0.5512480000000 1.0
C      1  0.5913380000000  0.5880190000000  0.5394070000000 1.0
C      1  0.5730390000000  0.4392900000000  0.4187130000000 1.0
C      1  0.4755560000000  0.4710090000000  0.4911800000000 1.0
C      1  0.5701520000000  0.5088850000000  0.4842800000000 1.0
C      1  0.3784440000000  0.5297870000000  0.5592460000000 1.0
C      1  0.4352020000000  0.4516220000000  0.5831290000000 1.0
C      1  0.4173300000000  0.4828740000000  0.4884700000000 1.0
C      1  0.5188310000000  0.5303040000000  0.4043560000000 1.0
C      1  0.4580540000000  0.4734100000000  0.4397680000000 1.0
C      1  0.4426990000000  0.6155210000000  0.4992680000000 1.0
C      1  0.4189520000000  0.4949060000000  0.5554700000000 1.0
C      1  0.5220900000000  0.4297240000000  0.5823630000000 1.0
C      1  0.5704170000000  0.5360960000000  0.5562370000000 1.0
C      1  0.6318370000000  0.5171030000000  0.5387860000000 1.0
C      1  0.4613630000000  0.3823850000000  0.5360330000000 1.0
C      1  0.5154140000000  0.5218760000000  0.4776960000000 1.0
C      1  0.6194550000000  0.4364890000000  0.5317140000000 1.0
C      1  0.4111820000000  0.5314040000000  0.4233880000000 1.0
C      1  0.5026860000000  0.5227680000000  0.4522860000000 1.0
C      1  0.4124340000000  0.3921030000000  0.4254840000000 1.0
C      1  0.4086410000000  0.4636280000000  0.4422330000000 1.0
C      1  0.6121060000000  0.5676940000000  0.5435550000000 1.0
C      1  0.4736890000000  0.3790900000000  0.4289600000000 1.0
C      1  0.5261840000000  0.4142900000000  0.4201980000000 1.0
C      1  0.5337350000000  0.3976490000000  0.4430160000000 1.0
C      1  0.5660090000000  0.4457650000000  0.5426740000000 1.0
C      1  0.4919820000000  0.5506220000000  0.3740090000000 1.0
C      1  0.4166160000000  0.4439710000000  0.5273340000000 1.0
C      1  0.4544200000000  0.4609370000000  0.6045070000000 1.0
C      1  0.5019780000000  0.5242450000000  0.6104570000000 1.0
C      1  0.4738480000000  0.5276180000000  0.3694330000000 1.0
C      1  0.5150620000000  0.5911460000000  0.5619030000000 1.0
C      1  0.5161790000000  0.4180040000000  0.5152470000000 1.0
C      1  0.4649590000000  0.5058970000000  0.5917360000000 1.0
C      1  0.5103720000000  0.4355300000000  0.5374300000000 1.0
C      1  0.5434930000000  0.5068370000000  0.6045040000000 1.0
C      1  0.6011140000000  0.4240270000000  0.5117830000000 1.0
C      1  0.4758970000000  0.4806930000000  0.3987310000000 1.0
C      1  0.4742550000000  0.5250990000000  0.4504090000000 1.0
C      1  0.5880540000000  0.5571310000000  0.4463300000000 1.0
C      1  0.4047680000000  0.5830460000000  0.4443590000000 1.0
C      1  0.4981690000000  0.4176360000000  0.4118140000000 1.0
C      1  0.4204640000000  0.4909260000000  0.6035020000000 1.0
C      1  0.4541260000000  0.4696120000000  0.4123700000000 1.0
C      1  0.5031230000000  0.4083070000000  0.5775080000000 1.0
C      1  0.5441170000000  0.5623950000000  0.4624740000000 1.0
C      1  0.5768240000000  0.4143470000000  0.5808790000000 1.0
C      1  0.5442770000000  0.4882870000000  0.5383890000000 1.0
C      1  0.4309890000000  0.5066890000000  0.4993450000000 1.0
C      1  0.4489390000000  0.4894940000000  0.6093010000000 1.0
C      1  0.5017340000000  0.5378920000000  0.4959770000000 1.0
C      1  0.5894570000000  0.5114280000000  0.4203540000000 1.0
C      1  0.5806180000000  0.4359500000000  0.4697530000000 1.0
C      1  0.4795660000000  0.4058660000000  0.4312580000000 1.0
C      1  0.5855740000000  0.5532990000000  0.4930990000000 1.0
C      1  0.5434400000000  0.5354300000000  0.5960980000000 1.0
C      1  0.4690230000000  0.4328280000000  0.5160960000000 1.0
C      1  0.5837160000000  0.4639280000000  0.4091980000000 1.0
C      1  0.4448040000000  0.4282100000000  0.5683920000000 1.0
C      1  0.5875340000000  0.5998890000000  0.5131960000000 1.0
C      1  0.4226100000000  0.5992630000000  0.5613670000000 1.0
C      1  0.5148370000000  0.3915730000000  0.5544200000000 1.0
C      1  0.5289830000000  0.5593860000000  0.4388770000000 1.0
C      1  0.5928780000000  0.4930380000000  0.5956740000000 1.0
C      1  0.4026590000000  0.5591270000000  0.4278940000000 1.0
C      1  0.6163980000000  0.4637480000000  0.5427630000000 1.0
C      1  0.5909570000000  0.5120780000000  0.4641900000000 1.0
C      1  0.4807250000000  0.5020000000000  0.3561950000000 1.0
C      1  0.4810930000000  0.4509720000000  0.6025900000000 1.0
C      1  0.4334070000000  0.4028470000000  0.4886290000000 1.0
C      1  0.5639660000000  0.5477640000000  0.5814180000000 1.0
C      1  0.4234960000000  0.5811600000000  0.4666730000000 1.0
C      1  0.5615210000000  0.3906450000000  0.4888210000000 1.0
C      1  0.5035870000000  0.5676080000000  0.5789420000000 1.0
C      1  0.5875730000000  0.4659100000000  0.5428540000000 1.0
C      1  0.5492040000000  0.3997600000000  0.5422200000000 1.0
C      1  0.4914650000000  0.3831070000000  0.5365320000000 1.0
C      1  0.3767300000000  0.5766270000000  0.5682640000000 1.0
C      1  0.4391230000000  0.4454230000000  0.4078710000000 1.0
C      1  0.4544250000000  0.4275530000000  0.3918710000000 1.0
C      1  0.5279560000000  0.4809520000000  0.4448790000000 1.0
C      1  0.4765080000000  0.4221040000000  0.5829880000000 1.0
C      1  0.5612660000000  0.6151460000000  0.4696410000000 1.0
C      1  0.5480100000000  0.4291570000000  0.4099160000000 1.0
C      1  0.4833320000000  0.4406280000000  0.5398540000000 1.0
C      1  0.5510980000000  0.4974240000000  0.3907070000000 1.0
C      1  0.4487910000000  0.5282220000000  0.3836390000000 1.0
C      1  0.5688840000000  0.4753330000000  0.3865850000000 1.0
C      1  0.5271960000000  0.5764250000000  0.4143510000000 1.0
C      1  0.4802170000000  0.4954580000000  0.5016450000000 1.0
C      1  0.5466200000000  0.4979410000000  0.4369600000000 1.0
C      1  0.5833370000000  0.5118750000000  0.5526960000000 1.0
C      1  0.4387160000000  0.3990340000000  0.5242930000000 1.0
C      1  0.4143490000000  0.5296150000000  0.4958860000000 1.0
C      1  0.4207900000000  0.5764250000000  0.5169930000000 1.0
C      1  0.4092220000000  0.5510530000000  0.5127700000000 1.0
C      1  0.4341450000000  0.5811710000000  0.5426430000000 1.0
C      1  0.3547030000000  0.5689320000000  0.5512300000000 1.0
C      1  0.5682550000000  0.5905550000000  0.5579210000000 1.0
C      1  0.5232480000000  0.5048960000000  0.3922240000000 1.0
C      1  0.5597920000000  0.4449160000000  0.5124090000000 1.0
C      1  0.4945440000000  0.5801000000000  0.5066320000000 1.0
C      1  0.5581290000000  0.4456450000000  0.4839190000000 1.0
C      1  0.4857960000000  0.4745580000000  0.3554560000000 1.0
C      1  0.5414090000000  0.5963720000000  0.5473120000000 1.0
C      1  0.4702140000000  0.4500230000000  0.4516980000000 1.0
C      1  0.5423280000000  0.5137620000000  0.4829210000000 1.0
C      1  0.4834990000000  0.4299880000000  0.3883780000000 1.0
C      1  0.4717280000000  0.5649100000000  0.5186490000000 1.0
C      1  0.5159870000000  0.4632500000000  0.4621160000000 1.0
C      1  0.5157230000000  0.4976390000000  0.6095810000000 1.0
C      1  0.5324540000000  0.4450010000000  0.4745090000000 1.0
C      1  0.4110130000000  0.5149430000000  0.4482390000000 1.0
C      1  0.4358690000000  0.5461000000000  0.5982360000000 1.0
C      1  0.5614810000000  0.5084000000000  0.4154650000000 1.0
C      1  0.5645720000000  0.6018200000000  0.4426170000000 1.0
C      1  0.4179480000000  0.5345280000000  0.4683220000000 1.0
C      1  0.6201310000000  0.5427340000000  0.5304650000000 1.0
C      1  0.4896590000000  0.5888600000000  0.4799750000000 1.0
C      1  0.4511690000000  0.4712790000000  0.5321920000000 1.0
C      1  0.5577720000000  0.5481720000000  0.5342250000000 1.0
C      1  0.6015680000000  0.4720020000000  0.4863160000000 1.0
C      1  0.4732660000000  0.5083410000000  0.5464680000000 1.0
C      1  0.4900570000000  0.4496340000000  0.3673670000000 1.0
C      1  0.5976420000000  0.4829020000000  0.4275880000000 1.0
C      1  0.4066280000000  0.4598420000000  0.5045010000000 1.0
END
