TITL C-247200-3482-526 -4.10140355080039e-07 125000 -268.444646039134 0 0 45 (C1) n - 1
REM
REM in /home/nfs/bkarasulu/CARBON/AIRSS/Generating-Clusters/LCBOP/Only-C1/SD-CG/FIRE-HFTN
REM
REM
REM
REM
REM
REM ./C.cell (11c1c37f851c82e70ff6c80c92926a4b)
REM AIRSS Version 0.9.1 bugfix July 2018 build 013d7b7c2542+ Fri, 06 Jul 2018 19:26:36 +0100
REM compiler GCC version 9.2.1 20190827 (Red Hat 9.2.1-1)
REM options -cpp -mtune=generic -march=x86-64 -g -O0 -fpre-include=/usr/include/finclude/math-vector-fortran.h
REM seed 300339948 -739280597 -1155831085 978038611 -1973139052 -1858966392 -1279956445 -1160877927 2019284488 -509485726 -1852183898 671417363 155156060 1105508182 -105666632 -995088380 451712680 -1648310976 -1393078772 2111200338 1614007396 96217258 -1576223284 -1417513820 132003299 -1184990318 1140282082 2001342488 -2138652727 2146788419 -537460142 -1509285025 -1689160304
REM
CELL 1.54180   50.00000   50.00000   50.00000   90.00000   90.00000   90.00000
LATT -1
SFAC C  
C      1  0.5811460000000  0.4934690000000  0.4937130000000 1.0
C      1  0.4845670000000  0.4981990000000  0.4602730000000 1.0
C      1  0.4553110000000  0.5000050000000  0.5305540000000 1.0
C      1  0.5412180000000  0.4459420000000  0.4856030000000 1.0
C      1  0.4549090000000  0.5219420000000  0.5125670000000 1.0
C      1  0.5576330000000  0.4683240000000  0.5268190000000 1.0
C      1  0.4509300000000  0.5260870000000  0.4837140000000 1.0
C      1  0.4661430000000  0.5192890000000  0.4589970000000 1.0
C      1  0.5712780000000  0.4931090000000  0.5201180000000 1.0
C      1  0.5345020000000  0.5553220000000  0.5160030000000 1.0
C      1  0.4905940000000  0.5741450000000  0.5500360000000 1.0
C      1  0.4609490000000  0.5404240000000  0.4402680000000 1.0
C      1  0.4359910000000  0.5924250000000  0.5121090000000 1.0
C      1  0.5181800000000  0.4297730000000  0.4890640000000 1.0
C      1  0.5458880000000  0.4672940000000  0.4670200000000 1.0
C      1  0.5570940000000  0.5424850000000  0.5242160000000 1.0
C      1  0.4815330000000  0.4833180000000  0.4843880000000 1.0
C      1  0.4577340000000  0.4665290000000  0.4841480000000 1.0
C      1  0.5522860000000  0.4915860000000  0.4279270000000 1.0
C      1  0.5714370000000  0.4834650000000  0.4693260000000 1.0
C      1  0.5001090000000  0.4901700000000  0.5051430000000 1.0
C      1  0.5314170000000  0.4790350000000  0.4437090000000 1.0
C      1  0.5054720000000  0.4894460000000  0.4439580000000 1.0
C      1  0.4604990000000  0.5495530000000  0.5213200000000 1.0
C      1  0.4864260000000  0.4961860000000  0.5676940000000 1.0
C      1  0.4172990000000  0.4735840000000  0.4489990000000 1.0
C      1  0.5572870000000  0.5153710000000  0.5326500000000 1.0
C      1  0.4704030000000  0.4825710000000  0.5479810000000 1.0
C      1  0.4411340000000  0.5547370000000  0.4796970000000 1.0
C      1  0.4866680000000  0.5561330000000  0.5298140000000 1.0
C      1  0.5296960000000  0.5054250000000  0.5423460000000 1.0
C      1  0.5073810000000  0.4693560000000  0.5243290000000 1.0
C      1  0.4462310000000  0.5606240000000  0.4520570000000 1.0
C      1  0.4758790000000  0.4370980000000  0.5189820000000 1.0
C      1  0.4835720000000  0.4587480000000  0.5363460000000 1.0
C      1  0.5113550000000  0.5075190000000  0.5661290000000 1.0
C      1  0.5088070000000  0.5430370000000  0.5174050000000 1.0
C      1  0.5752450000000  0.4945900000000  0.4429510000000 1.0
C      1  0.5106920000000  0.5144830000000  0.5179300000000 1.0
C      1  0.4451050000000  0.5679290000000  0.5049050000000 1.0
C      1  0.5582260000000  0.4469080000000  0.5085920000000 1.0
C      1  0.4551060000000  0.4446600000000  0.5016790000000 1.0
C      1  0.5320190000000  0.4750150000000  0.5373280000000 1.0
C      1  0.4974900000000  0.4237860000000  0.5055280000000 1.0
C      1  0.4371570000000  0.4709040000000  0.4656670000000 1.0
END
