TITL C-247201-3759-349 -3.99312120344419e-07 125000 -442.338807145157 0 0 73 (C1) n - 1
REM
REM in /home/nfs/bkarasulu/CARBON/AIRSS/Generating-Clusters/LCBOP/Only-C1/SD-CG/FIRE-HFTN
REM
REM
REM
REM
REM
REM ./C.cell (11c1c37f851c82e70ff6c80c92926a4b)
REM AIRSS Version 0.9.1 bugfix July 2018 build 013d7b7c2542+ Fri, 06 Jul 2018 19:26:36 +0100
REM compiler GCC version 9.2.1 20190827 (Red Hat 9.2.1-1)
REM options -cpp -mtune=generic -march=x86-64 -g -O0 -fpre-include=/usr/include/finclude/math-vector-fortran.h
REM seed 880264585 714181880 551332393 -72662176 1854245405 1574668431 1169508323 1482279853 712130947 -1190176118 1058371933 -1919552438 46911195 1501565828 332436514 304672020 -1950710143 1283821027 1954062219 1566068014 -1749407373 -1380104758 -1668496490 580849551 581767493 -670126610 1374906368 -1571620918 -939174863 -886060956 -1033364367 -254624185 388589161
REM
CELL 1.54180   50.00000   50.00000   50.00000   90.00000   90.00000   90.00000
LATT -1
SFAC C  
C      1  0.4394250000000  0.5507500000000  0.5484340000000 1.0
C      1  0.5380070000000  0.5046880000000  0.5091520000000 1.0
C      1  0.4892100000000  0.5032280000000  0.6116020000000 1.0
C      1  0.5307420000000  0.5089750000000  0.5849110000000 1.0
C      1  0.4895320000000  0.5736280000000  0.5200140000000 1.0
C      1  0.4343950000000  0.4745210000000  0.5710070000000 1.0
C      1  0.5787300000000  0.6043940000000  0.4833160000000 1.0
C      1  0.5420130000000  0.5460540000000  0.4526900000000 1.0
C      1  0.4618810000000  0.4743060000000  0.5768150000000 1.0
C      1  0.5094600000000  0.5230780000000  0.3943510000000 1.0
C      1  0.4885480000000  0.5152760000000  0.4762770000000 1.0
C      1  0.4459000000000  0.5470640000000  0.4998290000000 1.0
C      1  0.4375740000000  0.4179040000000  0.4292780000000 1.0
C      1  0.5080910000000  0.4795060000000  0.4157550000000 1.0
C      1  0.5665270000000  0.5657470000000  0.5103960000000 1.0
C      1  0.4823210000000  0.5301880000000  0.5566440000000 1.0
C      1  0.5548670000000  0.5668600000000  0.4634620000000 1.0
C      1  0.4732540000000  0.4129990000000  0.4616030000000 1.0
C      1  0.5321580000000  0.5208680000000  0.4596460000000 1.0
C      1  0.4975980000000  0.4047310000000  0.4690880000000 1.0
C      1  0.4683860000000  0.4917900000000  0.5149840000000 1.0
C      1  0.4795850000000  0.4651780000000  0.5567500000000 1.0
C      1  0.5214640000000  0.4571340000000  0.4072530000000 1.0
C      1  0.5434230000000  0.4156480000000  0.4927110000000 1.0
C      1  0.4715030000000  0.4869340000000  0.5999520000000 1.0
C      1  0.5583210000000  0.4303660000000  0.5093690000000 1.0
C      1  0.4983760000000  0.4981590000000  0.3965110000000 1.0
C      1  0.5359100000000  0.4814640000000  0.5807710000000 1.0
C      1  0.4418950000000  0.4546730000000  0.3684010000000 1.0
C      1  0.4400720000000  0.5303490000000  0.4776980000000 1.0
C      1  0.5132510000000  0.5141680000000  0.6065060000000 1.0
C      1  0.4660790000000  0.5532300000000  0.5566850000000 1.0
C      1  0.4446650000000  0.4538080000000  0.4604670000000 1.0
C      1  0.5297990000000  0.5259710000000  0.5619450000000 1.0
C      1  0.5013890000000  0.4633380000000  0.4622700000000 1.0
C      1  0.4045850000000  0.5000410000000  0.5378730000000 1.0
C      1  0.4587890000000  0.4751860000000  0.3685000000000 1.0
C      1  0.4139870000000  0.4830220000000  0.5561340000000 1.0
C      1  0.5490890000000  0.5412800000000  0.5478570000000 1.0
C      1  0.5044590000000  0.4496350000000  0.5586600000000 1.0
C      1  0.4298870000000  0.4201780000000  0.4039310000000 1.0
C      1  0.5668650000000  0.5792860000000  0.4856760000000 1.0
C      1  0.5044760000000  0.4841570000000  0.4434430000000 1.0
C      1  0.4791760000000  0.5761850000000  0.5464880000000 1.0
C      1  0.4893510000000  0.4482850000000  0.5130040000000 1.0
C      1  0.5711860000000  0.5254640000000  0.5356540000000 1.0
C      1  0.5720540000000  0.4748830000000  0.5262490000000 1.0
C      1  0.5616340000000  0.5008130000000  0.5251090000000 1.0
C      1  0.5041000000000  0.4345470000000  0.5334880000000 1.0
C      1  0.5438630000000  0.5084880000000  0.4819440000000 1.0
C      1  0.4966220000000  0.4531100000000  0.4865040000000 1.0
C      1  0.4515740000000  0.4279140000000  0.4514390000000 1.0
C      1  0.4297020000000  0.5422790000000  0.5233310000000 1.0
C      1  0.5301890000000  0.4569210000000  0.5683120000000 1.0
C      1  0.5900280000000  0.6282880000000  0.4814810000000 1.0
C      1  0.5635040000000  0.4483260000000  0.5304080000000 1.0
C      1  0.4364340000000  0.5061140000000  0.4667480000000 1.0
C      1  0.4311830000000  0.4339690000000  0.3812160000000 1.0
C      1  0.5062990000000  0.5102060000000  0.4549410000000 1.0
C      1  0.5116640000000  0.5112080000000  0.5195100000000 1.0
C      1  0.5843670000000  0.5444550000000  0.5182740000000 1.0
C      1  0.5222880000000  0.4060070000000  0.4794060000000 1.0
C      1  0.4778490000000  0.4902240000000  0.3792110000000 1.0
C      1  0.4883120000000  0.5079420000000  0.5033370000000 1.0
C      1  0.4697710000000  0.5632080000000  0.5018060000000 1.0
C      1  0.5177260000000  0.5717650000000  0.5191570000000 1.0
C      1  0.5519320000000  0.4437530000000  0.5557810000000 1.0
C      1  0.6011580000000  0.6517960000000  0.4797180000000 1.0
C      1  0.4098500000000  0.5223970000000  0.5241840000000 1.0
C      1  0.4734210000000  0.4676480000000  0.5281670000000 1.0
C      1  0.5067300000000  0.5211910000000  0.5459610000000 1.0
C      1  0.4383850000000  0.4797450000000  0.4624860000000 1.0
C      1  0.5431620000000  0.5631070000000  0.5280740000000 1.0
END
