TITL C-247200-3482-628 5.66039338675577e-07 125000 -689.550191760678 0 0 113 (C1) n - 1
REM
REM in /home/nfs/bkarasulu/CARBON/AIRSS/Generating-Clusters/LCBOP/Only-C1/SD-CG/FIRE-HFTN
REM
REM
REM
REM
REM
REM ./C.cell (11c1c37f851c82e70ff6c80c92926a4b)
REM AIRSS Version 0.9.1 bugfix July 2018 build 013d7b7c2542+ Fri, 06 Jul 2018 19:26:36 +0100
REM compiler GCC version 9.2.1 20190827 (Red Hat 9.2.1-1)
REM options -cpp -mtune=generic -march=x86-64 -g -O0 -fpre-include=/usr/include/finclude/math-vector-fortran.h
REM seed -375994662 1872482310 212462327 -723035909 -247455300 -1937593825 -479800605 -718234059 -272161627 -364710266 -575536016 445284106 -1923421735 1082884079 -1894062303 1899831292 233565765 668860174 2062659494 -1325369224 -1138995868 1726667777 1618203210 2050024534 1181431387 1362475972 -1727040065 -786101764 356958711 738996895 12020656 496536962 -1241350431
REM
CELL 1.54180   50.00000   50.00000   50.00000   90.00000   90.00000   90.00000
LATT -1
SFAC C  
C      1  0.5502900000000  0.5616000000000  0.5574510000000 1.0
C      1  0.4731160000000  0.5295830000000  0.6129380000000 1.0
C      1  0.5838300000000  0.5420940000000  0.4809100000000 1.0
C      1  0.5341340000000  0.4070140000000  0.4518880000000 1.0
C      1  0.4953080000000  0.5969060000000  0.4720240000000 1.0
C      1  0.5873490000000  0.4415910000000  0.4894390000000 1.0
C      1  0.4838700000000  0.5688120000000  0.5473570000000 1.0
C      1  0.5096180000000  0.4864510000000  0.5329970000000 1.0
C      1  0.4184090000000  0.3864150000000  0.4807810000000 1.0
C      1  0.5711080000000  0.5628740000000  0.5186360000000 1.0
C      1  0.4993590000000  0.5457030000000  0.4066470000000 1.0
C      1  0.5312360000000  0.4412020000000  0.5179950000000 1.0
C      1  0.4527560000000  0.5371130000000  0.5945780000000 1.0
C      1  0.5831120000000  0.4976920000000  0.5391930000000 1.0
C      1  0.4627170000000  0.5586760000000  0.4899490000000 1.0
C      1  0.3226030000000  0.4849920000000  0.5157940000000 1.0
C      1  0.5222720000000  0.5934680000000  0.5310330000000 1.0
C      1  0.5307680000000  0.5857700000000  0.5043690000000 1.0
C      1  0.5344550000000  0.3873290000000  0.4348120000000 1.0
C      1  0.5991190000000  0.4957340000000  0.4682510000000 1.0
C      1  0.5766500000000  0.4519090000000  0.4655560000000 1.0
C      1  0.4630160000000  0.5288460000000  0.4354820000000 1.0
C      1  0.4185020000000  0.4945350000000  0.4576960000000 1.0
C      1  0.4077280000000  0.4094530000000  0.4402030000000 1.0
C      1  0.5258180000000  0.5428590000000  0.4158670000000 1.0
C      1  0.5273040000000  0.5102500000000  0.4973630000000 1.0
C      1  0.5283690000000  0.4203600000000  0.4985780000000 1.0
C      1  0.4043080000000  0.4562220000000  0.4278010000000 1.0
C      1  0.5430030000000  0.5581500000000  0.6172790000000 1.0
C      1  0.5074030000000  0.4902400000000  0.6111340000000 1.0
C      1  0.4334960000000  0.4980540000000  0.4813590000000 1.0
C      1  0.5259640000000  0.5010720000000  0.4705800000000 1.0
C      1  0.4510870000000  0.6033980000000  0.4947270000000 1.0
C      1  0.4661840000000  0.4005670000000  0.4766760000000 1.0
C      1  0.5713960000000  0.5538810000000  0.5752690000000 1.0
C      1  0.5471970000000  0.4517130000000  0.4660470000000 1.0
C      1  0.4717930000000  0.4804740000000  0.4388600000000 1.0
C      1  0.5956500000000  0.5233040000000  0.4639540000000 1.0
C      1  0.5405140000000  0.4937890000000  0.5719300000000 1.0
C      1  0.4397990000000  0.5461190000000  0.5727210000000 1.0
C      1  0.5038640000000  0.5111730000000  0.4559680000000 1.0
C      1  0.4212820000000  0.4781050000000  0.4352370000000 1.0
C      1  0.5189420000000  0.5014190000000  0.5551530000000 1.0
C      1  0.5582950000000  0.5783090000000  0.4987170000000 1.0
C      1  0.4950420000000  0.5916590000000  0.5382750000000 1.0
C      1  0.5167400000000  0.5515630000000  0.6095190000000 1.0
C      1  0.4472970000000  0.4383560000000  0.4252140000000 1.0
C      1  0.5205550000000  0.3947730000000  0.5063540000000 1.0
C      1  0.4919420000000  0.4619470000000  0.4468080000000 1.0
C      1  0.5901140000000  0.4796630000000  0.5178750000000 1.0
C      1  0.4756020000000  0.4221270000000  0.4619470000000 1.0
C      1  0.4727670000000  0.6098550000000  0.4795930000000 1.0
C      1  0.5898900000000  0.5419330000000  0.5104010000000 1.0
C      1  0.4231380000000  0.4915730000000  0.5064250000000 1.0
C      1  0.4616420000000  0.5011130000000  0.4788070000000 1.0
C      1  0.3654680000000  0.5030840000000  0.5272530000000 1.0
C      1  0.4189520000000  0.4311730000000  0.4268070000000 1.0
C      1  0.5350860000000  0.5635270000000  0.4332880000000 1.0
C      1  0.4211060000000  0.4796090000000  0.5295260000000 1.0
C      1  0.5097000000000  0.4602390000000  0.5191710000000 1.0
C      1  0.5671280000000  0.4873820000000  0.5622120000000 1.0
C      1  0.5510540000000  0.5471250000000  0.5328350000000 1.0
C      1  0.5119800000000  0.5732940000000  0.4823800000000 1.0
C      1  0.5794920000000  0.4533080000000  0.5140840000000 1.0
C      1  0.4448980000000  0.3865220000000  0.4843980000000 1.0
C      1  0.5575050000000  0.4431380000000  0.5293190000000 1.0
C      1  0.4250320000000  0.5515090000000  0.5489510000000 1.0
C      1  0.5926950000000  0.5252660000000  0.5361560000000 1.0
C      1  0.3692230000000  0.4374040000000  0.4926730000000 1.0
C      1  0.5069340000000  0.5270240000000  0.5609890000000 1.0
C      1  0.4801920000000  0.4890590000000  0.4965750000000 1.0
C      1  0.4004840000000  0.5381550000000  0.5454710000000 1.0
C      1  0.4926790000000  0.5339490000000  0.5157100000000 1.0
C      1  0.6046990000000  0.4889140000000  0.4952780000000 1.0
C      1  0.4480860000000  0.4683040000000  0.4291090000000 1.0
C      1  0.5395220000000  0.5874790000000  0.5532140000000 1.0
C      1  0.4868810000000  0.4473370000000  0.4722080000000 1.0
C      1  0.5350350000000  0.5620510000000  0.4617400000000 1.0
C      1  0.4722770000000  0.4253250000000  0.4319850000000 1.0
C      1  0.5424170000000  0.5257080000000  0.5161840000000 1.0
C      1  0.5637410000000  0.4398220000000  0.5566360000000 1.0
C      1  0.4902070000000  0.5528240000000  0.4943370000000 1.0
C      1  0.4335760000000  0.5684870000000  0.5277470000000 1.0
C      1  0.5399940000000  0.4792000000000  0.4597930000000 1.0
C      1  0.5152320000000  0.4506040000000  0.4067220000000 1.0
C      1  0.5613720000000  0.5608850000000  0.4748880000000 1.0
C      1  0.5846990000000  0.4769830000000  0.4521930000000 1.0
C      1  0.4459770000000  0.5769790000000  0.5037960000000 1.0
C      1  0.5311250000000  0.4881240000000  0.5982960000000 1.0
C      1  0.5146470000000  0.3706290000000  0.5141830000000 1.0
C      1  0.5658750000000  0.5568880000000  0.6027420000000 1.0
C      1  0.4957800000000  0.4425730000000  0.4253560000000 1.0
C      1  0.5474770000000  0.4924200000000  0.4143890000000 1.0
C      1  0.3498960000000  0.4827110000000  0.5158840000000 1.0
C      1  0.5600140000000  0.4864200000000  0.4391500000000 1.0
C      1  0.3806550000000  0.5222890000000  0.5376080000000 1.0
C      1  0.5447120000000  0.5865520000000  0.4216880000000 1.0
C      1  0.3619560000000  0.4600240000000  0.5045990000000 1.0
C      1  0.5352860000000  0.4267360000000  0.4716610000000 1.0
C      1  0.4839310000000  0.5032410000000  0.6141940000000 1.0
C      1  0.4002640000000  0.4023560000000  0.4664650000000 1.0
C      1  0.5924430000000  0.5401570000000  0.5613730000000 1.0
C      1  0.4741010000000  0.5073030000000  0.4519380000000 1.0
C      1  0.5404300000000  0.5194440000000  0.4098360000000 1.0
C      1  0.5741000000000  0.4608140000000  0.5703590000000 1.0
C      1  0.4742500000000  0.5427050000000  0.4153860000000 1.0
C      1  0.5329490000000  0.4707240000000  0.4026920000000 1.0
C      1  0.4917220000000  0.5493450000000  0.6225220000000 1.0
C      1  0.4915110000000  0.5420660000000  0.5425850000000 1.0
C      1  0.4896850000000  0.4613760000000  0.4967580000000 1.0
C      1  0.3805000000000  0.4170270000000  0.4798260000000 1.0
C      1  0.5153120000000  0.5407070000000  0.5836650000000 1.0
C      1  0.5003320000000  0.5059150000000  0.5108040000000 1.0
END
