TITL C-247198-3593-102 4.15184944740414 125000 -321.04670944289 0 0 55 (C1) n - 1
REM
REM in /home/nfs/bkarasulu/CARBON/AIRSS/Generating-Clusters/LCBOP/Only-C1/SD-CG/FIRE-HFTN
REM
REM
REM
REM
REM
REM ./C.cell (11c1c37f851c82e70ff6c80c92926a4b)
REM AIRSS Version 0.9.1 bugfix July 2018 build 013d7b7c2542+ Fri, 06 Jul 2018 19:26:36 +0100
REM compiler GCC version 9.2.1 20190827 (Red Hat 9.2.1-1)
REM options -cpp -mtune=generic -march=x86-64 -g -O0 -fpre-include=/usr/include/finclude/math-vector-fortran.h
REM seed -1161584378 -710084682 452911675 -563317536 1626906068 860187455 -27513824 1326482693 -1545929504 -1701035044 -1397258956 1923276478 -1984759759 -1453902412 2048876324 1351432066 -2102360505 619598579 1585749878 1207458221 -784558441 -983506453 1269850792 -872817188 -740966567 -1971156809 516021605 1013750302 -759720665 -11088425 -1276032853 547147516 -1783115292
REM
CELL 1.54180   50.00000   50.00000   50.00000   90.00000   90.00000   90.00000
LATT -1
SFAC C  
C      1  0.5633320000000  0.5455500000000  0.5240980000000 1.0
C      1  0.4219730000000  0.4993270000000  0.5055660000000 1.0
C      1  0.4170710000000  0.4195290000000  0.6096380000000 1.0
C      1  0.5759440000000  0.4740380000000  0.5447590000000 1.0
C      1  0.4940680000000  0.4235910000000  0.5063930000000 1.0
C      1  0.5594550000000  0.5200570000000  0.5364520000000 1.0
C      1  0.5461580000000  0.5148220000000  0.4599170000000 1.0
C      1  0.5737980000000  0.5184130000000  0.4628540000000 1.0
C      1  0.4497050000000  0.4411380000000  0.4452060000000 1.0
C      1  0.5144960000000  0.4291570000000  0.5223400000000 1.0
C      1  0.4424230000000  0.4597690000000  0.4256890000000 1.0
C      1  0.5352940000000  0.5587250000000  0.4852390000000 1.0
C      1  0.5336590000000  0.5841340000000  0.4723810000000 1.0
C      1  0.5891580000000  0.5533410000000  0.5153020000000 1.0
C      1  0.5882570000000  0.4975380000000  0.5035560000000 1.0
C      1  0.4608140000000  0.4292180000000  0.4661010000000 1.0
C      1  0.4166770000000  0.5007070000000  0.4180940000000 1.0
C      1  0.4431540000000  0.4469390000000  0.3728210000000 1.0
C      1  0.3999650000000  0.5143840000000  0.4035080000000 1.0
C      1  0.4317840000000  0.4643840000000  0.5865200000000 1.0
C      1  0.4391300000000  0.4882330000000  0.5739910000000 1.0
C      1  0.5232640000000  0.5802550000000  0.5547540000000 1.0
C      1  0.5923690000000  0.5174610000000  0.4838750000000 1.0
C      1  0.5053330000000  0.5422780000000  0.4487370000000 1.0
C      1  0.4720670000000  0.5071920000000  0.4574040000000 1.0
C      1  0.4197010000000  0.5032290000000  0.5596370000000 1.0
C      1  0.4430660000000  0.4526910000000  0.3986830000000 1.0
C      1  0.4304460000000  0.4983510000000  0.4804820000000 1.0
C      1  0.5747890000000  0.4971480000000  0.5283400000000 1.0
C      1  0.4812560000000  0.5304910000000  0.4438260000000 1.0
C      1  0.6151260000000  0.4695970000000  0.5816010000000 1.0
C      1  0.5115800000000  0.4786580000000  0.4611290000000 1.0
C      1  0.5252780000000  0.5346290000000  0.4709350000000 1.0
C      1  0.4186030000000  0.5008800000000  0.5317980000000 1.0
C      1  0.5071180000000  0.5166140000000  0.4886280000000 1.0
C      1  0.5566390000000  0.4540920000000  0.5416380000000 1.0
C      1  0.4348510000000  0.4860670000000  0.4334370000000 1.0
C      1  0.4457150000000  0.4974450000000  0.4570890000000 1.0
C      1  0.5388520000000  0.5168410000000  0.5550880000000 1.0
C      1  0.5266190000000  0.6060310000000  0.5134150000000 1.0
C      1  0.4758100000000  0.4234290000000  0.4871780000000 1.0
C      1  0.5356620000000  0.4889060000000  0.4535180000000 1.0
C      1  0.5287780000000  0.6069100000000  0.4863600000000 1.0
C      1  0.5156650000000  0.5114760000000  0.5667370000000 1.0
C      1  0.4929120000000  0.4960770000000  0.4737520000000 1.0
C      1  0.6022400000000  0.5417660000000  0.4945750000000 1.0
C      1  0.4243940000000  0.4417730000000  0.5981840000000 1.0
C      1  0.5961510000000  0.4714240000000  0.5638310000000 1.0
C      1  0.5358370000000  0.4394690000000  0.5342030000000 1.0
C      1  0.5302240000000  0.5821750000000  0.5284630000000 1.0
C      1  0.4024560000000  0.5197730000000  0.5729540000000 1.0
C      1  0.4908020000000  0.5048840000000  0.5731360000000 1.0
C      1  0.5414600000000  0.5602000000000  0.5135170000000 1.0
C      1  0.4655040000000  0.4973300000000  0.5753350000000 1.0
C      1  0.4431180000000  0.4414670000000  0.3473330000000 1.0
END
