TITL C-247196-3112-342 8891.28096515783 125000 -987.028556291089 0 0 161 (C1) n - 1
REM
REM in /home/nfs/bkarasulu/CARBON/AIRSS/Generating-Clusters/LCBOP/Only-C1/SD-CG/FIRE-HFTN
REM
REM
REM
REM
REM
REM ./C.cell (11c1c37f851c82e70ff6c80c92926a4b)
REM AIRSS Version 0.9.1 bugfix July 2018 build 013d7b7c2542+ Fri, 06 Jul 2018 19:26:36 +0100
REM compiler GCC version 9.2.1 20190827 (Red Hat 9.2.1-1)
REM options -cpp -mtune=generic -march=x86-64 -g -O0 -fpre-include=/usr/include/finclude/math-vector-fortran.h
REM seed -761186094 -935443717 -943169814 1279943915 845938915 -86864159 1341568304 790230275 -481089283 706663658 -522018909 -1836732193 774618465 2040365536 753714632 590727842 152198825 -1010638812 831375534 -358368927 -1847078481 -927656073 1365229558 837349088 1345284557 950747018 -160168892 -813464764 400385738 -1994873600 -1529469226 -295878056 2076111105
REM
CELL 1.54180   50.00000   50.00000   50.00000   90.00000   90.00000   90.00000
LATT -1
SFAC C  
C      1  0.5360920000000  0.4867200000000  0.5183310000000 1.0
C      1  0.5196950000000  0.3926260000000  0.5515770000000 1.0
C      1  0.5450240000000  0.4720820000000  0.4578080000000 1.0
C      1  0.5756880000000  0.4334980000000  0.5338400000000 1.0
C      1  0.4976570000000  0.5406130000000  0.5878130000000 1.0
C      1  0.5118500000000  0.5270310000000  0.5677930000000 1.0
C      1  0.5096480000000  0.5498910000000  0.5210900000000 1.0
C      1  0.5545260000000  0.5923540000000  0.5473900000000 1.0
C      1  0.5546900000000  0.5240940000000  0.3957060000000 1.0
C      1  0.5198180000000  0.5521940000000  0.4550040000000 1.0
C      1  0.5220680000000  0.4708690000000  0.5365460000000 1.0
C      1  0.5504340000000  0.5021620000000  0.5567350000000 1.0
C      1  0.4101170000000  0.4365600000000  0.5094030000000 1.0
C      1  0.5557360000000  0.5363120000000  0.4224480000000 1.0
C      1  0.5583280000000  0.4413010000000  0.4899340000000 1.0
C      1  0.5313840000000  0.6082340000000  0.5047890000000 1.0
C      1  0.5016790000000  0.5299950000000  0.4571670000000 1.0
C      1  0.3895780000000  0.4825400000000  0.4621720000000 1.0
C      1  0.4656970000000  0.3960570000000  0.5290580000000 1.0
C      1  0.6069860000000  0.4727980000000  0.4740830000000 1.0
C      1  0.5799300000000  0.4331030000000  0.4731480000000 1.0
C      1  0.5707950000000  0.5504410000000  0.5751550000000 1.0
C      1  0.4165620000000  0.5742920000000  0.4835320000000 1.0
C      1  0.5874830000000  0.5390710000000  0.5545580000000 1.0
C      1  0.4835030000000  0.5328600000000  0.3991100000000 1.0
C      1  0.4888040000000  0.5109720000000  0.4406600000000 1.0
C      1  0.4194920000000  0.5582360000000  0.5392640000000 1.0
C      1  0.5866370000000  0.4918700000000  0.4079500000000 1.0
C      1  0.4751170000000  0.5239700000000  0.5449650000000 1.0
C      1  0.5005910000000  0.4267950000000  0.5326040000000 1.0
C      1  0.5300000000000  0.4369040000000  0.4119350000000 1.0
C      1  0.5721530000000  0.4066990000000  0.5252120000000 1.0
C      1  0.4955310000000  0.4085890000000  0.4352330000000 1.0
C      1  0.5071820000000  0.5997370000000  0.5449620000000 1.0
C      1  0.5581500000000  0.5350730000000  0.5987040000000 1.0
C      1  0.4909360000000  0.5086360000000  0.4125050000000 1.0
C      1  0.5964830000000  0.5086480000000  0.4298740000000 1.0
C      1  0.5681980000000  0.4703790000000  0.4149840000000 1.0
C      1  0.5637230000000  0.4807640000000  0.5163850000000 1.0
C      1  0.4217080000000  0.4505550000000  0.5828620000000 1.0
C      1  0.4866970000000  0.5275660000000  0.4815080000000 1.0
C      1  0.4373230000000  0.4765720000000  0.4792590000000 1.0
C      1  0.5775620000000  0.4419290000000  0.5604600000000 1.0
C      1  0.5723810000000  0.5244620000000  0.4943980000000 1.0
C      1  0.3928320000000  0.5131100000000  0.3859590000000 1.0
C      1  0.4749000000000  0.5754550000000  0.5704610000000 1.0
C      1  0.5666950000000  0.6188600000000  0.4469590000000 1.0
C      1  0.4627530000000  0.5956620000000  0.4768430000000 1.0
C      1  0.5556400000000  0.3941750000000  0.5078520000000 1.0
C      1  0.5656020000000  0.5175980000000  0.4670490000000 1.0
C      1  0.5232340000000  0.4035080000000  0.4460200000000 1.0
C      1  0.4255110000000  0.4116060000000  0.5098240000000 1.0
C      1  0.4933630000000  0.4632260000000  0.5980340000000 1.0
C      1  0.4656690000000  0.5805000000000  0.4518490000000 1.0
C      1  0.5667540000000  0.4880140000000  0.5776880000000 1.0
C      1  0.5938110000000  0.5132690000000  0.5428590000000 1.0
C      1  0.4107060000000  0.4685990000000  0.4731500000000 1.0
C      1  0.4760230000000  0.4448750000000  0.4694470000000 1.0
C      1  0.4605280000000  0.5532990000000  0.5104070000000 1.0
C      1  0.4491870000000  0.5142980000000  0.5455110000000 1.0
C      1  0.5680320000000  0.4526720000000  0.5142670000000 1.0
C      1  0.5332870000000  0.5081580000000  0.3865710000000 1.0
C      1  0.6065170000000  0.4892410000000  0.4956990000000 1.0
C      1  0.5123380000000  0.5947860000000  0.4877500000000 1.0
C      1  0.4550420000000  0.4401420000000  0.4479420000000 1.0
C      1  0.4472530000000  0.5390150000000  0.4301980000000 1.0
C      1  0.5755540000000  0.5250450000000  0.4412940000000 1.0
C      1  0.4352080000000  0.5132170000000  0.4192900000000 1.0
C      1  0.4669710000000  0.3926280000000  0.4810560000000 1.0
C      1  0.4438760000000  0.5026390000000  0.4709630000000 1.0
C      1  0.5031610000000  0.4817740000000  0.5538870000000 1.0
C      1  0.4104870000000  0.4414300000000  0.4797170000000 1.0
C      1  0.4977970000000  0.4820900000000  0.4034670000000 1.0
C      1  0.5426230000000  0.4616690000000  0.4031080000000 1.0
C      1  0.4442420000000  0.5680640000000  0.5297110000000 1.0
C      1  0.3329090000000  0.5296370000000  0.4338910000000 1.0
C      1  0.4136990000000  0.4931480000000  0.5715930000000 1.0
C      1  0.4131950000000  0.5131630000000  0.4022190000000 1.0
C      1  0.4826090000000  0.5985800000000  0.5277600000000 1.0
C      1  0.5209720000000  0.4645340000000  0.6040570000000 1.0
C      1  0.5278190000000  0.4202030000000  0.5723250000000 1.0
C      1  0.4731310000000  0.4220110000000  0.5357600000000 1.0
C      1  0.4828500000000  0.5438480000000  0.5266750000000 1.0
C      1  0.5518430000000  0.6023720000000  0.4324960000000 1.0
C      1  0.4623870000000  0.5846370000000  0.5448490000000 1.0
C      1  0.4842650000000  0.4575950000000  0.4124880000000 1.0
C      1  0.3505550000000  0.5131080000000  0.4436380000000 1.0
C      1  0.5370830000000  0.5252050000000  0.5572460000000 1.0
C      1  0.5002290000000  0.4335310000000  0.4169920000000 1.0
C      1  0.4089670000000  0.5337400000000  0.5495340000000 1.0
C      1  0.5815520000000  0.6331840000000  0.4635920000000 1.0
C      1  0.3937190000000  0.5147390000000  0.5330680000000 1.0
C      1  0.4322330000000  0.4260980000000  0.4646080000000 1.0
C      1  0.3934490000000  0.4884490000000  0.5246120000000 1.0
C      1  0.4670560000000  0.4744990000000  0.6065100000000 1.0
C      1  0.4713700000000  0.4916800000000  0.5124250000000 1.0
C      1  0.5547000000000  0.5745110000000  0.5693890000000 1.0
C      1  0.5619340000000  0.4578550000000  0.5779820000000 1.0
C      1  0.4582120000000  0.4600290000000  0.4258100000000 1.0
C      1  0.4728330000000  0.5782590000000  0.4238260000000 1.0
C      1  0.5260120000000  0.5857160000000  0.3955640000000 1.0
C      1  0.5328680000000  0.6034390000000  0.5327910000000 1.0
C      1  0.4296480000000  0.5181340000000  0.5668530000000 1.0
C      1  0.4090060000000  0.4655960000000  0.5621160000000 1.0
C      1  0.5370790000000  0.4459000000000  0.5872570000000 1.0
C      1  0.4032240000000  0.4617710000000  0.5327430000000 1.0
C      1  0.5787530000000  0.5105990000000  0.3880330000000 1.0
C      1  0.4463240000000  0.5021420000000  0.5209590000000 1.0
C      1  0.4242800000000  0.5231500000000  0.4759950000000 1.0
C      1  0.5297290000000  0.5746140000000  0.5856220000000 1.0
C      1  0.4810140000000  0.3860770000000  0.5067550000000 1.0
C      1  0.5217330000000  0.5686840000000  0.4790010000000 1.0
C      1  0.5108590000000  0.5377390000000  0.6128210000000 1.0
C      1  0.5187980000000  0.5004010000000  0.5020060000000 1.0
C      1  0.5044870000000  0.5850790000000  0.5710610000000 1.0
C      1  0.4608940000000  0.4472520000000  0.5371470000000 1.0
C      1  0.5443940000000  0.4990880000000  0.4643090000000 1.0
C      1  0.5092810000000  0.3874180000000  0.5165980000000 1.0
C      1  0.4917400000000  0.5055830000000  0.4983660000000 1.0
C      1  0.5349180000000  0.5525340000000  0.6068540000000 1.0
C      1  0.4668860000000  0.4634440000000  0.5143050000000 1.0
C      1  0.3692220000000  0.4967870000000  0.4529980000000 1.0
C      1  0.5688530000000  0.4648860000000  0.4427090000000 1.0
C      1  0.5285330000000  0.4919580000000  0.6123190000000 1.0
C      1  0.4488430000000  0.4884070000000  0.4282570000000 1.0
C      1  0.4350080000000  0.5943910000000  0.4848490000000 1.0
C      1  0.5417500000000  0.4155700000000  0.4277670000000 1.0
C      1  0.5379220000000  0.5816790000000  0.4198520000000 1.0
C      1  0.5548100000000  0.5042980000000  0.6022170000000 1.0
C      1  0.5050440000000  0.5101140000000  0.6184090000000 1.0
C      1  0.5205760000000  0.4092630000000  0.4742980000000 1.0
C      1  0.4640390000000  0.5446030000000  0.4834290000000 1.0
C      1  0.4895490000000  0.4638390000000  0.5698240000000 1.0
C      1  0.4711370000000  0.5031500000000  0.6095710000000 1.0
C      1  0.5245660000000  0.4820400000000  0.3936310000000 1.0
C      1  0.5291580000000  0.3949460000000  0.4977520000000 1.0
C      1  0.5565220000000  0.5450330000000  0.5051130000000 1.0
C      1  0.4533300000000  0.5269550000000  0.5920520000000 1.0
C      1  0.5958150000000  0.6462990000000  0.4810330000000 1.0
C      1  0.6229470000000  0.5112460000000  0.4359490000000 1.0
C      1  0.4131880000000  0.5475420000000  0.4802530000000 1.0
C      1  0.5096070000000  0.4374570000000  0.4755200000000 1.0
C      1  0.5942240000000  0.4937820000000  0.5651400000000 1.0
C      1  0.5372150000000  0.5560310000000  0.4323070000000 1.0
C      1  0.4546150000000  0.5529980000000  0.4570400000000 1.0
C      1  0.4953610000000  0.5083050000000  0.5553760000000 1.0
C      1  0.4587460000000  0.4580550000000  0.4882060000000 1.0
C      1  0.4408980000000  0.4056330000000  0.4849430000000 1.0
C      1  0.5854350000000  0.5029740000000  0.5134890000000 1.0
C      1  0.4631070000000  0.4574060000000  0.5631050000000 1.0
C      1  0.4641400000000  0.5002100000000  0.4505480000000 1.0
C      1  0.4668250000000  0.5523430000000  0.4116950000000 1.0
C      1  0.4844490000000  0.5983250000000  0.4970480000000 1.0
C      1  0.5302740000000  0.5542200000000  0.5025760000000 1.0
C      1  0.5204930000000  0.4438590000000  0.5314370000000 1.0
C      1  0.4772130000000  0.3954270000000  0.4537770000000 1.0
C      1  0.5215390000000  0.3691630000000  0.5644550000000 1.0
C      1  0.5907160000000  0.4551840000000  0.4586760000000 1.0
C      1  0.5348220000000  0.4525810000000  0.4759450000000 1.0
C      1  0.4707080000000  0.5500800000000  0.5850360000000 1.0
C      1  0.4480670000000  0.4593080000000  0.5881470000000 1.0
END
