TITL C-247197-3123-655 1.94920178340025 125000 -1093.00849979377 0 0 176 (C1) n - 1
REM
REM in /home/nfs/bkarasulu/CARBON/AIRSS/Generating-Clusters/LCBOP/Only-C1/SD-CG/FIRE-HFTN
REM
REM
REM
REM
REM
REM ./C.cell (11c1c37f851c82e70ff6c80c92926a4b)
REM AIRSS Version 0.9.1 bugfix July 2018 build 013d7b7c2542+ Fri, 06 Jul 2018 19:26:36 +0100
REM compiler GCC version 9.2.1 20190827 (Red Hat 9.2.1-1)
REM options -cpp -mtune=generic -march=x86-64 -g -O0 -fpre-include=/usr/include/finclude/math-vector-fortran.h
REM seed -1183372855 1828010049 -1381492463 -112591692 373144824 -1595005045 -1272954070 -1918384132 632236729 -1467607028 -561329821 -582213928 -326297042 -1962650150 601577213 1169274202 -1334804321 237366814 2087427822 1129172055 706981618 910888050 1475448430 1274457122 1797021638 1113670911 2112037616 -1803643842 888006495 220883195 1236288236 -872481386 -1471746897
REM
CELL 1.54180   50.00000   50.00000   50.00000   90.00000   90.00000   90.00000
LATT -1
SFAC C  
C      1  0.5416650000000  0.4846520000000  0.4625250000000 1.0
C      1  0.5875820000000  0.4665370000000  0.4351540000000 1.0
C      1  0.4384770000000  0.5963100000000  0.5827410000000 1.0
C      1  0.4934210000000  0.6321180000000  0.5159950000000 1.0
C      1  0.5122840000000  0.4220840000000  0.4056140000000 1.0
C      1  0.5630970000000  0.5863930000000  0.4664870000000 1.0
C      1  0.5138670000000  0.5191060000000  0.5231170000000 1.0
C      1  0.5331960000000  0.5118150000000  0.5683120000000 1.0
C      1  0.4118580000000  0.5806320000000  0.5210150000000 1.0
C      1  0.5122250000000  0.5069950000000  0.5494330000000 1.0
C      1  0.5795690000000  0.5801610000000  0.5823310000000 1.0
C      1  0.3725750000000  0.5216410000000  0.4930890000000 1.0
C      1  0.5589720000000  0.5037400000000  0.5624210000000 1.0
C      1  0.5109030000000  0.5689590000000  0.4145370000000 1.0
C      1  0.4588940000000  0.6000480000000  0.5198180000000 1.0
C      1  0.4615110000000  0.5626770000000  0.3992230000000 1.0
C      1  0.5842410000000  0.3984310000000  0.5835650000000 1.0
C      1  0.5638730000000  0.5622500000000  0.4267880000000 1.0
C      1  0.4228160000000  0.4738770000000  0.5268120000000 1.0
C      1  0.3818960000000  0.5690970000000  0.4750480000000 1.0
C      1  0.4135130000000  0.5337460000000  0.5274620000000 1.0
C      1  0.5607520000000  0.4301190000000  0.4130760000000 1.0
C      1  0.4926490000000  0.5151890000000  0.3874910000000 1.0
C      1  0.5111210000000  0.3940040000000  0.4904360000000 1.0
C      1  0.5888540000000  0.4787900000000  0.4906220000000 1.0
C      1  0.6012890000000  0.4219810000000  0.4918350000000 1.0
C      1  0.5482300000000  0.4620760000000  0.5144730000000 1.0
C      1  0.5935640000000  0.5483020000000  0.4617570000000 1.0
C      1  0.4755750000000  0.5457220000000  0.5355600000000 1.0
C      1  0.5362810000000  0.4162250000000  0.4207120000000 1.0
C      1  0.5718590000000  0.5144420000000  0.4361410000000 1.0
C      1  0.5291320000000  0.5246390000000  0.5934470000000 1.0
C      1  0.6073210000000  0.6187700000000  0.5279490000000 1.0
C      1  0.4031180000000  0.4487290000000  0.4540560000000 1.0
C      1  0.4378010000000  0.4704390000000  0.5029700000000 1.0
C      1  0.4924900000000  0.4185560000000  0.5784810000000 1.0
C      1  0.5473620000000  0.5775530000000  0.4447440000000 1.0
C      1  0.4001350000000  0.4317130000000  0.4773180000000 1.0
C      1  0.4611690000000  0.4918070000000  0.4116640000000 1.0
C      1  0.4580350000000  0.5403090000000  0.5133340000000 1.0
C      1  0.5031860000000  0.4440940000000  0.5680730000000 1.0
C      1  0.4459400000000  0.4183290000000  0.4664040000000 1.0
C      1  0.4961500000000  0.3857820000000  0.5360120000000 1.0
C      1  0.5439610000000  0.5393630000000  0.3793280000000 1.0
C      1  0.5298950000000  0.4386000000000  0.5572790000000 1.0
C      1  0.4808930000000  0.5725520000000  0.4834700000000 1.0
C      1  0.4335040000000  0.3945170000000  0.5024470000000 1.0
C      1  0.4893260000000  0.3890060000000  0.6169250000000 1.0
C      1  0.4154050000000  0.6612520000000  0.4661300000000 1.0
C      1  0.4531740000000  0.3907990000000  0.5649400000000 1.0
C      1  0.4347400000000  0.5153110000000  0.4823740000000 1.0
C      1  0.4660660000000  0.5388520000000  0.5615480000000 1.0
C      1  0.5389560000000  0.5507170000000  0.5963960000000 1.0
C      1  0.4857860000000  0.4180570000000  0.4191510000000 1.0
C      1  0.4219290000000  0.4129670000000  0.4818170000000 1.0
C      1  0.4519370000000  0.5380060000000  0.3938130000000 1.0
C      1  0.4538500000000  0.4608860000000  0.5607780000000 1.0
C      1  0.5253210000000  0.3927870000000  0.4659880000000 1.0
C      1  0.5620620000000  0.4038630000000  0.5710080000000 1.0
C      1  0.4893890000000  0.4950870000000  0.5620010000000 1.0
C      1  0.6066640000000  0.5918890000000  0.5226660000000 1.0
C      1  0.6279470000000  0.5493330000000  0.5422240000000 1.0
C      1  0.4605560000000  0.4401700000000  0.4752370000000 1.0
C      1  0.5222030000000  0.4789040000000  0.4171960000000 1.0
C      1  0.6018100000000  0.5832030000000  0.4964660000000 1.0
C      1  0.5189550000000  0.5735380000000  0.4423520000000 1.0
C      1  0.3812360000000  0.4436700000000  0.4950900000000 1.0
C      1  0.3948270000000  0.4702360000000  0.5314950000000 1.0
C      1  0.4905750000000  0.4455150000000  0.3670380000000 1.0
C      1  0.5747880000000  0.4415660000000  0.4353800000000 1.0
C      1  0.4886230000000  0.3831300000000  0.5065290000000 1.0
C      1  0.4787080000000  0.4417880000000  0.5177830000000 1.0
C      1  0.5806560000000  0.5417750000000  0.4367070000000 1.0
C      1  0.4667420000000  0.4397910000000  0.4157880000000 1.0
C      1  0.4704490000000  0.4254670000000  0.5384330000000 1.0
C      1  0.4232180000000  0.3976330000000  0.5287400000000 1.0
C      1  0.5763260000000  0.4329810000000  0.4842450000000 1.0
C      1  0.4100760000000  0.6137090000000  0.4732080000000 1.0
C      1  0.6052780000000  0.5775420000000  0.5718920000000 1.0
C      1  0.3789240000000  0.4691300000000  0.5081070000000 1.0
C      1  0.4584380000000  0.4809900000000  0.4574980000000 1.0
C      1  0.6362100000000  0.5045000000000  0.5221800000000 1.0
C      1  0.5301960000000  0.5947960000000  0.5233350000000 1.0
C      1  0.4621140000000  0.4643530000000  0.4016050000000 1.0
C      1  0.4843930000000  0.5748310000000  0.4064730000000 1.0
C      1  0.4928150000000  0.4139700000000  0.6064360000000 1.0
C      1  0.3940230000000  0.5925270000000  0.4695010000000 1.0
C      1  0.4743610000000  0.4584970000000  0.4605730000000 1.0
C      1  0.3711760000000  0.4947530000000  0.4973960000000 1.0
C      1  0.4380510000000  0.5789050000000  0.5610060000000 1.0
C      1  0.5894060000000  0.4930990000000  0.4443840000000 1.0
C      1  0.4118740000000  0.4749180000000  0.4603710000000 1.0
C      1  0.4360100000000  0.5889860000000  0.5338470000000 1.0
C      1  0.5236370000000  0.3900300000000  0.5441970000000 1.0
C      1  0.5109810000000  0.4593360000000  0.4308770000000 1.0
C      1  0.5775500000000  0.5292250000000  0.5020140000000 1.0
C      1  0.5040570000000  0.4612490000000  0.6292450000000 1.0
C      1  0.3975570000000  0.4403970000000  0.4287200000000 1.0
C      1  0.4126240000000  0.4795940000000  0.6023940000000 1.0
C      1  0.5194660000000  0.5091680000000  0.6146990000000 1.0
C      1  0.4462740000000  0.4340280000000  0.5528150000000 1.0
C      1  0.4396540000000  0.5504380000000  0.5645930000000 1.0
C      1  0.6272760000000  0.5658970000000  0.5871990000000 1.0
C      1  0.5792460000000  0.5085160000000  0.5464610000000 1.0
C      1  0.3944100000000  0.4710620000000  0.5843660000000 1.0
C      1  0.6406480000000  0.5487240000000  0.5682390000000 1.0
C      1  0.5484830000000  0.5132610000000  0.3709720000000 1.0
C      1  0.4240180000000  0.6377520000000  0.4786740000000 1.0
C      1  0.5968800000000  0.4981740000000  0.4716640000000 1.0
C      1  0.4831710000000  0.4666990000000  0.5645200000000 1.0
C      1  0.5168480000000  0.6184880000000  0.5197930000000 1.0
C      1  0.6109980000000  0.5734300000000  0.5434900000000 1.0
C      1  0.5385830000000  0.4105680000000  0.5573770000000 1.0
C      1  0.4975460000000  0.4362110000000  0.6230100000000 1.0
C      1  0.4394600000000  0.6128930000000  0.6028190000000 1.0
C      1  0.6240960000000  0.4319780000000  0.5019720000000 1.0
C      1  0.4722480000000  0.5143420000000  0.5755290000000 1.0
C      1  0.5055320000000  0.4423150000000  0.5094160000000 1.0
C      1  0.5355640000000  0.5294830000000  0.4691410000000 1.0
C      1  0.5641770000000  0.4270190000000  0.4590310000000 1.0
C      1  0.4623050000000  0.3848330000000  0.4925650000000 1.0
C      1  0.3989490000000  0.5554590000000  0.5169740000000 1.0
C      1  0.4653310000000  0.5131550000000  0.3934160000000 1.0
C      1  0.6417350000000  0.4788360000000  0.5172280000000 1.0
C      1  0.4322010000000  0.4078450000000  0.5537390000000 1.0
C      1  0.4573680000000  0.5057730000000  0.5983360000000 1.0
C      1  0.4577050000000  0.4500900000000  0.5012880000000 1.0
C      1  0.5147040000000  0.4406530000000  0.3816420000000 1.0
C      1  0.5497940000000  0.5353880000000  0.4956740000000 1.0
C      1  0.4358200000000  0.4924000000000  0.6077010000000 1.0
C      1  0.4073220000000  0.6830880000000  0.4544200000000 1.0
C      1  0.5460560000000  0.4559280000000  0.5419140000000 1.0
C      1  0.4804680000000  0.5838630000000  0.5100160000000 1.0
C      1  0.6378010000000  0.4532010000000  0.5107880000000 1.0
C      1  0.4462070000000  0.6392200000000  0.4961720000000 1.0
C      1  0.5125570000000  0.5230520000000  0.4056570000000 1.0
C      1  0.4791180000000  0.3979890000000  0.4393580000000 1.0
C      1  0.6337640000000  0.5703530000000  0.6131080000000 1.0
C      1  0.5041480000000  0.5321390000000  0.4696670000000 1.0
C      1  0.5942960000000  0.5257850000000  0.4792840000000 1.0
C      1  0.5567120000000  0.5699400000000  0.5914160000000 1.0
C      1  0.5443940000000  0.4861350000000  0.3707810000000 1.0
C      1  0.6196080000000  0.5263130000000  0.5284260000000 1.0
C      1  0.4933810000000  0.5667490000000  0.5290990000000 1.0
C      1  0.4338520000000  0.5246940000000  0.5099710000000 1.0
C      1  0.5878300000000  0.5740550000000  0.4741130000000 1.0
C      1  0.4612940000000  0.5521880000000  0.4865910000000 1.0
C      1  0.5020330000000  0.5640580000000  0.4650150000000 1.0
C      1  0.5710070000000  0.4580780000000  0.4977510000000 1.0
C      1  0.5227300000000  0.4630190000000  0.5014830000000 1.0
C      1  0.4670410000000  0.4994960000000  0.4386820000000 1.0
C      1  0.4363600000000  0.4810760000000  0.5508070000000 1.0
C      1  0.5115570000000  0.4866250000000  0.6264360000000 1.0
C      1  0.3819670000000  0.5488320000000  0.4947960000000 1.0
C      1  0.4799040000000  0.4017150000000  0.5560640000000 1.0
C      1  0.4633790000000  0.3952510000000  0.4634330000000 1.0
C      1  0.5439640000000  0.5103300000000  0.4468120000000 1.0
C      1  0.4345410000000  0.4860540000000  0.4765700000000 1.0
C      1  0.4992570000000  0.5168320000000  0.4979340000000 1.0
C      1  0.5256830000000  0.5059290000000  0.4232620000000 1.0
C      1  0.5018560000000  0.4596640000000  0.4569990000000 1.0
C      1  0.4690910000000  0.4604050000000  0.3742170000000 1.0
C      1  0.5245780000000  0.5480710000000  0.3993440000000 1.0
C      1  0.5350890000000  0.4607730000000  0.3756290000000 1.0
C      1  0.5218630000000  0.5674540000000  0.5261650000000 1.0
C      1  0.4753300000000  0.5226720000000  0.4525580000000 1.0
C      1  0.5323940000000  0.5418050000000  0.5180180000000 1.0
C      1  0.4203860000000  0.5312280000000  0.5549630000000 1.0
C      1  0.4259700000000  0.5046190000000  0.5620630000000 1.0
C      1  0.4533320000000  0.5329670000000  0.4674700000000 1.0
C      1  0.3867410000000  0.4681200000000  0.5586220000000 1.0
C      1  0.5410430000000  0.4101580000000  0.4497500000000 1.0
C      1  0.5174460000000  0.4177270000000  0.5042860000000 1.0
C      1  0.4651890000000  0.6271070000000  0.5129110000000 1.0
C      1  0.5912190000000  0.5227140000000  0.5260290000000 1.0
C      1  0.5210760000000  0.4702650000000  0.4747440000000 1.0
END
