TITL C-247196-3112-366 1.0118121903252 125000 -996.019692055366 0 0 160 (C1) n - 1
REM
REM in /home/nfs/bkarasulu/CARBON/AIRSS/Generating-Clusters/LCBOP/Only-C1/SD-CG/FIRE-HFTN
REM
REM
REM
REM
REM
REM ./C.cell (11c1c37f851c82e70ff6c80c92926a4b)
REM AIRSS Version 0.9.1 bugfix July 2018 build 013d7b7c2542+ Fri, 06 Jul 2018 19:26:36 +0100
REM compiler GCC version 9.2.1 20190827 (Red Hat 9.2.1-1)
REM options -cpp -mtune=generic -march=x86-64 -g -O0 -fpre-include=/usr/include/finclude/math-vector-fortran.h
REM seed 1374326213 -335572513 -446141671 -1857076144 508055303 2113239216 -388575146 1294942110 1984182656 528047266 354946146 1358089012 58360713 2136170922 1121480575 1316688944 2014154012 -1992148229 -770271209 -859015999 339925198 1038523243 1176712888 1602653848 -202568610 1555724266 -1203745140 -1191220694 -1494604410 -1465708547 1937887367 -1844628824 -918700218
REM
CELL 1.54180   50.00000   50.00000   50.00000   90.00000   90.00000   90.00000
LATT -1
SFAC C  
C      1  0.5160790000000  0.4976580000000  0.4287110000000 1.0
C      1  0.4579130000000  0.5416270000000  0.3525790000000 1.0
C      1  0.5576730000000  0.4274010000000  0.4628040000000 1.0
C      1  0.4995780000000  0.4677880000000  0.5224540000000 1.0
C      1  0.4921510000000  0.4846090000000  0.4752340000000 1.0
C      1  0.4916960000000  0.3985320000000  0.4336110000000 1.0
C      1  0.5725740000000  0.4257340000000  0.5986290000000 1.0
C      1  0.5475750000000  0.5189400000000  0.5971230000000 1.0
C      1  0.4871020000000  0.5173490000000  0.5982870000000 1.0
C      1  0.4096530000000  0.6506830000000  0.4966380000000 1.0
C      1  0.5746130000000  0.5279430000000  0.5947570000000 1.0
C      1  0.4230000000000  0.5039050000000  0.4033060000000 1.0
C      1  0.3843540000000  0.5063040000000  0.4927150000000 1.0
C      1  0.5114590000000  0.5216320000000  0.4138750000000 1.0
C      1  0.5750520000000  0.5647400000000  0.5076860000000 1.0
C      1  0.3994590000000  0.5195360000000  0.4427960000000 1.0
C      1  0.5102510000000  0.5452390000000  0.5233650000000 1.0
C      1  0.4791830000000  0.4073450000000  0.5414170000000 1.0
C      1  0.4833630000000  0.5139640000000  0.6257690000000 1.0
C      1  0.4599790000000  0.4233020000000  0.4820900000000 1.0
C      1  0.4643270000000  0.4840460000000  0.4846640000000 1.0
C      1  0.5726270000000  0.4271650000000  0.4862440000000 1.0
C      1  0.6133200000000  0.5517110000000  0.4059510000000 1.0
C      1  0.5238180000000  0.4067670000000  0.5636960000000 1.0
C      1  0.5781110000000  0.5471070000000  0.5506820000000 1.0
C      1  0.5435600000000  0.3918530000000  0.5141290000000 1.0
C      1  0.4266310000000  0.5195790000000  0.5415000000000 1.0
C      1  0.4948150000000  0.5428660000000  0.4163560000000 1.0
C      1  0.4954700000000  0.4926990000000  0.4475120000000 1.0
C      1  0.5209990000000  0.5510120000000  0.6788500000000 1.0
C      1  0.4227190000000  0.6289510000000  0.5026460000000 1.0
C      1  0.5374120000000  0.5822940000000  0.5488960000000 1.0
C      1  0.5650430000000  0.4664990000000  0.3877460000000 1.0
C      1  0.4589170000000  0.5449710000000  0.5707430000000 1.0
C      1  0.4162600000000  0.5691440000000  0.4745140000000 1.0
C      1  0.4846040000000  0.5577570000000  0.4387460000000 1.0
C      1  0.5603070000000  0.5886770000000  0.5044820000000 1.0
C      1  0.5170100000000  0.3610320000000  0.4755400000000 1.0
C      1  0.5228350000000  0.5067050000000  0.5060270000000 1.0
C      1  0.5174940000000  0.4792660000000  0.5880170000000 1.0
C      1  0.4739830000000  0.4548540000000  0.3854250000000 1.0
C      1  0.4577120000000  0.4414190000000  0.5756310000000 1.0
C      1  0.4715540000000  0.5012520000000  0.5447720000000 1.0
C      1  0.3986100000000  0.4698680000000  0.4242500000000 1.0
C      1  0.5602630000000  0.5645610000000  0.4479310000000 1.0
C      1  0.5251030000000  0.4338060000000  0.4999690000000 1.0
C      1  0.5668670000000  0.6017000000000  0.4802970000000 1.0
C      1  0.5364540000000  0.4801020000000  0.4215860000000 1.0
C      1  0.4797980000000  0.4142230000000  0.4116170000000 1.0
C      1  0.3926050000000  0.5522290000000  0.4778850000000 1.0
C      1  0.3898470000000  0.4982740000000  0.5184090000000 1.0
C      1  0.5956740000000  0.5272620000000  0.4449680000000 1.0
C      1  0.5990110000000  0.5048990000000  0.4020690000000 1.0
C      1  0.5829280000000  0.5149070000000  0.5131850000000 1.0
C      1  0.5270080000000  0.5598390000000  0.7026230000000 1.0
C      1  0.4278010000000  0.5335300000000  0.5170510000000 1.0
C      1  0.5669070000000  0.4801780000000  0.5695640000000 1.0
C      1  0.6221200000000  0.5742800000000  0.3963430000000 1.0
C      1  0.5328460000000  0.5679630000000  0.4419690000000 1.0
C      1  0.4516520000000  0.5203830000000  0.5551490000000 1.0
C      1  0.4050680000000  0.4974870000000  0.4246040000000 1.0
C      1  0.4918620000000  0.4353650000000  0.3958630000000 1.0
C      1  0.5321810000000  0.4262190000000  0.4484010000000 1.0
C      1  0.5382430000000  0.4617650000000  0.3984570000000 1.0
C      1  0.5113350000000  0.4456780000000  0.4471180000000 1.0
C      1  0.6155320000000  0.4723800000000  0.4974280000000 1.0
C      1  0.4831170000000  0.5434040000000  0.5869540000000 1.0
C      1  0.4115280000000  0.4514270000000  0.4727050000000 1.0
C      1  0.4434840000000  0.5000680000000  0.3844970000000 1.0
C      1  0.5104220000000  0.5558370000000  0.5855760000000 1.0
C      1  0.6005920000000  0.4708870000000  0.5214510000000 1.0
C      1  0.5019300000000  0.5017880000000  0.5797170000000 1.0
C      1  0.5615550000000  0.5692980000000  0.5570040000000 1.0
C      1  0.4269270000000  0.4773020000000  0.5839930000000 1.0
C      1  0.5273000000000  0.4048790000000  0.4948940000000 1.0
C      1  0.5753870000000  0.4274870000000  0.5157070000000 1.0
C      1  0.5112030000000  0.5970680000000  0.5041390000000 1.0
C      1  0.5191000000000  0.4420390000000  0.3936520000000 1.0
C      1  0.4637380000000  0.5917660000000  0.5506900000000 1.0
C      1  0.5806000000000  0.5419390000000  0.5225870000000 1.0
C      1  0.4578660000000  0.4759490000000  0.3833690000000 1.0
C      1  0.4482760000000  0.5716500000000  0.5650520000000 1.0
C      1  0.5723810000000  0.5884440000000  0.4572770000000 1.0
C      1  0.5146260000000  0.5416080000000  0.6535190000000 1.0
C      1  0.6029460000000  0.5284940000000  0.4172390000000 1.0
C      1  0.4142510000000  0.4753530000000  0.5582410000000 1.0
C      1  0.5448830000000  0.4900210000000  0.5873320000000 1.0
C      1  0.5094130000000  0.4412710000000  0.5230500000000 1.0
C      1  0.4593240000000  0.4414840000000  0.4599040000000 1.0
C      1  0.4933860000000  0.5237530000000  0.6486370000000 1.0
C      1  0.4488730000000  0.5067500000000  0.4773890000000 1.0
C      1  0.5144620000000  0.5182460000000  0.5312810000000 1.0
C      1  0.3889550000000  0.5240270000000  0.4703500000000 1.0
C      1  0.5706960000000  0.5384450000000  0.4546690000000 1.0
C      1  0.4728850000000  0.4773720000000  0.5290500000000 1.0
C      1  0.5361030000000  0.5926310000000  0.5204280000000 1.0
C      1  0.5288190000000  0.5490370000000  0.6303520000000 1.0
C      1  0.4508810000000  0.4147030000000  0.4102310000000 1.0
C      1  0.4077270000000  0.4978800000000  0.5414330000000 1.0
C      1  0.4898650000000  0.5790650000000  0.5502730000000 1.0
C      1  0.5297110000000  0.5417120000000  0.6028750000000 1.0
C      1  0.5055250000000  0.5741580000000  0.4828890000000 1.0
C      1  0.5175810000000  0.4010960000000  0.4474120000000 1.0
C      1  0.5193640000000  0.5507040000000  0.4964020000000 1.0
C      1  0.4031050000000  0.4429910000000  0.5228500000000 1.0
C      1  0.4579510000000  0.5489020000000  0.4488310000000 1.0
C      1  0.5312240000000  0.5271420000000  0.4863270000000 1.0
C      1  0.5198200000000  0.3880940000000  0.4728070000000 1.0
C      1  0.5849110000000  0.5265020000000  0.5688150000000 1.0
C      1  0.4337520000000  0.4528630000000  0.4575470000000 1.0
C      1  0.4082370000000  0.4459820000000  0.4157720000000 1.0
C      1  0.5636530000000  0.4860640000000  0.4281050000000 1.0
C      1  0.4763800000000  0.5690640000000  0.4874600000000 1.0
C      1  0.4620220000000  0.3963800000000  0.4743200000000 1.0
C      1  0.4871220000000  0.6114940000000  0.5126740000000 1.0
C      1  0.4738270000000  0.4678350000000  0.6085190000000 1.0
C      1  0.4495180000000  0.4630670000000  0.5933970000000 1.0
C      1  0.4987240000000  0.4580070000000  0.5947790000000 1.0
C      1  0.4661090000000  0.5623550000000  0.3390600000000 1.0
C      1  0.6115190000000  0.5099560000000  0.4611630000000 1.0
C      1  0.5809170000000  0.4839220000000  0.4048280000000 1.0
C      1  0.4721990000000  0.3866250000000  0.4511480000000 1.0
C      1  0.4567970000000  0.5203300000000  0.4539210000000 1.0
C      1  0.5653970000000  0.4303690000000  0.5727720000000 1.0
C      1  0.4392790000000  0.5586080000000  0.5140460000000 1.0
C      1  0.5137560000000  0.5761640000000  0.5649610000000 1.0
C      1  0.4670290000000  0.5593040000000  0.5119300000000 1.0
C      1  0.4269180000000  0.4271030000000  0.4109680000000 1.0
C      1  0.5931780000000  0.4962570000000  0.5318640000000 1.0
C      1  0.5848270000000  0.5000590000000  0.5584830000000 1.0
C      1  0.4306250000000  0.5171880000000  0.4947720000000 1.0
C      1  0.4710290000000  0.5031380000000  0.4372020000000 1.0
C      1  0.5844820000000  0.4497150000000  0.5318060000000 1.0
C      1  0.4581200000000  0.4663530000000  0.5069080000000 1.0
C      1  0.4126230000000  0.5443930000000  0.4340910000000 1.0
C      1  0.5723430000000  0.4539360000000  0.5586160000000 1.0
C      1  0.5507520000000  0.4118830000000  0.5571390000000 1.0
C      1  0.5349200000000  0.4612100000000  0.4910220000000 1.0
C      1  0.4872980000000  0.5583970000000  0.5309640000000 1.0
C      1  0.4572680000000  0.4367850000000  0.5067540000000 1.0
C      1  0.4609240000000  0.6066730000000  0.5254040000000 1.0
C      1  0.4366830000000  0.6055860000000  0.5087340000000 1.0
C      1  0.4179850000000  0.4496100000000  0.5457570000000 1.0
C      1  0.4970680000000  0.4150000000000  0.5625070000000 1.0
C      1  0.5562950000000  0.5230500000000  0.4741520000000 1.0
C      1  0.5068480000000  0.5707050000000  0.4530010000000 1.0
C      1  0.5697180000000  0.5034070000000  0.4901810000000 1.0
C      1  0.6187240000000  0.4889870000000  0.4763810000000 1.0
C      1  0.4421790000000  0.4354520000000  0.5524530000000 1.0
C      1  0.4574130000000  0.4230360000000  0.5316920000000 1.0
C      1  0.4985930000000  0.5077290000000  0.5523640000000 1.0
C      1  0.4006200000000  0.4453610000000  0.4963370000000 1.0
C      1  0.4276030000000  0.5797720000000  0.4989140000000 1.0
C      1  0.4843480000000  0.4472040000000  0.4484870000000 1.0
C      1  0.4869950000000  0.4365330000000  0.5781540000000 1.0
C      1  0.4310020000000  0.5600860000000  0.4503720000000 1.0
C      1  0.4500730000000  0.5208270000000  0.3669930000000 1.0
C      1  0.5593190000000  0.4764590000000  0.4880160000000 1.0
C      1  0.5602470000000  0.4073660000000  0.5304700000000 1.0
C      1  0.5120950000000  0.4809280000000  0.4974410000000 1.0
END
