TITL C-247198-3593-183 6.71866310862673 125000 -1094.81277264075 0 0 177 (C1) n - 1
REM
REM in /home/nfs/bkarasulu/CARBON/AIRSS/Generating-Clusters/LCBOP/Only-C1/SD-CG/FIRE-HFTN
REM
REM
REM
REM
REM
REM ./C.cell (11c1c37f851c82e70ff6c80c92926a4b)
REM AIRSS Version 0.9.1 bugfix July 2018 build 013d7b7c2542+ Fri, 06 Jul 2018 19:26:36 +0100
REM compiler GCC version 9.2.1 20190827 (Red Hat 9.2.1-1)
REM options -cpp -mtune=generic -march=x86-64 -g -O0 -fpre-include=/usr/include/finclude/math-vector-fortran.h
REM seed -11577977 242267004 -1523024101 -1441510735 78019948 574676130 935391766 1126337941 -240591504 1566061918 -2147076944 17063175 -695638278 -1507971343 229398716 847710162 -768366554 1353744244 -725234331 1435720696 -492319065 -1496852179 -2092612736 -156563664 1103826889 -1822675898 1855612115 341830743 46441757 1413933220 -859395458 1558909499 -803183043
REM
CELL 1.54180   50.00000   50.00000   50.00000   90.00000   90.00000   90.00000
LATT -1
SFAC C  
C      1  0.5270130000000  0.5707470000000  0.5163460000000 1.0
C      1  0.4295370000000  0.4295230000000  0.4564840000000 1.0
C      1  0.4699340000000  0.4687370000000  0.6064610000000 1.0
C      1  0.5947110000000  0.4764210000000  0.4257470000000 1.0
C      1  0.5007070000000  0.6179550000000  0.5306640000000 1.0
C      1  0.5898360000000  0.5703470000000  0.4662590000000 1.0
C      1  0.4152020000000  0.5666960000000  0.4972460000000 1.0
C      1  0.5121590000000  0.5575670000000  0.4020950000000 1.0
C      1  0.6038270000000  0.5303060000000  0.5278740000000 1.0
C      1  0.5263580000000  0.4297470000000  0.5571260000000 1.0
C      1  0.3892940000000  0.4657170000000  0.5378100000000 1.0
C      1  0.4826290000000  0.5823530000000  0.4746140000000 1.0
C      1  0.5009300000000  0.5969220000000  0.5499070000000 1.0
C      1  0.4660720000000  0.4702980000000  0.4211990000000 1.0
C      1  0.5067520000000  0.5396280000000  0.4844010000000 1.0
C      1  0.5003630000000  0.4288460000000  0.4226080000000 1.0
C      1  0.5757000000000  0.5730990000000  0.5143940000000 1.0
C      1  0.5363690000000  0.3939460000000  0.4464740000000 1.0
C      1  0.4476210000000  0.5650900000000  0.4477590000000 1.0
C      1  0.4152190000000  0.4528250000000  0.4979360000000 1.0
C      1  0.4809760000000  0.4897890000000  0.4075030000000 1.0
C      1  0.4844530000000  0.4885500000000  0.4601300000000 1.0
C      1  0.4590120000000  0.3904540000000  0.5419720000000 1.0
C      1  0.4636860000000  0.5066250000000  0.5281120000000 1.0
C      1  0.5323640000000  0.5914970000000  0.4669370000000 1.0
C      1  0.4402530000000  0.5216920000000  0.5834760000000 1.0
C      1  0.4122360000000  0.4645170000000  0.5543210000000 1.0
C      1  0.6180510000000  0.4374230000000  0.5591270000000 1.0
C      1  0.5846640000000  0.4793880000000  0.4738990000000 1.0
C      1  0.4765760000000  0.5095920000000  0.3671670000000 1.0
C      1  0.5220310000000  0.5015090000000  0.5530350000000 1.0
C      1  0.5830490000000  0.4285050000000  0.4604760000000 1.0
C      1  0.5716560000000  0.4258900000000  0.4339940000000 1.0
C      1  0.5766920000000  0.5859760000000  0.4866710000000 1.0
C      1  0.4310300000000  0.3873530000000  0.5407340000000 1.0
C      1  0.4317640000000  0.4295700000000  0.5839770000000 1.0
C      1  0.5991970000000  0.5524510000000  0.5108520000000 1.0
C      1  0.4595630000000  0.4846950000000  0.5462310000000 1.0
C      1  0.3686450000000  0.5276220000000  0.5795740000000 1.0
C      1  0.4436570000000  0.6312280000000  0.4561320000000 1.0
C      1  0.4088530000000  0.5502090000000  0.5195260000000 1.0
C      1  0.4270390000000  0.5376770000000  0.5377490000000 1.0
C      1  0.4938990000000  0.5128540000000  0.4208890000000 1.0
C      1  0.4811030000000  0.3750630000000  0.4931970000000 1.0
C      1  0.4702990000000  0.6277330000000  0.4582230000000 1.0
C      1  0.5189580000000  0.5208590000000  0.4676030000000 1.0
C      1  0.4882090000000  0.6087490000000  0.4656530000000 1.0
C      1  0.4928920000000  0.5362110000000  0.4040290000000 1.0
C      1  0.5497520000000  0.5067840000000  0.5384590000000 1.0
C      1  0.5085730000000  0.4243770000000  0.5357510000000 1.0
C      1  0.4532250000000  0.6028260000000  0.5130110000000 1.0
C      1  0.4385450000000  0.4530120000000  0.5152170000000 1.0
C      1  0.4052520000000  0.3867080000000  0.5369620000000 1.0
C      1  0.4572180000000  0.4055250000000  0.4262170000000 1.0
C      1  0.3940570000000  0.5302640000000  0.5725970000000 1.0
C      1  0.4475620000000  0.5719730000000  0.3974660000000 1.0
C      1  0.5199780000000  0.4133440000000  0.5123630000000 1.0
C      1  0.5302380000000  0.4556540000000  0.3915260000000 1.0
C      1  0.5560650000000  0.5413550000000  0.5932290000000 1.0
C      1  0.4382570000000  0.4282220000000  0.4285340000000 1.0
C      1  0.4478050000000  0.5164490000000  0.4689160000000 1.0
C      1  0.5825320000000  0.5314000000000  0.4400570000000 1.0
C      1  0.5011880000000  0.5492170000000  0.5522530000000 1.0
C      1  0.3980120000000  0.4657070000000  0.4548070000000 1.0
C      1  0.5395070000000  0.4601600000000  0.4623070000000 1.0
C      1  0.4773570000000  0.4977830000000  0.5052940000000 1.0
C      1  0.5273530000000  0.4750820000000  0.5061960000000 1.0
C      1  0.4812740000000  0.4720040000000  0.5611790000000 1.0
C      1  0.4540860000000  0.5793580000000  0.4706050000000 1.0
C      1  0.5271310000000  0.5677460000000  0.6224390000000 1.0
C      1  0.4031750000000  0.5995160000000  0.4636610000000 1.0
C      1  0.5131910000000  0.5903690000000  0.6209580000000 1.0
C      1  0.5554710000000  0.3870570000000  0.4677780000000 1.0
C      1  0.5283430000000  0.4560320000000  0.5674450000000 1.0
C      1  0.4475530000000  0.5790180000000  0.4234020000000 1.0
C      1  0.4367510000000  0.4684480000000  0.5397830000000 1.0
C      1  0.5481420000000  0.5043980000000  0.3942060000000 1.0
C      1  0.4483820000000  0.4129940000000  0.4706980000000 1.0
C      1  0.5093210000000  0.5722610000000  0.5391180000000 1.0
C      1  0.6213060000000  0.4864900000000  0.5436150000000 1.0
C      1  0.4532560000000  0.5332110000000  0.5268090000000 1.0
C      1  0.4054660000000  0.5404560000000  0.4260730000000 1.0
C      1  0.5791180000000  0.5595060000000  0.4412770000000 1.0
C      1  0.4454350000000  0.5442940000000  0.3912280000000 1.0
C      1  0.5582360000000  0.5177630000000  0.4428970000000 1.0
C      1  0.4719690000000  0.4962230000000  0.6133250000000 1.0
C      1  0.4636430000000  0.5539990000000  0.5093030000000 1.0
C      1  0.3909660000000  0.4590950000000  0.5115770000000 1.0
C      1  0.4735250000000  0.3803360000000  0.5189650000000 1.0
C      1  0.5280520000000  0.6262130000000  0.5263070000000 1.0
C      1  0.4436910000000  0.5768120000000  0.4991690000000 1.0
C      1  0.4880770000000  0.3892310000000  0.5809630000000 1.0
C      1  0.6005390000000  0.5052360000000  0.5407670000000 1.0
C      1  0.5633330000000  0.4976110000000  0.4862340000000 1.0
C      1  0.4208970000000  0.5300820000000  0.5645460000000 1.0
C      1  0.5078630000000  0.4662640000000  0.3764010000000 1.0
C      1  0.5882540000000  0.4507230000000  0.4786910000000 1.0
C      1  0.5267350000000  0.5861700000000  0.4925940000000 1.0
C      1  0.4142140000000  0.4492050000000  0.4696080000000 1.0
C      1  0.5469710000000  0.5139170000000  0.4681530000000 1.0
C      1  0.4610810000000  0.3933720000000  0.4527930000000 1.0
C      1  0.5513550000000  0.4644990000000  0.4393450000000 1.0
C      1  0.5723370000000  0.4838270000000  0.5769390000000 1.0
C      1  0.4709200000000  0.5324160000000  0.3841460000000 1.0
C      1  0.4874690000000  0.5586370000000  0.4915900000000 1.0
C      1  0.5508520000000  0.5320960000000  0.3859740000000 1.0
C      1  0.4930590000000  0.4409970000000  0.4478330000000 1.0
C      1  0.4825970000000  0.4346320000000  0.5309530000000 1.0
C      1  0.5396780000000  0.5863130000000  0.4417330000000 1.0
C      1  0.5099810000000  0.4764570000000  0.5598490000000 1.0
C      1  0.5324810000000  0.5436940000000  0.6091750000000 1.0
C      1  0.4674530000000  0.4265240000000  0.4865210000000 1.0
C      1  0.4132650000000  0.4476770000000  0.5767150000000 1.0
C      1  0.4879290000000  0.4862100000000  0.3798520000000 1.0
C      1  0.4991820000000  0.6032770000000  0.6023430000000 1.0
C      1  0.5760960000000  0.5244370000000  0.6036430000000 1.0
C      1  0.6199370000000  0.5314580000000  0.4690840000000 1.0
C      1  0.5308540000000  0.4539450000000  0.4878090000000 1.0
C      1  0.4378210000000  0.5250220000000  0.6310570000000 1.0
C      1  0.5817000000000  0.4985940000000  0.5989060000000 1.0
C      1  0.5683560000000  0.5790960000000  0.5622200000000 1.0
C      1  0.5999410000000  0.4892280000000  0.4508760000000 1.0
C      1  0.2928080000000  0.5170110000000  0.5992930000000 1.0
C      1  0.4725040000000  0.4541600000000  0.5822490000000 1.0
C      1  0.5320780000000  0.3882900000000  0.5106740000000 1.0
C      1  0.6266050000000  0.4615200000000  0.5515230000000 1.0
C      1  0.4190740000000  0.6205790000000  0.4584130000000 1.0
C      1  0.4960270000000  0.5054550000000  0.6258230000000 1.0
C      1  0.5066210000000  0.5241490000000  0.5582350000000 1.0
C      1  0.6050380000000  0.5170440000000  0.4501110000000 1.0
C      1  0.4749140000000  0.6188180000000  0.5181800000000 1.0
C      1  0.4942960000000  0.6025130000000  0.5762610000000 1.0
C      1  0.5455580000000  0.4154990000000  0.4272530000000 1.0
C      1  0.5096960000000  0.3835460000000  0.4512920000000 1.0
C      1  0.5527320000000  0.4750520000000  0.3940380000000 1.0
C      1  0.5979010000000  0.4438690000000  0.5036260000000 1.0
C      1  0.5752420000000  0.4968570000000  0.5516890000000 1.0
C      1  0.4024350000000  0.5719370000000  0.4713250000000 1.0
C      1  0.5431140000000  0.5085330000000  0.4220230000000 1.0
C      1  0.3178100000000  0.5205450000000  0.5928080000000 1.0
C      1  0.5992860000000  0.4190150000000  0.5635420000000 1.0
C      1  0.4809980000000  0.4111750000000  0.4119230000000 1.0
C      1  0.4794290000000  0.4654040000000  0.4457300000000 1.0
C      1  0.5743410000000  0.4096870000000  0.5646670000000 1.0
C      1  0.5478560000000  0.4124590000000  0.5628820000000 1.0
C      1  0.5524970000000  0.4642650000000  0.5793840000000 1.0
C      1  0.5686920000000  0.4691570000000  0.4174340000000 1.0
C      1  0.4669630000000  0.4989490000000  0.4793980000000 1.0
C      1  0.3986610000000  0.5528680000000  0.4496410000000 1.0
C      1  0.4929860000000  0.4300110000000  0.4741030000000 1.0
C      1  0.5493630000000  0.4927860000000  0.5109820000000 1.0
C      1  0.4501510000000  0.5143130000000  0.6089230000000 1.0
C      1  0.5013600000000  0.5082970000000  0.4482850000000 1.0
C      1  0.4594570000000  0.4283690000000  0.5777940000000 1.0
C      1  0.4221370000000  0.5337220000000  0.4051380000000 1.0
C      1  0.5791650000000  0.4022800000000  0.4713000000000 1.0
C      1  0.4693820000000  0.4033020000000  0.5663000000000 1.0
C      1  0.5706250000000  0.5934800000000  0.5370990000000 1.0
C      1  0.4622350000000  0.4379550000000  0.5115430000000 1.0
C      1  0.5453450000000  0.3753540000000  0.4913020000000 1.0
C      1  0.3432300000000  0.5241370000000  0.5862130000000 1.0
C      1  0.5592130000000  0.5520490000000  0.5668620000000 1.0
C      1  0.4460060000000  0.5373090000000  0.4522650000000 1.0
C      1  0.5162970000000  0.4301080000000  0.4899450000000 1.0
C      1  0.5510420000000  0.5554880000000  0.5194840000000 1.0
C      1  0.5531130000000  0.6160030000000  0.5314370000000 1.0
C      1  0.5531320000000  0.5376490000000  0.5417940000000 1.0
C      1  0.5552580000000  0.5681790000000  0.4263080000000 1.0
C      1  0.5015940000000  0.4848010000000  0.5094640000000 1.0
C      1  0.5267140000000  0.4323750000000  0.4114430000000 1.0
C      1  0.5012380000000  0.4975150000000  0.6515860000000 1.0
C      1  0.5144130000000  0.5223930000000  0.6129170000000 1.0
C      1  0.5412280000000  0.5539050000000  0.4036020000000 1.0
C      1  0.4841540000000  0.3805870000000  0.4647090000000 1.0
C      1  0.4448770000000  0.4526110000000  0.4154110000000 1.0
C      1  0.5031940000000  0.5830710000000  0.3967560000000 1.0
C      1  0.6076870000000  0.5528510000000  0.4827320000000 1.0
END
