TITL C-247195-3186-356 7840.98715211038 125000 -1003.97792120693 0 0 163 (C1) n - 1
REM
REM in /home/nfs/bkarasulu/CARBON/AIRSS/Generating-Clusters/LCBOP/Only-C1/SD-CG/FIRE-HFTN
REM
REM
REM
REM
REM
REM ./C.cell (11c1c37f851c82e70ff6c80c92926a4b)
REM AIRSS Version 0.9.1 bugfix July 2018 build 013d7b7c2542+ Fri, 06 Jul 2018 19:26:36 +0100
REM compiler GCC version 9.2.1 20190827 (Red Hat 9.2.1-1)
REM options -cpp -mtune=generic -march=x86-64 -g -O0 -fpre-include=/usr/include/finclude/math-vector-fortran.h
REM seed -950076070 2122201328 22041607 -1805157526 -704113636 -1797472861 79774091 1808796024 101991666 1611083875 1472306103 -1516961363 -1898593415 -1080321181 216953861 1557262802 -1181328958 -1746876716 -1157886319 1642755824 1698985523 1932755192 -1620927071 423716590 968323374 243263958 -864650429 -782390113 -269314835 -717821564 1386361829 -1763325504 1788376782
REM
CELL 1.54180   50.00000   50.00000   50.00000   90.00000   90.00000   90.00000
LATT -1
SFAC C  
C      1  0.4518880000000  0.6361660000000  0.5113160000000 1.0
C      1  0.4691400000000  0.4841950000000  0.4308540000000 1.0
C      1  0.6209920000000  0.5108220000000  0.5335450000000 1.0
C      1  0.4667560000000  0.4705490000000  0.6043580000000 1.0
C      1  0.4677740000000  0.4008510000000  0.4888440000000 1.0
C      1  0.4942570000000  0.5365640000000  0.6135800000000 1.0
C      1  0.3806930000000  0.4424160000000  0.3591450000000 1.0
C      1  0.4963030000000  0.6158600000000  0.5504560000000 1.0
C      1  0.3845280000000  0.4604940000000  0.5109630000000 1.0
C      1  0.5555030000000  0.5333660000000  0.5270420000000 1.0
C      1  0.3944360000000  0.5843430000000  0.4843550000000 1.0
C      1  0.4540200000000  0.5625130000000  0.5004550000000 1.0
C      1  0.6131910000000  0.5376650000000  0.5312330000000 1.0
C      1  0.4042360000000  0.4953900000000  0.5546190000000 1.0
C      1  0.5542530000000  0.5774280000000  0.4551710000000 1.0
C      1  0.4055940000000  0.4407650000000  0.5119720000000 1.0
C      1  0.4439350000000  0.4132450000000  0.5385130000000 1.0
C      1  0.5944510000000  0.3985300000000  0.4573400000000 1.0
C      1  0.4315850000000  0.4552900000000  0.4666010000000 1.0
C      1  0.4563850000000  0.4443150000000  0.4568550000000 1.0
C      1  0.3991070000000  0.5391920000000  0.5380200000000 1.0
C      1  0.4498610000000  0.6104580000000  0.5007800000000 1.0
C      1  0.4988880000000  0.3915680000000  0.5786000000000 1.0
C      1  0.5080610000000  0.4517700000000  0.4822810000000 1.0
C      1  0.6219240000000  0.4596180000000  0.4600040000000 1.0
C      1  0.5980130000000  0.5554880000000  0.4549060000000 1.0
C      1  0.4920860000000  0.5958150000000  0.4180120000000 1.0
C      1  0.4262860000000  0.4609630000000  0.3776170000000 1.0
C      1  0.4951890000000  0.5743930000000  0.5760100000000 1.0
C      1  0.4470390000000  0.4728390000000  0.6237590000000 1.0
C      1  0.4995390000000  0.5548960000000  0.5329580000000 1.0
C      1  0.4146680000000  0.4784340000000  0.5750770000000 1.0
C      1  0.4652330000000  0.6493860000000  0.5303440000000 1.0
C      1  0.5913610000000  0.5601560000000  0.5720450000000 1.0
C      1  0.5708500000000  0.5547400000000  0.5165600000000 1.0
C      1  0.5925390000000  0.5394030000000  0.4311410000000 1.0
C      1  0.5334980000000  0.4978400000000  0.4402850000000 1.0
C      1  0.5137780000000  0.3910900000000  0.4974100000000 1.0
C      1  0.5425040000000  0.5995950000000  0.5259980000000 1.0
C      1  0.4549290000000  0.5868630000000  0.5157090000000 1.0
C      1  0.4920130000000  0.3645130000000  0.4645000000000 1.0
C      1  0.5807660000000  0.3793440000000  0.4450340000000 1.0
C      1  0.5100090000000  0.3545590000000  0.4474630000000 1.0
C      1  0.6106700000000  0.5523460000000  0.5552590000000 1.0
C      1  0.5140080000000  0.5629330000000  0.5569630000000 1.0
C      1  0.4766150000000  0.4619440000000  0.4466870000000 1.0
C      1  0.4615100000000  0.5964320000000  0.4556510000000 1.0
C      1  0.4399240000000  0.4677000000000  0.5660240000000 1.0
C      1  0.5125200000000  0.4931200000000  0.4584370000000 1.0
C      1  0.5834760000000  0.5532990000000  0.4078870000000 1.0
C      1  0.4853740000000  0.4876790000000  0.5600030000000 1.0
C      1  0.4803710000000  0.5937480000000  0.5602330000000 1.0
C      1  0.4609580000000  0.4175380000000  0.5623820000000 1.0
C      1  0.5522750000000  0.4244090000000  0.5800950000000 1.0
C      1  0.5404480000000  0.5099650000000  0.5317790000000 1.0
C      1  0.4543240000000  0.5309780000000  0.4307970000000 1.0
C      1  0.4744710000000  0.5703520000000  0.4583890000000 1.0
C      1  0.4529600000000  0.5537210000000  0.5483830000000 1.0
C      1  0.5725940000000  0.4813930000000  0.5560330000000 1.0
C      1  0.5314170000000  0.4850350000000  0.5942860000000 1.0
C      1  0.5546580000000  0.4859570000000  0.5350020000000 1.0
C      1  0.4991610000000  0.5120280000000  0.4762130000000 1.0
C      1  0.3958560000000  0.5498620000000  0.3904090000000 1.0
C      1  0.4199360000000  0.5422100000000  0.4756710000000 1.0
C      1  0.6135760000000  0.4596420000000  0.5460230000000 1.0
C      1  0.5824930000000  0.5796130000000  0.4545850000000 1.0
C      1  0.5081230000000  0.5240770000000  0.5000100000000 1.0
C      1  0.4164680000000  0.4229910000000  0.5328800000000 1.0
C      1  0.5350800000000  0.3549970000000  0.4384630000000 1.0
C      1  0.6058270000000  0.5478760000000  0.4813710000000 1.0
C      1  0.5399720000000  0.5596490000000  0.5665940000000 1.0
C      1  0.5104490000000  0.4853510000000  0.6134660000000 1.0
C      1  0.5147540000000  0.4917830000000  0.3740590000000 1.0
C      1  0.5380900000000  0.5955670000000  0.4415350000000 1.0
C      1  0.4133700000000  0.4734580000000  0.4527810000000 1.0
C      1  0.4372250000000  0.5054530000000  0.5120060000000 1.0
C      1  0.3892210000000  0.5186800000000  0.5546530000000 1.0
C      1  0.5671530000000  0.3892150000000  0.5510540000000 1.0
C      1  0.6302030000000  0.4438190000000  0.5031690000000 1.0
C      1  0.4900200000000  0.3837210000000  0.4847840000000 1.0
C      1  0.5769970000000  0.4382290000000  0.5755600000000 1.0
C      1  0.6207200000000  0.4833310000000  0.5294220000000 1.0
C      1  0.5057710000000  0.4546880000000  0.5313370000000 1.0
C      1  0.4697400000000  0.4820440000000  0.4025830000000 1.0
C      1  0.4708710000000  0.6089640000000  0.4319720000000 1.0
C      1  0.5545650000000  0.4667230000000  0.5145520000000 1.0
C      1  0.4699380000000  0.4710930000000  0.5033840000000 1.0
C      1  0.3902250000000  0.5376770000000  0.5107460000000 1.0
C      1  0.4567150000000  0.4027390000000  0.5149590000000 1.0
C      1  0.6242160000000  0.4371670000000  0.5306590000000 1.0
C      1  0.5277830000000  0.4657920000000  0.5739890000000 1.0
C      1  0.3697770000000  0.5948980000000  0.4894190000000 1.0
C      1  0.6120040000000  0.4803780000000  0.4779800000000 1.0
C      1  0.5339720000000  0.5533290000000  0.3912680000000 1.0
C      1  0.4230990000000  0.4918690000000  0.5322880000000 1.0
C      1  0.4766330000000  0.5375190000000  0.5434410000000 1.0
C      1  0.5366490000000  0.4041890000000  0.4982940000000 1.0
C      1  0.4417490000000  0.6053490000000  0.4738360000000 1.0
C      1  0.4912430000000  0.5593760000000  0.5995300000000 1.0
C      1  0.5369170000000  0.4926350000000  0.3603590000000 1.0
C      1  0.5544200000000  0.5284460000000  0.4743980000000 1.0
C      1  0.4950670000000  0.4583850000000  0.5060420000000 1.0
C      1  0.5069660000000  0.4691350000000  0.5551430000000 1.0
C      1  0.4931750000000  0.5658690000000  0.4802000000000 1.0
C      1  0.4685690000000  0.5141140000000  0.4740870000000 1.0
C      1  0.5126280000000  0.5108260000000  0.5252060000000 1.0
C      1  0.4194550000000  0.4948680000000  0.4338760000000 1.0
C      1  0.4143630000000  0.5993940000000  0.4710710000000 1.0
C      1  0.4840200000000  0.6409300000000  0.5474980000000 1.0
C      1  0.4890710000000  0.5112500000000  0.5440030000000 1.0
C      1  0.5599540000000  0.5808240000000  0.5178730000000 1.0
C      1  0.5897150000000  0.4595450000000  0.5616560000000 1.0
C      1  0.4843360000000  0.4162120000000  0.5804020000000 1.0
C      1  0.5458170000000  0.5523810000000  0.4654790000000 1.0
C      1  0.5604430000000  0.5558050000000  0.3942510000000 1.0
C      1  0.5494700000000  0.3973430000000  0.5712280000000 1.0
C      1  0.4481780000000  0.4566130000000  0.5135810000000 1.0
C      1  0.5216250000000  0.6111610000000  0.5383580000000 1.0
C      1  0.5836440000000  0.4822050000000  0.4806540000000 1.0
C      1  0.4276180000000  0.4488260000000  0.4946780000000 1.0
C      1  0.5027360000000  0.5523470000000  0.5037940000000 1.0
C      1  0.4047960000000  0.5185460000000  0.4719560000000 1.0
C      1  0.6223880000000  0.4352420000000  0.4762500000000 1.0
C      1  0.5764980000000  0.4309910000000  0.4895410000000 1.0
C      1  0.4295550000000  0.4754820000000  0.6429030000000 1.0
C      1  0.4480730000000  0.4710690000000  0.3887840000000 1.0
C      1  0.5626050000000  0.4115100000000  0.5049050000000 1.0
C      1  0.4621290000000  0.4187210000000  0.4675890000000 1.0
C      1  0.5691840000000  0.5064720000000  0.4793090000000 1.0
C      1  0.5706780000000  0.4591570000000  0.4927670000000 1.0
C      1  0.5247490000000  0.3846950000000  0.5758840000000 1.0
C      1  0.4926490000000  0.4896110000000  0.3885050000000 1.0
C      1  0.4277510000000  0.5210260000000  0.4229330000000 1.0
C      1  0.5649630000000  0.5617160000000  0.5755460000000 1.0
C      1  0.6259680000000  0.4738760000000  0.5028340000000 1.0
C      1  0.4383210000000  0.4672680000000  0.5376680000000 1.0
C      1  0.5600720000000  0.3641220000000  0.4381620000000 1.0
C      1  0.4251730000000  0.5482370000000  0.5458130000000 1.0
C      1  0.3875480000000  0.4744690000000  0.4653710000000 1.0
C      1  0.5983260000000  0.4205120000000  0.4740490000000 1.0
C      1  0.5007700000000  0.5112590000000  0.6202060000000 1.0
C      1  0.3821110000000  0.4828370000000  0.4926970000000 1.0
C      1  0.4637720000000  0.4774940000000  0.5769770000000 1.0
C      1  0.4033840000000  0.4515670000000  0.3681460000000 1.0
C      1  0.5739390000000  0.3980190000000  0.5267290000000 1.0
C      1  0.4596020000000  0.4968120000000  0.4962130000000 1.0
C      1  0.5584800000000  0.5005620000000  0.4309640000000 1.0
C      1  0.5020280000000  0.4661400000000  0.4591430000000 1.0
C      1  0.4713750000000  0.5546120000000  0.4330900000000 1.0
C      1  0.4929390000000  0.4615810000000  0.6101860000000 1.0
C      1  0.5080000000000  0.5546690000000  0.3976490000000 1.0
C      1  0.5823880000000  0.5129780000000  0.4316590000000 1.0
C      1  0.4647840000000  0.5085740000000  0.4450900000000 1.0
C      1  0.4471790000000  0.5425120000000  0.4820860000000 1.0
C      1  0.5979560000000  0.5476940000000  0.5088620000000 1.0
C      1  0.3879210000000  0.5114240000000  0.4951820000000 1.0
C      1  0.4879420000000  0.5672820000000  0.4127930000000 1.0
C      1  0.4595610000000  0.5822460000000  0.5436910000000 1.0
C      1  0.5284200000000  0.4391050000000  0.5846810000000 1.0
C      1  0.4011870000000  0.5580990000000  0.4921070000000 1.0
C      1  0.5007600000000  0.4365630000000  0.5953280000000 1.0
C      1  0.5184000000000  0.6030140000000  0.4251190000000 1.0
C      1  0.4112140000000  0.5355340000000  0.4058310000000 1.0
END
