TITL C-247197-3123-622 -4.97230371497984e-07 125000 -1189.35942988059 0 0 192 (C1) n - 1
REM
REM in /home/nfs/bkarasulu/CARBON/AIRSS/Generating-Clusters/LCBOP/Only-C1/SD-CG/FIRE-HFTN
REM
REM
REM
REM
REM
REM ./C.cell (11c1c37f851c82e70ff6c80c92926a4b)
REM AIRSS Version 0.9.1 bugfix July 2018 build 013d7b7c2542+ Fri, 06 Jul 2018 19:26:36 +0100
REM compiler GCC version 9.2.1 20190827 (Red Hat 9.2.1-1)
REM options -cpp -mtune=generic -march=x86-64 -g -O0 -fpre-include=/usr/include/finclude/math-vector-fortran.h
REM seed 1934552193 756443780 -2113875364 -1792207586 -270462904 963040863 1103562141 1063403378 494399995 -420010695 696017797 -979044145 -1292277142 -807035621 655288058 -1675690624 -1079104332 536995925 1985672940 665474208 1304382763 -1829908846 1126157995 1427779292 642629795 1582276048 472969275 -1351637698 -1464193431 927915121 -276690525 -70480707 1485261694
REM
CELL 1.54180   50.00000   50.00000   50.00000   90.00000   90.00000   90.00000
LATT -1
SFAC C  
C      1  0.4997480000000  0.5174720000000  0.3878820000000 1.0
C      1  0.4317210000000  0.5388080000000  0.4318320000000 1.0
C      1  0.5550070000000  0.4635550000000  0.5032210000000 1.0
C      1  0.4895200000000  0.3870400000000  0.4522450000000 1.0
C      1  0.4928270000000  0.4064140000000  0.4317580000000 1.0
C      1  0.6046190000000  0.4532950000000  0.4543690000000 1.0
C      1  0.5836430000000  0.5750530000000  0.5451400000000 1.0
C      1  0.4600740000000  0.5015290000000  0.6276590000000 1.0
C      1  0.5474680000000  0.4768030000000  0.5285060000000 1.0
C      1  0.5921950000000  0.4562640000000  0.5790880000000 1.0
C      1  0.4181890000000  0.5889530000000  0.4328190000000 1.0
C      1  0.4201200000000  0.6124940000000  0.4452640000000 1.0
C      1  0.4031730000000  0.5475050000000  0.5441440000000 1.0
C      1  0.5072080000000  0.5019940000000  0.6119010000000 1.0
C      1  0.6077520000000  0.5099090000000  0.4057760000000 1.0
C      1  0.4434230000000  0.4705100000000  0.4692710000000 1.0
C      1  0.3734250000000  0.4382180000000  0.5032160000000 1.0
C      1  0.5885510000000  0.4285190000000  0.4577130000000 1.0
C      1  0.5906530000000  0.5870610000000  0.4689130000000 1.0
C      1  0.5566570000000  0.5071650000000  0.6196000000000 1.0
C      1  0.4754030000000  0.5050860000000  0.4289370000000 1.0
C      1  0.5819950000000  0.4696450000000  0.4147490000000 1.0
C      1  0.5012850000000  0.5730310000000  0.5893090000000 1.0
C      1  0.5153900000000  0.5672220000000  0.6127460000000 1.0
C      1  0.5152300000000  0.4726630000000  0.5670830000000 1.0
C      1  0.4012970000000  0.5352020000000  0.5704720000000 1.0
C      1  0.5715800000000  0.5717240000000  0.4225650000000 1.0
C      1  0.6104450000000  0.5508570000000  0.4398240000000 1.0
C      1  0.5401830000000  0.4207060000000  0.4512940000000 1.0
C      1  0.4818630000000  0.4420150000000  0.5231280000000 1.0
C      1  0.5546430000000  0.3992370000000  0.4925990000000 1.0
C      1  0.6488300000000  0.4689310000000  0.4721070000000 1.0
C      1  0.3790260000000  0.5454980000000  0.5290850000000 1.0
C      1  0.5116670000000  0.4452730000000  0.5215050000000 1.0
C      1  0.5076150000000  0.4998720000000  0.5806340000000 1.0
C      1  0.5810510000000  0.4030700000000  0.5017290000000 1.0
C      1  0.6051570000000  0.5360040000000  0.4157760000000 1.0
C      1  0.5010640000000  0.5835780000000  0.3929990000000 1.0
C      1  0.3968880000000  0.4849380000000  0.5205410000000 1.0
C      1  0.5862430000000  0.3995600000000  0.5295970000000 1.0
C      1  0.4088000000000  0.5481020000000  0.5949420000000 1.0
C      1  0.5249400000000  0.4869360000000  0.4653740000000 1.0
C      1  0.4590350000000  0.4310800000000  0.5073770000000 1.0
C      1  0.4340140000000  0.6303030000000  0.4594250000000 1.0
C      1  0.5727890000000  0.4801020000000  0.4866520000000 1.0
C      1  0.4985490000000  0.4727590000000  0.6202450000000 1.0
C      1  0.5343370000000  0.4417800000000  0.4998540000000 1.0
C      1  0.4116110000000  0.4106510000000  0.4727930000000 1.0
C      1  0.4347290000000  0.4249500000000  0.4631920000000 1.0
C      1  0.5096930000000  0.4012180000000  0.5821200000000 1.0
C      1  0.3985220000000  0.4499570000000  0.6014340000000 1.0
C      1  0.4916490000000  0.4271200000000  0.4793750000000 1.0
C      1  0.5163800000000  0.4236580000000  0.4346890000000 1.0
C      1  0.3560630000000  0.4590260000000  0.4949900000000 1.0
C      1  0.3495750000000  0.5099290000000  0.5042760000000 1.0
C      1  0.4687810000000  0.4599230000000  0.5415410000000 1.0
C      1  0.4578300000000  0.5270160000000  0.4347930000000 1.0
C      1  0.5259580000000  0.4227980000000  0.5745820000000 1.0
C      1  0.5624290000000  0.5074510000000  0.3880200000000 1.0
C      1  0.5033830000000  0.5159510000000  0.4197330000000 1.0
C      1  0.4921780000000  0.4774960000000  0.4936840000000 1.0
C      1  0.4972660000000  0.5736990000000  0.5431900000000 1.0
C      1  0.3934540000000  0.5678270000000  0.6059680000000 1.0
C      1  0.5382910000000  0.5929110000000  0.5563160000000 1.0
C      1  0.5037800000000  0.5427010000000  0.4343620000000 1.0
C      1  0.4356000000000  0.3844840000000  0.5054790000000 1.0
C      1  0.5592760000000  0.5709500000000  0.5596140000000 1.0
C      1  0.5229540000000  0.5384980000000  0.5542180000000 1.0
C      1  0.4659130000000  0.4827710000000  0.3694090000000 1.0
C      1  0.4178280000000  0.3858300000000  0.4851240000000 1.0
C      1  0.4219150000000  0.4492060000000  0.6149960000000 1.0
C      1  0.4454000000000  0.4439110000000  0.4843250000000 1.0
C      1  0.4838070000000  0.5169220000000  0.6238400000000 1.0
C      1  0.5474020000000  0.4610200000000  0.6187910000000 1.0
C      1  0.4505160000000  0.4628770000000  0.4411850000000 1.0
C      1  0.6069310000000  0.4978140000000  0.5207160000000 1.0
C      1  0.6229290000000  0.4293210000000  0.4887060000000 1.0
C      1  0.6275300000000  0.4522220000000  0.4717280000000 1.0
C      1  0.4330270000000  0.5392540000000  0.6073590000000 1.0
C      1  0.4522920000000  0.4824660000000  0.3934300000000 1.0
C      1  0.4707740000000  0.5554620000000  0.3729000000000 1.0
C      1  0.4271570000000  0.5541270000000  0.5280590000000 1.0
C      1  0.3783890000000  0.4875750000000  0.5775970000000 1.0
C      1  0.4508840000000  0.4047360000000  0.5143910000000 1.0
C      1  0.5979810000000  0.4158990000000  0.4829090000000 1.0
C      1  0.4509340000000  0.5705430000000  0.5337130000000 1.0
C      1  0.5379100000000  0.5708480000000  0.5180990000000 1.0
C      1  0.5293430000000  0.6013540000000  0.4806870000000 1.0
C      1  0.5147150000000  0.6070030000000  0.5061780000000 1.0
C      1  0.4288970000000  0.4672950000000  0.5661890000000 1.0
C      1  0.5428550000000  0.5313710000000  0.4623220000000 1.0
C      1  0.5252530000000  0.5797310000000  0.4614230000000 1.0
C      1  0.4897650000000  0.4003380000000  0.4769900000000 1.0
C      1  0.5616180000000  0.5171680000000  0.5543920000000 1.0
C      1  0.5485270000000  0.5068470000000  0.5279540000000 1.0
C      1  0.5158090000000  0.5538380000000  0.5293140000000 1.0
C      1  0.5897610000000  0.4742750000000  0.4421980000000 1.0
C      1  0.5252990000000  0.5512790000000  0.4522610000000 1.0
C      1  0.4678230000000  0.5181390000000  0.4945780000000 1.0
C      1  0.4863950000000  0.5399900000000  0.4918670000000 1.0
C      1  0.5308080000000  0.5020220000000  0.4221340000000 1.0
C      1  0.5340010000000  0.5980300000000  0.5271110000000 1.0
C      1  0.4295760000000  0.4931660000000  0.4812880000000 1.0
C      1  0.4241710000000  0.4941390000000  0.5711850000000 1.0
C      1  0.5395880000000  0.4201820000000  0.4808780000000 1.0
C      1  0.5112010000000  0.4647580000000  0.4556190000000 1.0
C      1  0.5690500000000  0.4436130000000  0.4155730000000 1.0
C      1  0.5310500000000  0.5183620000000  0.6211570000000 1.0
C      1  0.4933740000000  0.4727890000000  0.3701810000000 1.0
C      1  0.4866170000000  0.3603540000000  0.4484890000000 1.0
C      1  0.4734150000000  0.4265180000000  0.3922440000000 1.0
C      1  0.5164230000000  0.4925500000000  0.4913670000000 1.0
C      1  0.4723810000000  0.5772970000000  0.3923140000000 1.0
C      1  0.5983680000000  0.5777660000000  0.4945370000000 1.0
C      1  0.4741150000000  0.4933540000000  0.5070150000000 1.0
C      1  0.4403770000000  0.5192850000000  0.4885210000000 1.0
C      1  0.4071110000000  0.4864570000000  0.4966430000000 1.0
C      1  0.3892970000000  0.4245740000000  0.4839490000000 1.0
C      1  0.5483230000000  0.4171980000000  0.5582360000000 1.0
C      1  0.3765310000000  0.4428750000000  0.5572000000000 1.0
C      1  0.5659460000000  0.4273290000000  0.4397910000000 1.0
C      1  0.4489580000000  0.4325030000000  0.4379180000000 1.0
C      1  0.5235120000000  0.4658830000000  0.5402300000000 1.0
C      1  0.4914690000000  0.4612060000000  0.4137460000000 1.0
C      1  0.5769100000000  0.6116460000000  0.4686370000000 1.0
C      1  0.4849790000000  0.6099580000000  0.5071890000000 1.0
C      1  0.4686330000000  0.4185030000000  0.4199760000000 1.0
C      1  0.5958680000000  0.5759600000000  0.5212070000000 1.0
C      1  0.4686880000000  0.4735170000000  0.6249510000000 1.0
C      1  0.3817480000000  0.4590490000000  0.5800350000000 1.0
C      1  0.5618820000000  0.5370140000000  0.3888420000000 1.0
C      1  0.4328840000000  0.5669530000000  0.4243280000000 1.0
C      1  0.4741660000000  0.6313400000000  0.4918360000000 1.0
C      1  0.4474700000000  0.4550420000000  0.6216430000000 1.0
C      1  0.4718050000000  0.5630590000000  0.5519360000000 1.0
C      1  0.5867340000000  0.5008000000000  0.5014540000000 1.0
C      1  0.4792240000000  0.5640790000000  0.4774370000000 1.0
C      1  0.5447670000000  0.5774080000000  0.4120090000000 1.0
C      1  0.5919420000000  0.4347370000000  0.5634320000000 1.0
C      1  0.4608570000000  0.5706690000000  0.4170790000000 1.0
C      1  0.5752090000000  0.4168930000000  0.5496070000000 1.0
C      1  0.5447510000000  0.5028360000000  0.4498870000000 1.0
C      1  0.5498150000000  0.5347370000000  0.4893930000000 1.0
C      1  0.5271410000000  0.5461320000000  0.6243270000000 1.0
C      1  0.6053460000000  0.4993750000000  0.5476740000000 1.0
C      1  0.4800780000000  0.5520560000000  0.5795070000000 1.0
C      1  0.4273620000000  0.5400780000000  0.5027630000000 1.0
C      1  0.3988610000000  0.5064850000000  0.5726440000000 1.0
C      1  0.5856620000000  0.4930670000000  0.3984060000000 1.0
C      1  0.4846390000000  0.3923360000000  0.5835360000000 1.0
C      1  0.4362200000000  0.5160730000000  0.6237020000000 1.0
C      1  0.4489420000000  0.4495730000000  0.5588970000000 1.0
C      1  0.4654720000000  0.5078410000000  0.5511790000000 1.0
C      1  0.5114170000000  0.5361870000000  0.5066200000000 1.0
C      1  0.4936310000000  0.4548730000000  0.4762150000000 1.0
C      1  0.5822880000000  0.5496510000000  0.4048220000000 1.0
C      1  0.4812730000000  0.5845330000000  0.4586290000000 1.0
C      1  0.5503490000000  0.5427360000000  0.5616560000000 1.0
C      1  0.6021200000000  0.3786170000000  0.5375440000000 1.0
C      1  0.4463290000000  0.5105970000000  0.5691020000000 1.0
C      1  0.5802910000000  0.4809430000000  0.5856280000000 1.0
C      1  0.5664430000000  0.5203030000000  0.5072930000000 1.0
C      1  0.5118010000000  0.5866340000000  0.5660210000000 1.0
C      1  0.5050910000000  0.5908510000000  0.4428820000000 1.0
C      1  0.5907500000000  0.5716970000000  0.4451430000000 1.0
C      1  0.5152480000000  0.5616540000000  0.3780960000000 1.0
C      1  0.5409750000000  0.5574220000000  0.3890770000000 1.0
C      1  0.3607490000000  0.5313870000000  0.5156230000000 1.0
C      1  0.3762260000000  0.4350450000000  0.5314220000000 1.0
C      1  0.5642050000000  0.4822220000000  0.6092760000000 1.0
C      1  0.5098180000000  0.4512450000000  0.4318280000000 1.0
C      1  0.5033530000000  0.5263870000000  0.5698280000000 1.0
C      1  0.5184580000000  0.4489510000000  0.5840110000000 1.0
C      1  0.5516290000000  0.6177780000000  0.4749640000000 1.0
C      1  0.4956840000000  0.5408220000000  0.3730080000000 1.0
C      1  0.4485750000000  0.4232830000000  0.5680780000000 1.0
C      1  0.4572450000000  0.5498310000000  0.5975400000000 1.0
C      1  0.5131440000000  0.4928940000000  0.3782000000000 1.0
C      1  0.5829340000000  0.5013340000000  0.5652740000000 1.0
C      1  0.3476960000000  0.4843900000000  0.4965850000000 1.0
C      1  0.4695330000000  0.4871020000000  0.5336540000000 1.0
C      1  0.4542950000000  0.6376110000000  0.4751150000000 1.0
C      1  0.5172050000000  0.5900710000000  0.4163470000000 1.0
C      1  0.5202700000000  0.4555310000000  0.6115750000000 1.0
C      1  0.4665280000000  0.4779300000000  0.4206790000000 1.0
C      1  0.5704900000000  0.4873000000000  0.4583820000000 1.0
C      1  0.4602870000000  0.4014960000000  0.5777820000000 1.0
C      1  0.4903900000000  0.4493180000000  0.3872980000000 1.0
C      1  0.4760710000000  0.5505890000000  0.4316700000000 1.0
C      1  0.5377600000000  0.4945930000000  0.3944520000000 1.0
C      1  0.4635040000000  0.5923520000000  0.5176890000000 1.0
C      1  0.5219480000000  0.5110360000000  0.5112870000000 1.0
END
