TITL C-247198-3593-341 0.0770149162894417 125000 -356.927153323317 0 0 60 (C1) n - 1
REM
REM in /home/nfs/bkarasulu/CARBON/AIRSS/Generating-Clusters/LCBOP/Only-C1/SD-CG/FIRE-HFTN
REM
REM
REM
REM
REM
REM ./C.cell (11c1c37f851c82e70ff6c80c92926a4b)
REM AIRSS Version 0.9.1 bugfix July 2018 build 013d7b7c2542+ Fri, 06 Jul 2018 19:26:36 +0100
REM compiler GCC version 9.2.1 20190827 (Red Hat 9.2.1-1)
REM options -cpp -mtune=generic -march=x86-64 -g -O0 -fpre-include=/usr/include/finclude/math-vector-fortran.h
REM seed -439567835 1094533435 -560067382 -732948698 424508079 2058646717 -6277987 130869301 1424379733 274301725 -157177375 419729692 -1030608318 1244696502 1680906874 -220629321 -308867002 1786628856 257748857 1598510480 -294760749 1351262148 1957124470 1886263880 485820934 1884750438 -804584639 -891034049 -1813078435 -1108721946 1015048427 1799791226 1325871623
REM
CELL 1.54180   50.00000   50.00000   50.00000   90.00000   90.00000   90.00000
LATT -1
SFAC C  
C      1  0.5834620000000  0.5335340000000  0.5528250000000 1.0
C      1  0.5637120000000  0.5271260000000  0.4479180000000 1.0
C      1  0.4866320000000  0.4995420000000  0.4374230000000 1.0
C      1  0.5619580000000  0.5207180000000  0.5417540000000 1.0
C      1  0.4937980000000  0.5433960000000  0.4683630000000 1.0
C      1  0.4253480000000  0.5383100000000  0.5270720000000 1.0
C      1  0.5259730000000  0.5533920000000  0.5300060000000 1.0
C      1  0.5221500000000  0.4657340000000  0.4491290000000 1.0
C      1  0.5247150000000  0.4400320000000  0.4384060000000 1.0
C      1  0.5292800000000  0.4702150000000  0.4761430000000 1.0
C      1  0.5161370000000  0.5169500000000  0.5601480000000 1.0
C      1  0.4409590000000  0.4709920000000  0.4335390000000 1.0
C      1  0.5657150000000  0.4971450000000  0.5267570000000 1.0
C      1  0.4094160000000  0.4387520000000  0.4596750000000 1.0
C      1  0.5099450000000  0.4816130000000  0.4938020000000 1.0
C      1  0.5595850000000  0.4716980000000  0.5165150000000 1.0
C      1  0.4825070000000  0.6137890000000  0.5326840000000 1.0
C      1  0.4629100000000  0.4857770000000  0.4320220000000 1.0
C      1  0.5117400000000  0.4866740000000  0.4325220000000 1.0
C      1  0.5199090000000  0.5349460000000  0.4814530000000 1.0
C      1  0.4536400000000  0.4211320000000  0.5389760000000 1.0
C      1  0.4892760000000  0.5151370000000  0.5601010000000 1.0
C      1  0.4975630000000  0.5934270000000  0.5417370000000 1.0
C      1  0.5307820000000  0.5530900000000  0.5022510000000 1.0
C      1  0.5004350000000  0.4464160000000  0.5338970000000 1.0
C      1  0.5261400000000  0.4939930000000  0.4096370000000 1.0
C      1  0.4061720000000  0.4252050000000  0.4822830000000 1.0
C      1  0.4253220000000  0.5858220000000  0.5121620000000 1.0
C      1  0.4137260000000  0.4168880000000  0.5063510000000 1.0
C      1  0.5281280000000  0.4250350000000  0.5683360000000 1.0
C      1  0.5409860000000  0.5302270000000  0.4611560000000 1.0
C      1  0.5305230000000  0.3942490000000  0.6114030000000 1.0
C      1  0.5259310000000  0.4411440000000  0.5456640000000 1.0
C      1  0.4640920000000  0.6175830000000  0.5115970000000 1.0
C      1  0.5294330000000  0.4096680000000  0.5898710000000 1.0
C      1  0.5864310000000  0.5217440000000  0.4353760000000 1.0
C      1  0.4636850000000  0.5568650000000  0.5056750000000 1.0
C      1  0.4782790000000  0.5897630000000  0.4731340000000 1.0
C      1  0.4740930000000  0.6133530000000  0.4854180000000 1.0
C      1  0.6082970000000  0.5156630000000  0.4225530000000 1.0
C      1  0.4415110000000  0.5240770000000  0.5437940000000 1.0
C      1  0.5315860000000  0.3790820000000  0.6325800000000 1.0
C      1  0.4307860000000  0.4155400000000  0.5266650000000 1.0
C      1  0.4220330000000  0.4548360000000  0.4427430000000 1.0
C      1  0.4370730000000  0.6099230000000  0.5152180000000 1.0
C      1  0.5357080000000  0.5311800000000  0.5455050000000 1.0
C      1  0.4777230000000  0.4319970000000  0.5414300000000 1.0
C      1  0.5013870000000  0.5660620000000  0.5367810000000 1.0
C      1  0.4983610000000  0.4656130000000  0.5134920000000 1.0
C      1  0.5269420000000  0.4158630000000  0.4277920000000 1.0
C      1  0.4854510000000  0.5256590000000  0.4479860000000 1.0
C      1  0.4353510000000  0.5595420000000  0.5109890000000 1.0
C      1  0.5488450000000  0.4526490000000  0.5342200000000 1.0
C      1  0.4785170000000  0.5506510000000  0.5295260000000 1.0
C      1  0.5544660000000  0.4675570000000  0.4888040000000 1.0
C      1  0.5291250000000  0.3921240000000  0.4172420000000 1.0
C      1  0.5386610000000  0.4999550000000  0.3875730000000 1.0
C      1  0.4693210000000  0.5288500000000  0.5459580000000 1.0
C      1  0.4773520000000  0.5627340000000  0.4811230000000 1.0
C      1  0.5110180000000  0.5093670000000  0.4948460000000 1.0
END
