TITL C-247197-3123-244 7200.05787770443 125000 -724.802348715563 0 0 119 (C1) n - 1
REM
REM in /home/nfs/bkarasulu/CARBON/AIRSS/Generating-Clusters/LCBOP/Only-C1/SD-CG/FIRE-HFTN
REM
REM
REM
REM
REM
REM ./C.cell (11c1c37f851c82e70ff6c80c92926a4b)
REM AIRSS Version 0.9.1 bugfix July 2018 build 013d7b7c2542+ Fri, 06 Jul 2018 19:26:36 +0100
REM compiler GCC version 9.2.1 20190827 (Red Hat 9.2.1-1)
REM options -cpp -mtune=generic -march=x86-64 -g -O0 -fpre-include=/usr/include/finclude/math-vector-fortran.h
REM seed -1383040022 -1885083332 -1404376353 -1034191958 1456708082 1853401743 1653593278 -1844806552 758773117 620509332 386594739 240954481 624643885 738994659 1716589191 -1770883643 -471878932 1221046768 970007144 -1024701032 -1995647266 -609421365 1491536058 -1589060249 1706123737 1376557627 -1118360995 -55978138 582585420 1336117941 -1917205081 -92032420 -2096090756
REM
CELL 1.54180   50.00000   50.00000   50.00000   90.00000   90.00000   90.00000
LATT -1
SFAC C  
C      1  0.4332720000000  0.4739850000000  0.4442680000000 1.0
C      1  0.5387560000000  0.5482480000000  0.5311050000000 1.0
C      1  0.5908280000000  0.4947000000000  0.5128090000000 1.0
C      1  0.4494320000000  0.5721220000000  0.5562110000000 1.0
C      1  0.5463560000000  0.5245530000000  0.4731860000000 1.0
C      1  0.4596230000000  0.5275320000000  0.4156680000000 1.0
C      1  0.5209170000000  0.5212600000000  0.6033960000000 1.0
C      1  0.4420970000000  0.4278850000000  0.5204010000000 1.0
C      1  0.5405570000000  0.4498010000000  0.4371030000000 1.0
C      1  0.5166860000000  0.5849040000000  0.5179130000000 1.0
C      1  0.4967650000000  0.5770560000000  0.4390330000000 1.0
C      1  0.5973890000000  0.5215860000000  0.5045420000000 1.0
C      1  0.4480640000000  0.4530890000000  0.4570860000000 1.0
C      1  0.5286470000000  0.5028300000000  0.4271630000000 1.0
C      1  0.5018690000000  0.5379360000000  0.4036520000000 1.0
C      1  0.5501710000000  0.4313760000000  0.4945120000000 1.0
C      1  0.4236690000000  0.4948510000000  0.4619920000000 1.0
C      1  0.3946540000000  0.5161450000000  0.5389610000000 1.0
C      1  0.5194820000000  0.5122880000000  0.5460980000000 1.0
C      1  0.5337290000000  0.4757430000000  0.4130950000000 1.0
C      1  0.5074250000000  0.5443690000000  0.5902080000000 1.0
C      1  0.5337420000000  0.4500620000000  0.5821500000000 1.0
C      1  0.4052570000000  0.5159230000000  0.4581150000000 1.0
C      1  0.5036580000000  0.4962510000000  0.4422290000000 1.0
C      1  0.4587450000000  0.5565450000000  0.4143060000000 1.0
C      1  0.5399410000000  0.5051950000000  0.5880190000000 1.0
C      1  0.5150550000000  0.4367990000000  0.5374900000000 1.0
C      1  0.4883620000000  0.5155200000000  0.4549150000000 1.0
C      1  0.5440100000000  0.5157400000000  0.5622720000000 1.0
C      1  0.5372650000000  0.5543900000000  0.4278540000000 1.0
C      1  0.4813940000000  0.5367290000000  0.5792600000000 1.0
C      1  0.5628130000000  0.4409340000000  0.4620990000000 1.0
C      1  0.4872550000000  0.4448210000000  0.5403750000000 1.0
C      1  0.4748990000000  0.4598240000000  0.4637680000000 1.0
C      1  0.4183150000000  0.5546360000000  0.4913210000000 1.0
C      1  0.4475580000000  0.5001840000000  0.5656980000000 1.0
C      1  0.5811330000000  0.5408810000000  0.5200640000000 1.0
C      1  0.5269080000000  0.5304850000000  0.4162830000000 1.0
C      1  0.4768360000000  0.5868630000000  0.4575130000000 1.0
C      1  0.4486540000000  0.5802140000000  0.4567080000000 1.0
C      1  0.4758220000000  0.5287610000000  0.4980560000000 1.0
C      1  0.4844580000000  0.3835940000000  0.4535870000000 1.0
C      1  0.4845300000000  0.4887520000000  0.3943670000000 1.0
C      1  0.5837770000000  0.5214290000000  0.4440810000000 1.0
C      1  0.5793170000000  0.5489520000000  0.4507660000000 1.0
C      1  0.4599570000000  0.4751430000000  0.3993860000000 1.0
C      1  0.5013070000000  0.4564220000000  0.6200030000000 1.0
C      1  0.4963390000000  0.3821710000000  0.5302390000000 1.0
C      1  0.4919980000000  0.5477900000000  0.5369010000000 1.0
C      1  0.4410800000000  0.5708830000000  0.4310660000000 1.0
C      1  0.5243530000000  0.5162650000000  0.4924340000000 1.0
C      1  0.5756610000000  0.4940220000000  0.5364470000000 1.0
C      1  0.5371910000000  0.4743840000000  0.4726770000000 1.0
C      1  0.4819610000000  0.5171830000000  0.3987640000000 1.0
C      1  0.5279200000000  0.4434980000000  0.5116310000000 1.0
C      1  0.5215330000000  0.4582580000000  0.4552230000000 1.0
C      1  0.5435360000000  0.4765940000000  0.5883000000000 1.0
C      1  0.5075660000000  0.5069070000000  0.6238690000000 1.0
C      1  0.4912880000000  0.5213620000000  0.5536500000000 1.0
C      1  0.4994990000000  0.4817430000000  0.6288090000000 1.0
C      1  0.4366760000000  0.5756510000000  0.5308700000000 1.0
C      1  0.4217020000000  0.5520080000000  0.5206380000000 1.0
C      1  0.5573510000000  0.5510080000000  0.4687930000000 1.0
C      1  0.5368630000000  0.4351480000000  0.5571480000000 1.0
C      1  0.5293140000000  0.4871310000000  0.4946920000000 1.0
C      1  0.5325060000000  0.5872210000000  0.5864680000000 1.0
C      1  0.4686640000000  0.4244050000000  0.5323490000000 1.0
C      1  0.4984500000000  0.3928930000000  0.4336640000000 1.0
C      1  0.5339570000000  0.4714130000000  0.5167570000000 1.0
C      1  0.6005770000000  0.4804640000000  0.4535840000000 1.0
C      1  0.4805320000000  0.5530740000000  0.5118300000000 1.0
C      1  0.4390160000000  0.4755930000000  0.4165420000000 1.0
C      1  0.4370800000000  0.4309210000000  0.4705010000000 1.0
C      1  0.5539830000000  0.4764400000000  0.5355340000000 1.0
C      1  0.5276250000000  0.5243170000000  0.5210270000000 1.0
C      1  0.4342240000000  0.5777940000000  0.4816460000000 1.0
C      1  0.5176210000000  0.5657930000000  0.5429330000000 1.0
C      1  0.5397200000000  0.5735470000000  0.4722110000000 1.0
C      1  0.6134280000000  0.5212650000000  0.4807770000000 1.0
C      1  0.5689350000000  0.5192360000000  0.5471240000000 1.0
C      1  0.5196090000000  0.5663910000000  0.5742700000000 1.0
C      1  0.4878960000000  0.5626760000000  0.4149630000000 1.0
C      1  0.6070490000000  0.5089000000000  0.4554590000000 1.0
C      1  0.4175870000000  0.5311300000000  0.5398150000000 1.0
C      1  0.4401770000000  0.5918100000000  0.5069730000000 1.0
C      1  0.4733510000000  0.4808420000000  0.5112460000000 1.0
C      1  0.4153170000000  0.4609900000000  0.5763700000000 1.0
C      1  0.4375540000000  0.4987750000000  0.4865760000000 1.0
C      1  0.4193040000000  0.4332200000000  0.5352100000000 1.0
C      1  0.4790970000000  0.4732880000000  0.5380530000000 1.0
C      1  0.5143410000000  0.4419540000000  0.6013130000000 1.0
C      1  0.4549030000000  0.5474610000000  0.5701030000000 1.0
C      1  0.4427630000000  0.4162980000000  0.4936810000000 1.0
C      1  0.4967750000000  0.4690610000000  0.4488110000000 1.0
C      1  0.4090640000000  0.4430070000000  0.5577190000000 1.0
C      1  0.5711770000000  0.4285260000000  0.5154270000000 1.0
C      1  0.4855460000000  0.5951560000000  0.4825300000000 1.0
C      1  0.4916860000000  0.5791890000000  0.5042250000000 1.0
C      1  0.5747030000000  0.4737490000000  0.4686620000000 1.0
C      1  0.4684880000000  0.3764760000000  0.4754260000000 1.0
C      1  0.4633130000000  0.5198830000000  0.4428460000000 1.0
C      1  0.5244040000000  0.5727090000000  0.4467740000000 1.0
C      1  0.4972140000000  0.5228540000000  0.4804510000000 1.0
C      1  0.5596630000000  0.5607450000000  0.5161420000000 1.0
C      1  0.5103960000000  0.4748450000000  0.3947920000000 1.0
C      1  0.4042040000000  0.5384030000000  0.4731880000000 1.0
C      1  0.5613290000000  0.4262420000000  0.5431450000000 1.0
C      1  0.4373390000000  0.5262640000000  0.5604410000000 1.0
C      1  0.4632630000000  0.3956770000000  0.4952480000000 1.0
C      1  0.4322220000000  0.4813490000000  0.5791790000000 1.0
C      1  0.4788730000000  0.4623110000000  0.4913060000000 1.0
C      1  0.5922790000000  0.4462310000000  0.5084420000000 1.0
C      1  0.4580610000000  0.3512720000000  0.4774000000000 1.0
C      1  0.4599850000000  0.5047710000000  0.5024490000000 1.0
C      1  0.5872340000000  0.4717310000000  0.4964810000000 1.0
C      1  0.5601280000000  0.5065220000000  0.4548040000000 1.0
C      1  0.5419360000000  0.5804480000000  0.5007120000000 1.0
C      1  0.4781750000000  0.3994880000000  0.5197810000000 1.0
C      1  0.4740940000000  0.4956660000000  0.5553980000000 1.0
END
