TITL C-247197-3123-9 0.00564682128051304 125000 -805.505144851141 0 0 132 (C1) n - 1
REM
REM in /home/nfs/bkarasulu/CARBON/AIRSS/Generating-Clusters/LCBOP/Only-C1/SD-CG/FIRE-HFTN
REM
REM
REM
REM
REM
REM ./C.cell (11c1c37f851c82e70ff6c80c92926a4b)
REM AIRSS Version 0.9.1 bugfix July 2018 build 013d7b7c2542+ Fri, 06 Jul 2018 19:26:36 +0100
REM compiler GCC version 9.2.1 20190827 (Red Hat 9.2.1-1)
REM options -cpp -mtune=generic -march=x86-64 -g -O0 -fpre-include=/usr/include/finclude/math-vector-fortran.h
REM seed -287460615 -1461028796 1150828845 2117678293 -1658896454 -800848474 1089029534 2082880312 1349588399 -2088499404 1650805662 -1680847575 -1473520710 -1553577088 -1878029202 -1164749871 -1135908193 -465547525 1081041189 -1349341582 473677000 -1900478082 -1240589803 1674357662 -1545007389 1815290994 -1616204893 -679819183 411906585 510401619 -921351045 -1333095191 -476930866
REM
CELL 1.54180   50.00000   50.00000   50.00000   90.00000   90.00000   90.00000
LATT -1
SFAC C  
C      1  0.4512490000000  0.5499460000000  0.5669030000000 1.0
C      1  0.5422760000000  0.4433080000000  0.4197060000000 1.0
C      1  0.4700960000000  0.4754040000000  0.5862440000000 1.0
C      1  0.4791210000000  0.4062530000000  0.4271910000000 1.0
C      1  0.5034180000000  0.5392810000000  0.4758940000000 1.0
C      1  0.5783400000000  0.4749050000000  0.4522220000000 1.0
C      1  0.5245640000000  0.5371730000000  0.5849130000000 1.0
C      1  0.4900150000000  0.4005140000000  0.4929140000000 1.0
C      1  0.3873230000000  0.5285160000000  0.5056020000000 1.0
C      1  0.4928670000000  0.5691050000000  0.5885130000000 1.0
C      1  0.4505550000000  0.5698580000000  0.4587330000000 1.0
C      1  0.5038160000000  0.6156370000000  0.4486860000000 1.0
C      1  0.5188060000000  0.5192930000000  0.5208790000000 1.0
C      1  0.5213480000000  0.5666260000000  0.5816310000000 1.0
C      1  0.5239470000000  0.5550550000000  0.4653540000000 1.0
C      1  0.5162670000000  0.4312500000000  0.4172710000000 1.0
C      1  0.5135020000000  0.5150460000000  0.4120350000000 1.0
C      1  0.3622950000000  0.5378900000000  0.4980370000000 1.0
C      1  0.4383010000000  0.5531910000000  0.5395080000000 1.0
C      1  0.5057850000000  0.6140250000000  0.4989200000000 1.0
C      1  0.5090930000000  0.4808690000000  0.5431670000000 1.0
C      1  0.5406620000000  0.4159540000000  0.5926510000000 1.0
C      1  0.5923650000000  0.4794530000000  0.5870140000000 1.0
C      1  0.5808830000000  0.5301360000000  0.4732190000000 1.0
C      1  0.5642150000000  0.5126770000000  0.6114370000000 1.0
C      1  0.4058380000000  0.5515570000000  0.5735570000000 1.0
C      1  0.5431680000000  0.5257280000000  0.6019380000000 1.0
C      1  0.4387720000000  0.4375880000000  0.5519390000000 1.0
C      1  0.4846990000000  0.5592940000000  0.4205990000000 1.0
C      1  0.4985140000000  0.4691860000000  0.4596560000000 1.0
C      1  0.5598050000000  0.4261390000000  0.4345200000000 1.0
C      1  0.4096280000000  0.5471010000000  0.5450960000000 1.0
C      1  0.4815510000000  0.5474490000000  0.5192860000000 1.0
C      1  0.5755700000000  0.5615940000000  0.5407840000000 1.0
C      1  0.4591160000000  0.6137910000000  0.4638930000000 1.0
C      1  0.4523130000000  0.5909100000000  0.4799610000000 1.0
C      1  0.3953800000000  0.5007550000000  0.5468280000000 1.0
C      1  0.4877420000000  0.4668500000000  0.5317450000000 1.0
C      1  0.5022760000000  0.5355310000000  0.5042410000000 1.0
C      1  0.4915090000000  0.5587870000000  0.5430770000000 1.0
C      1  0.4373070000000  0.4388590000000  0.4565890000000 1.0
C      1  0.4709040000000  0.5771400000000  0.4378160000000 1.0
C      1  0.6030640000000  0.4719210000000  0.5396040000000 1.0
C      1  0.5051760000000  0.5836870000000  0.5387410000000 1.0
C      1  0.5285830000000  0.5812800000000  0.5569820000000 1.0
C      1  0.4660970000000  0.5090800000000  0.4493160000000 1.0
C      1  0.4106360000000  0.4615180000000  0.5235330000000 1.0
C      1  0.4803040000000  0.4221320000000  0.4782040000000 1.0
C      1  0.5150530000000  0.4183580000000  0.5449190000000 1.0
C      1  0.5998970000000  0.4420790000000  0.5019540000000 1.0
C      1  0.5849750000000  0.4728450000000  0.5609320000000 1.0
C      1  0.5368880000000  0.4516490000000  0.5149230000000 1.0
C      1  0.5373340000000  0.4749750000000  0.5332370000000 1.0
C      1  0.5198410000000  0.4882460000000  0.4190190000000 1.0
C      1  0.5672640000000  0.5157930000000  0.5199410000000 1.0
C      1  0.5732640000000  0.5136590000000  0.4259080000000 1.0
C      1  0.4557640000000  0.5606220000000  0.5178770000000 1.0
C      1  0.4634600000000  0.5864600000000  0.5060810000000 1.0
C      1  0.5381130000000  0.4054600000000  0.5008150000000 1.0
C      1  0.6079910000000  0.5409040000000  0.5109540000000 1.0
C      1  0.4244130000000  0.4770090000000  0.5046970000000 1.0
C      1  0.4541120000000  0.5121650000000  0.4999410000000 1.0
C      1  0.4483970000000  0.4643450000000  0.4958980000000 1.0
C      1  0.4993550000000  0.4725060000000  0.4311640000000 1.0
C      1  0.5682040000000  0.5341460000000  0.5417510000000 1.0
C      1  0.4069080000000  0.5118560000000  0.4377980000000 1.0
C      1  0.4264670000000  0.4620160000000  0.5658650000000 1.0
C      1  0.4689380000000  0.4599210000000  0.5142730000000 1.0
C      1  0.5523240000000  0.4087030000000  0.4557940000000 1.0
C      1  0.5615010000000  0.4098600000000  0.4835150000000 1.0
C      1  0.5576110000000  0.4712680000000  0.5545090000000 1.0
C      1  0.5527550000000  0.5846060000000  0.3765920000000 1.0
C      1  0.4907750000000  0.5972650000000  0.5162260000000 1.0
C      1  0.5780850000000  0.5302400000000  0.4466050000000 1.0
C      1  0.5682130000000  0.4859900000000  0.4279770000000 1.0
C      1  0.5310580000000  0.4244200000000  0.5216090000000 1.0
C      1  0.4930780000000  0.4432490000000  0.4683650000000 1.0
C      1  0.4988570000000  0.5225200000000  0.5729860000000 1.0
C      1  0.5587230000000  0.4634100000000  0.4683000000000 1.0
C      1  0.4781050000000  0.6055230000000  0.4432440000000 1.0
C      1  0.5241570000000  0.3986190000000  0.4550580000000 1.0
C      1  0.5759570000000  0.6030910000000  0.4856720000000 1.0
C      1  0.4234030000000  0.4191710000000  0.5029410000000 1.0
C      1  0.5853540000000  0.4215300000000  0.4926780000000 1.0
C      1  0.4150750000000  0.4910090000000  0.4222510000000 1.0
C      1  0.5998800000000  0.5625650000000  0.5258050000000 1.0
C      1  0.5425880000000  0.5022730000000  0.5182740000000 1.0
C      1  0.4490600000000  0.4629150000000  0.4683120000000 1.0
C      1  0.5129550000000  0.6201870000000  0.4737730000000 1.0
C      1  0.4998990000000  0.5384590000000  0.4122690000000 1.0
C      1  0.4926720000000  0.4487270000000  0.4165690000000 1.0
C      1  0.5837480000000  0.4952120000000  0.6067320000000 1.0
C      1  0.4836460000000  0.5274270000000  0.4588810000000 1.0
C      1  0.3951180000000  0.5258980000000  0.5331470000000 1.0
C      1  0.5542650000000  0.4190340000000  0.6146740000000 1.0
C      1  0.5459360000000  0.5771370000000  0.4281520000000 1.0
C      1  0.5497850000000  0.5814090000000  0.4022910000000 1.0
C      1  0.4066890000000  0.4750040000000  0.5487040000000 1.0
C      1  0.4417660000000  0.4766120000000  0.5846240000000 1.0
C      1  0.4072780000000  0.5205720000000  0.4869370000000 1.0
C      1  0.5081570000000  0.4064580000000  0.4321990000000 1.0
C      1  0.4226680000000  0.4346110000000  0.5268590000000 1.0
C      1  0.4121780000000  0.5291870000000  0.4599040000000 1.0
C      1  0.5165400000000  0.3947120000000  0.4839290000000 1.0
C      1  0.4853030000000  0.4995250000000  0.5879740000000 1.0
C      1  0.4963820000000  0.4884670000000  0.4797740000000 1.0
C      1  0.6024650000000  0.4906640000000  0.4936540000000 1.0
C      1  0.5600270000000  0.5866150000000  0.4732560000000 1.0
C      1  0.4803100000000  0.5485870000000  0.5692370000000 1.0
C      1  0.5555340000000  0.5799860000000  0.5481300000000 1.0
C      1  0.5430040000000  0.4578540000000  0.4885330000000 1.0
C      1  0.5432010000000  0.5728650000000  0.4556500000000 1.0
C      1  0.4780930000000  0.5010870000000  0.4949670000000 1.0
C      1  0.3389930000000  0.5467530000000  0.4904500000000 1.0
C      1  0.5274580000000  0.4149670000000  0.5697030000000 1.0
C      1  0.4671830000000  0.4311650000000  0.5579020000000 1.0
C      1  0.4271530000000  0.5043550000000  0.4986510000000 1.0
C      1  0.4264210000000  0.4211270000000  0.4758680000000 1.0
C      1  0.4430210000000  0.4439280000000  0.4278960000000 1.0
C      1  0.6040600000000  0.4684350000000  0.5118500000000 1.0
C      1  0.4292340000000  0.5516560000000  0.4565010000000 1.0
C      1  0.5064660000000  0.5096150000000  0.5461750000000 1.0
C      1  0.4373660000000  0.4737050000000  0.4257040000000 1.0
C      1  0.4527940000000  0.4841390000000  0.4488310000000 1.0
C      1  0.4788690000000  0.4494140000000  0.5775670000000 1.0
C      1  0.4302460000000  0.5513960000000  0.5863860000000 1.0
C      1  0.4801090000000  0.3988210000000  0.5194690000000 1.0
C      1  0.4862030000000  0.4148410000000  0.5422440000000 1.0
C      1  0.5448010000000  0.4729520000000  0.4177850000000 1.0
C      1  0.6015110000000  0.4832350000000  0.4659680000000 1.0
C      1  0.4680900000000  0.4326900000000  0.4193750000000 1.0
C      1  0.5901460000000  0.5180260000000  0.4996470000000 1.0
END
