TITL C-247199-3331-481 -9.98541986588049e-07 125000 -637.542101386665 0 0 103 (C1) n - 1
REM
REM in /home/nfs/bkarasulu/CARBON/AIRSS/Generating-Clusters/LCBOP/Only-C1/SD-CG/FIRE-HFTN
REM
REM
REM
REM
REM
REM ./C.cell (11c1c37f851c82e70ff6c80c92926a4b)
REM AIRSS Version 0.9.1 bugfix July 2018 build 013d7b7c2542+ Fri, 06 Jul 2018 19:26:36 +0100
REM compiler GCC version 9.2.1 20190827 (Red Hat 9.2.1-1)
REM options -cpp -mtune=generic -march=x86-64 -g -O0 -fpre-include=/usr/include/finclude/math-vector-fortran.h
REM seed 814298107 1970601602 -311227532 -79068099 1299820068 918036237 1457741471 1767112119 -786395922 -1064198731 -143760846 -616684525 -733118243 1494698913 937913082 2139882074 914219233 -1434693234 386826221 -1375377762 -2045748600 -563820595 -1549820944 -1522630371 -1560719802 -878409033 -189653399 552806184 956881746 1517429650 -1359439826 -1331565560 2000353260
REM
CELL 1.54180   50.00000   50.00000   50.00000   90.00000   90.00000   90.00000
LATT -1
SFAC C  
C      1  0.5666090000000  0.5686700000000  0.4571750000000 1.0
C      1  0.4203870000000  0.5087520000000  0.4265680000000 1.0
C      1  0.5233310000000  0.4066090000000  0.4702240000000 1.0
C      1  0.5425140000000  0.5911900000000  0.4957290000000 1.0
C      1  0.5147790000000  0.4855510000000  0.5136990000000 1.0
C      1  0.5620620000000  0.5172980000000  0.5178550000000 1.0
C      1  0.5476270000000  0.4728080000000  0.5767820000000 1.0
C      1  0.4960380000000  0.5278580000000  0.4478440000000 1.0
C      1  0.5776130000000  0.4472090000000  0.5188290000000 1.0
C      1  0.5084940000000  0.5422850000000  0.4262510000000 1.0
C      1  0.4896220000000  0.4638650000000  0.5754840000000 1.0
C      1  0.4604140000000  0.5158190000000  0.4909410000000 1.0
C      1  0.6029940000000  0.5563800000000  0.5205260000000 1.0
C      1  0.5668560000000  0.5141050000000  0.4125240000000 1.0
C      1  0.5239710000000  0.4617320000000  0.5024670000000 1.0
C      1  0.4909660000000  0.4798940000000  0.4568980000000 1.0
C      1  0.4209750000000  0.5017790000000  0.5397390000000 1.0
C      1  0.5654650000000  0.5350080000000  0.5799310000000 1.0
C      1  0.5311880000000  0.4850120000000  0.4291580000000 1.0
C      1  0.5199890000000  0.5921010000000  0.5112660000000 1.0
C      1  0.5152270000000  0.4979440000000  0.4080760000000 1.0
C      1  0.5185820000000  0.4735970000000  0.4527690000000 1.0
C      1  0.5581640000000  0.4956970000000  0.4323530000000 1.0
C      1  0.6191590000000  0.4939730000000  0.5232570000000 1.0
C      1  0.4314650000000  0.4646700000000  0.4305130000000 1.0
C      1  0.5289710000000  0.5392730000000  0.4851320000000 1.0
C      1  0.4971050000000  0.3914360000000  0.5110150000000 1.0
C      1  0.4436110000000  0.4430610000000  0.5670510000000 1.0
C      1  0.4036940000000  0.4976230000000  0.4457440000000 1.0
C      1  0.4123820000000  0.4706250000000  0.4529770000000 1.0
C      1  0.5098400000000  0.4305690000000  0.5400380000000 1.0
C      1  0.5691820000000  0.4956120000000  0.4583580000000 1.0
C      1  0.6052330000000  0.5395370000000  0.5433940000000 1.0
C      1  0.4689510000000  0.4964780000000  0.4179430000000 1.0
C      1  0.5962060000000  0.5589130000000  0.4945490000000 1.0
C      1  0.5081630000000  0.3918710000000  0.4866050000000 1.0
C      1  0.5785750000000  0.5196600000000  0.4723970000000 1.0
C      1  0.5661590000000  0.4785460000000  0.5562440000000 1.0
C      1  0.4087760000000  0.5040960000000  0.5141110000000 1.0
C      1  0.4388740000000  0.5128540000000  0.5819190000000 1.0
C      1  0.5344610000000  0.4477140000000  0.5773270000000 1.0
C      1  0.4414400000000  0.4901860000000  0.4190340000000 1.0
C      1  0.5086180000000  0.4441660000000  0.5652240000000 1.0
C      1  0.4513080000000  0.5618950000000  0.4994600000000 1.0
C      1  0.5552630000000  0.4299800000000  0.5185150000000 1.0
C      1  0.5988360000000  0.4881910000000  0.5045530000000 1.0
C      1  0.5430010000000  0.5349470000000  0.5076340000000 1.0
C      1  0.5357310000000  0.4593770000000  0.4739500000000 1.0
C      1  0.4488980000000  0.4870700000000  0.5887530000000 1.0
C      1  0.5812700000000  0.5488360000000  0.4719890000000 1.0
C      1  0.4608460000000  0.4630090000000  0.5785690000000 1.0
C      1  0.4711060000000  0.4689460000000  0.4736540000000 1.0
C      1  0.5443510000000  0.5198970000000  0.5874040000000 1.0
C      1  0.3818110000000  0.5553710000000  0.5299210000000 1.0
C      1  0.4136710000000  0.5295220000000  0.5014600000000 1.0
C      1  0.4845720000000  0.4783120000000  0.3746820000000 1.0
C      1  0.5489750000000  0.5305640000000  0.4002150000000 1.0
C      1  0.4723350000000  0.5745170000000  0.5139540000000 1.0
C      1  0.3911640000000  0.5260560000000  0.5722760000000 1.0
C      1  0.4954670000000  0.5893980000000  0.4717050000000 1.0
C      1  0.4940230000000  0.5872660000000  0.5002670000000 1.0
C      1  0.4608930000000  0.4874610000000  0.4929310000000 1.0
C      1  0.4028760000000  0.4806750000000  0.4994730000000 1.0
C      1  0.5011870000000  0.5084750000000  0.5151760000000 1.0
C      1  0.4820470000000  0.5033700000000  0.4425660000000 1.0
C      1  0.5137980000000  0.5693990000000  0.4310740000000 1.0
C      1  0.5037110000000  0.5331010000000  0.4748550000000 1.0
C      1  0.5870980000000  0.5415520000000  0.5652120000000 1.0
C      1  0.4873690000000  0.5233700000000  0.4955010000000 1.0
C      1  0.4666940000000  0.5543710000000  0.5635070000000 1.0
C      1  0.4332870000000  0.4425400000000  0.4898640000000 1.0
C      1  0.4556270000000  0.5354960000000  0.5790280000000 1.0
C      1  0.4401510000000  0.4358460000000  0.5177280000000 1.0
C      1  0.5610270000000  0.5016570000000  0.5408680000000 1.0
C      1  0.4315970000000  0.4321890000000  0.5448480000000 1.0
C      1  0.4651050000000  0.4502720000000  0.5216070000000 1.0
C      1  0.4572480000000  0.4436270000000  0.4726520000000 1.0
C      1  0.3779090000000  0.5195470000000  0.5952680000000 1.0
C      1  0.5824960000000  0.5107690000000  0.4994010000000 1.0
C      1  0.3946150000000  0.5494660000000  0.5070670000000 1.0
C      1  0.4152840000000  0.5130180000000  0.5651530000000 1.0
C      1  0.4571610000000  0.4289530000000  0.4486020000000 1.0
C      1  0.3810970000000  0.5457080000000  0.5548460000000 1.0
C      1  0.5757720000000  0.5759080000000  0.4323120000000 1.0
C      1  0.5647170000000  0.4710860000000  0.4747310000000 1.0
C      1  0.5352320000000  0.4301830000000  0.4660430000000 1.0
C      1  0.5822430000000  0.4585070000000  0.5445940000000 1.0
C      1  0.5311110000000  0.4949420000000  0.5854460000000 1.0
C      1  0.6203670000000  0.5156170000000  0.5396350000000 1.0
C      1  0.5835490000000  0.4648420000000  0.4968020000000 1.0
C      1  0.4471340000000  0.4916280000000  0.5380150000000 1.0
C      1  0.4437700000000  0.4395890000000  0.4276370000000 1.0
C      1  0.5440210000000  0.5827840000000  0.4683610000000 1.0
C      1  0.4406760000000  0.5359440000000  0.4945140000000 1.0
C      1  0.5216020000000  0.5263880000000  0.4064520000000 1.0
C      1  0.4728510000000  0.5686680000000  0.5416870000000 1.0
C      1  0.5286800000000  0.4396540000000  0.5201710000000 1.0
C      1  0.4968030000000  0.4065560000000  0.5332480000000 1.0
C      1  0.5033840000000  0.4880490000000  0.5845300000000 1.0
C      1  0.4131330000000  0.4619110000000  0.4806730000000 1.0
C      1  0.4891780000000  0.4901980000000  0.3987050000000 1.0
C      1  0.4620350000000  0.4778600000000  0.5194240000000 1.0
C      1  0.5181030000000  0.5836380000000  0.4549110000000 1.0
END
