TITL C-247200-3482-212 0.000391877031392984 125000 -250.921665514853 0 0 42 (C1) n - 1
REM
REM in /home/nfs/bkarasulu/CARBON/AIRSS/Generating-Clusters/LCBOP/Only-C1/SD-CG/FIRE-HFTN
REM
REM
REM
REM
REM
REM ./C.cell (11c1c37f851c82e70ff6c80c92926a4b)
REM AIRSS Version 0.9.1 bugfix July 2018 build 013d7b7c2542+ Fri, 06 Jul 2018 19:26:36 +0100
REM compiler GCC version 9.2.1 20190827 (Red Hat 9.2.1-1)
REM options -cpp -mtune=generic -march=x86-64 -g -O0 -fpre-include=/usr/include/finclude/math-vector-fortran.h
REM seed -259362191 -1818638549 -978958842 136766812 199957453 1358219578 -1262469738 -1972478385 1794187151 1517978007 -251017105 -1844245949 43461400 2010335751 -2023088623 -1720559517 -758022228 631655978 -2097408824 -544673661 50351552 -1728737906 1266834483 1489084679 1447478478 46045435 1740240418 511817279 -1501263756 -34009223 1328822233 -1308632122 -410799923
REM
CELL 1.54180   50.00000   50.00000   50.00000   90.00000   90.00000   90.00000
LATT -1
SFAC C  
C      1  0.4835980000000  0.5460860000000  0.4624680000000 1.0
C      1  0.4947670000000  0.5670380000000  0.4478060000000 1.0
C      1  0.4435340000000  0.5190070000000  0.5114360000000 1.0
C      1  0.4662480000000  0.5090860000000  0.5277030000000 1.0
C      1  0.4960020000000  0.4523430000000  0.4648810000000 1.0
C      1  0.4567650000000  0.4740690000000  0.4992370000000 1.0
C      1  0.5317170000000  0.6252200000000  0.4090750000000 1.0
C      1  0.5196010000000  0.4350290000000  0.5144610000000 1.0
C      1  0.5070040000000  0.5865620000000  0.4347470000000 1.0
C      1  0.4792080000000  0.4915220000000  0.5081920000000 1.0
C      1  0.5157830000000  0.5046510000000  0.4698760000000 1.0
C      1  0.5626790000000  0.5023340000000  0.4740470000000 1.0
C      1  0.5328950000000  0.5464950000000  0.5008390000000 1.0
C      1  0.5057780000000  0.5333790000000  0.5351330000000 1.0
C      1  0.4653590000000  0.4473350000000  0.5041760000000 1.0
C      1  0.5293300000000  0.5162980000000  0.5364160000000 1.0
C      1  0.5194610000000  0.6060520000000  0.4218040000000 1.0
C      1  0.4607500000000  0.4497010000000  0.5556620000000 1.0
C      1  0.4351790000000  0.4938210000000  0.4985050000000 1.0
C      1  0.4997470000000  0.4983980000000  0.4905140000000 1.0
C      1  0.4726840000000  0.4635530000000  0.5757990000000 1.0
C      1  0.5030440000000  0.4185820000000  0.4973980000000 1.0
C      1  0.4539480000000  0.5432710000000  0.5003320000000 1.0
C      1  0.4814690000000  0.5241170000000  0.5453280000000 1.0
C      1  0.5106870000000  0.4859120000000  0.5970610000000 1.0
C      1  0.4809710000000  0.5484760000000  0.4912070000000 1.0
C      1  0.4743830000000  0.4960870000000  0.4435730000000 1.0
C      1  0.5476000000000  0.5250870000000  0.5141700000000 1.0
C      1  0.4748270000000  0.4437340000000  0.5318470000000 1.0
C      1  0.5240490000000  0.4561470000000  0.4722110000000 1.0
C      1  0.5303660000000  0.4871270000000  0.5375690000000 1.0
C      1  0.4828830000000  0.4348480000000  0.4843020000000 1.0
C      1  0.5046810000000  0.5479520000000  0.5088700000000 1.0
C      1  0.4823570000000  0.4707330000000  0.4482690000000 1.0
C      1  0.5039510000000  0.4463000000000  0.5354680000000 1.0
C      1  0.5586960000000  0.5010840000000  0.5019640000000 1.0
C      1  0.5133900000000  0.4687000000000  0.5510630000000 1.0
C      1  0.4746970000000  0.5224640000000  0.4491730000000 1.0
C      1  0.4994020000000  0.4734220000000  0.5756370000000 1.0
C      1  0.5454240000000  0.4775260000000  0.5136250000000 1.0
C      1  0.5404020000000  0.5056000000000  0.4589130000000 1.0
C      1  0.5346820000000  0.4548530000000  0.4992440000000 1.0
END
