TITL C-247195-3186-467 2.22035655868859e-07 125000 -793.37397042015 0 0 130 (C1) n - 1
REM
REM in /home/nfs/bkarasulu/CARBON/AIRSS/Generating-Clusters/LCBOP/Only-C1/SD-CG/FIRE-HFTN
REM
REM
REM
REM
REM
REM ./C.cell (11c1c37f851c82e70ff6c80c92926a4b)
REM AIRSS Version 0.9.1 bugfix July 2018 build 013d7b7c2542+ Fri, 06 Jul 2018 19:26:36 +0100
REM compiler GCC version 9.2.1 20190827 (Red Hat 9.2.1-1)
REM options -cpp -mtune=generic -march=x86-64 -g -O0 -fpre-include=/usr/include/finclude/math-vector-fortran.h
REM seed 1323832098 357854863 -1574903654 305051193 -946784504 -1154712662 -647314311 1667690174 -1312264938 1584928651 -376915783 649045996 -750229082 -2041565736 -1968296766 790085283 -1969949726 -603036663 -550195069 -1069197359 1674378975 906989160 -591431977 -1025925415 751320349 -1008218832 909284470 -385342514 623055501 -1044512241 752945030 925098338 -803923672
REM
CELL 1.54180   50.00000   50.00000   50.00000   90.00000   90.00000   90.00000
LATT -1
SFAC C  
C      1  0.4200710000000  0.4949780000000  0.4381520000000 1.0
C      1  0.4687190000000  0.4926560000000  0.4316060000000 1.0
C      1  0.4728100000000  0.4883480000000  0.3824440000000 1.0
C      1  0.3917710000000  0.5097130000000  0.4798680000000 1.0
C      1  0.4775690000000  0.4481050000000  0.4108550000000 1.0
C      1  0.5341660000000  0.5629310000000  0.4238110000000 1.0
C      1  0.5178270000000  0.5491600000000  0.4857720000000 1.0
C      1  0.4998380000000  0.4658540000000  0.5217060000000 1.0
C      1  0.4205190000000  0.4682730000000  0.4495140000000 1.0
C      1  0.4931510000000  0.5971820000000  0.4021150000000 1.0
C      1  0.4424290000000  0.4229520000000  0.4842620000000 1.0
C      1  0.5342610000000  0.6467830000000  0.3667890000000 1.0
C      1  0.4065170000000  0.5120940000000  0.5872750000000 1.0
C      1  0.5751650000000  0.5654820000000  0.4486100000000 1.0
C      1  0.5071620000000  0.5544150000000  0.4203130000000 1.0
C      1  0.4749310000000  0.5547840000000  0.5929440000000 1.0
C      1  0.4730730000000  0.4589500000000  0.5063230000000 1.0
C      1  0.4384750000000  0.4472620000000  0.5466700000000 1.0
C      1  0.4517690000000  0.5418260000000  0.6014910000000 1.0
C      1  0.5777340000000  0.5136130000000  0.5424810000000 1.0
C      1  0.5415710000000  0.4687970000000  0.4947990000000 1.0
C      1  0.5565680000000  0.4077900000000  0.4742360000000 1.0
C      1  0.4585370000000  0.5626300000000  0.4580900000000 1.0
C      1  0.4944840000000  0.4844120000000  0.5438280000000 1.0
C      1  0.4536430000000  0.4663060000000  0.5300880000000 1.0
C      1  0.5712820000000  0.4322770000000  0.4830010000000 1.0
C      1  0.5172400000000  0.4467120000000  0.6005320000000 1.0
C      1  0.5740860000000  0.5029990000000  0.4565790000000 1.0
C      1  0.5290170000000  0.5151140000000  0.6170800000000 1.0
C      1  0.4431750000000  0.5031770000000  0.5548070000000 1.0
C      1  0.4504570000000  0.5369460000000  0.4445250000000 1.0
C      1  0.4962980000000  0.5875780000000  0.5112770000000 1.0
C      1  0.5970660000000  0.5157360000000  0.5214210000000 1.0
C      1  0.6070410000000  0.4914690000000  0.5107930000000 1.0
C      1  0.4632550000000  0.4303780000000  0.5022940000000 1.0
C      1  0.4954580000000  0.3671320000000  0.4932870000000 1.0
C      1  0.5399310000000  0.6676900000000  0.3522840000000 1.0
C      1  0.5521420000000  0.4524720000000  0.4743840000000 1.0
C      1  0.4334150000000  0.4990270000000  0.5833120000000 1.0
C      1  0.4733880000000  0.4766580000000  0.4077760000000 1.0
C      1  0.4981540000000  0.5287640000000  0.4256260000000 1.0
C      1  0.5528640000000  0.5135030000000  0.4729060000000 1.0
C      1  0.5170180000000  0.4848780000000  0.4440030000000 1.0
C      1  0.5116440000000  0.5462620000000  0.5589480000000 1.0
C      1  0.4796160000000  0.4736850000000  0.6245720000000 1.0
C      1  0.4904800000000  0.4330100000000  0.3921250000000 1.0
C      1  0.5013990000000  0.5483930000000  0.5866390000000 1.0
C      1  0.4786520000000  0.4742730000000  0.4786950000000 1.0
C      1  0.5915920000000  0.4447060000000  0.4991200000000 1.0
C      1  0.4628840000000  0.4136420000000  0.5260020000000 1.0
C      1  0.5772780000000  0.5101310000000  0.4303370000000 1.0
C      1  0.4039590000000  0.5289470000000  0.4650690000000 1.0
C      1  0.5394450000000  0.5390940000000  0.4681560000000 1.0
C      1  0.5996670000000  0.4718120000000  0.4917560000000 1.0
C      1  0.4452000000000  0.4484150000000  0.5745310000000 1.0
C      1  0.4094950000000  0.4633330000000  0.4760580000000 1.0
C      1  0.5000330000000  0.5897450000000  0.4647430000000 1.0
C      1  0.5398350000000  0.5858630000000  0.4080840000000 1.0
C      1  0.5034000000000  0.4074570000000  0.4664970000000 1.0
C      1  0.5277160000000  0.4276260000000  0.5178290000000 1.0
C      1  0.4674280000000  0.4314490000000  0.5796290000000 1.0
C      1  0.4525560000000  0.6231350000000  0.3780050000000 1.0
C      1  0.5912690000000  0.4833230000000  0.4673600000000 1.0
C      1  0.5246790000000  0.4552310000000  0.5135360000000 1.0
C      1  0.4465820000000  0.4553200000000  0.4466750000000 1.0
C      1  0.5161650000000  0.4975790000000  0.5562560000000 1.0
C      1  0.4887340000000  0.5762210000000  0.4209050000000 1.0
C      1  0.5269630000000  0.5707210000000  0.5490440000000 1.0
C      1  0.5417190000000  0.4970150000000  0.4935280000000 1.0
C      1  0.5272900000000  0.4607090000000  0.4344770000000 1.0
C      1  0.4753560000000  0.5237260000000  0.4961030000000 1.0
C      1  0.4529680000000  0.4053760000000  0.4647750000000 1.0
C      1  0.5218760000000  0.5093940000000  0.5086580000000 1.0
C      1  0.4012390000000  0.4859510000000  0.4925760000000 1.0
C      1  0.5767160000000  0.4633300000000  0.5663670000000 1.0
C      1  0.4907600000000  0.4208650000000  0.5663160000000 1.0
C      1  0.4729290000000  0.5007160000000  0.3595080000000 1.0
C      1  0.4658920000000  0.4880460000000  0.5460410000000 1.0
C      1  0.4720810000000  0.6104110000000  0.3896660000000 1.0
C      1  0.4254800000000  0.5102310000000  0.5331800000000 1.0
C      1  0.5308140000000  0.4145290000000  0.4596090000000 1.0
C      1  0.5097100000000  0.5896760000000  0.5363640000000 1.0
C      1  0.5041740000000  0.4830940000000  0.4693960000000 1.0
C      1  0.5084350000000  0.4071850000000  0.5180880000000 1.0
C      1  0.5156890000000  0.4263910000000  0.5798470000000 1.0
C      1  0.4181220000000  0.4377580000000  0.4855490000000 1.0
C      1  0.5358560000000  0.4893830000000  0.6164970000000 1.0
C      1  0.5640260000000  0.4603400000000  0.5912200000000 1.0
C      1  0.5395980000000  0.4644320000000  0.6039360000000 1.0
C      1  0.5282700000000  0.6255740000000  0.3814920000000 1.0
C      1  0.4673960000000  0.4968930000000  0.6198900000000 1.0
C      1  0.4096970000000  0.4908250000000  0.5193460000000 1.0
C      1  0.4774340000000  0.4147120000000  0.4518720000000 1.0
C      1  0.4327310000000  0.5328360000000  0.5181420000000 1.0
C      1  0.4950900000000  0.4534620000000  0.6165950000000 1.0
C      1  0.5622610000000  0.5725740000000  0.5143870000000 1.0
C      1  0.5394460000000  0.4141200000000  0.5711290000000 1.0
C      1  0.5633090000000  0.4179780000000  0.5596420000000 1.0
C      1  0.5793410000000  0.4895400000000  0.5569990000000 1.0
C      1  0.4256830000000  0.5528840000000  0.6021300000000 1.0
C      1  0.4688990000000  0.5843300000000  0.5032900000000 1.0
C      1  0.5495410000000  0.5556320000000  0.4466800000000 1.0
C      1  0.4880860000000  0.4101630000000  0.5387340000000 1.0
C      1  0.4522320000000  0.5396870000000  0.4995550000000 1.0
C      1  0.5024160000000  0.5313640000000  0.5059920000000 1.0
C      1  0.5362210000000  0.4421050000000  0.4526970000000 1.0
C      1  0.4247410000000  0.5226020000000  0.4467370000000 1.0
C      1  0.5796630000000  0.4393500000000  0.5510430000000 1.0
C      1  0.5929330000000  0.4380310000000  0.5264360000000 1.0
C      1  0.5207300000000  0.6035530000000  0.3966990000000 1.0
C      1  0.6012940000000  0.5408760000000  0.5097290000000 1.0
C      1  0.5520550000000  0.5603110000000  0.5382650000000 1.0
C      1  0.5559610000000  0.5318560000000  0.5461850000000 1.0
C      1  0.4039270000000  0.5379530000000  0.5955220000000 1.0
C      1  0.5877410000000  0.5638030000000  0.5064480000000 1.0
C      1  0.5306290000000  0.5220760000000  0.5570280000000 1.0
C      1  0.4632150000000  0.4771900000000  0.4552640000000 1.0
C      1  0.4383860000000  0.4202520000000  0.5382620000000 1.0
C      1  0.4716300000000  0.5210370000000  0.4324670000000 1.0
C      1  0.4666520000000  0.4368380000000  0.4347700000000 1.0
C      1  0.4336770000000  0.4695960000000  0.5887660000000 1.0
C      1  0.5174590000000  0.5368110000000  0.6067820000000 1.0
C      1  0.4551340000000  0.5649200000000  0.4869760000000 1.0
C      1  0.5019790000000  0.3939090000000  0.4928100000000 1.0
C      1  0.5439200000000  0.5865120000000  0.4972060000000 1.0
C      1  0.4523180000000  0.5130960000000  0.6027380000000 1.0
C      1  0.4793040000000  0.5799410000000  0.4473440000000 1.0
C      1  0.5153790000000  0.5797970000000  0.4887920000000 1.0
C      1  0.4949370000000  0.5411900000000  0.5341940000000 1.0
C      1  0.5168420000000  0.5080880000000  0.4287640000000 1.0
END
