TITL C-247199-3331-571 -0.0172614973204372 125000 -99.7393321234531 0 0 19 (C1) n - 1
REM
REM in /home/nfs/bkarasulu/CARBON/AIRSS/Generating-Clusters/LCBOP/Only-C1/SD-CG/FIRE-HFTN
REM
REM
REM
REM
REM
REM ./C.cell (11c1c37f851c82e70ff6c80c92926a4b)
REM AIRSS Version 0.9.1 bugfix July 2018 build 013d7b7c2542+ Fri, 06 Jul 2018 19:26:36 +0100
REM compiler GCC version 9.2.1 20190827 (Red Hat 9.2.1-1)
REM options -cpp -mtune=generic -march=x86-64 -g -O0 -fpre-include=/usr/include/finclude/math-vector-fortran.h
REM seed 1873089717 1210749173 1556492431 -402990653 461306115 -1104049545 -188082284 -1648276222 601706831 -1637425675 341565023 99347308 598122640 -1209544581 -1129714496 1194089710 -936044536 242807294 1813774988 1687717491 1547875258 -1688519441 692322121 -584072159 -1937687754 1905116700 838854551 185752487 -1666919215 -915997603 -1366334729 1429182116 20378421
REM
CELL 1.54180   50.00000   50.00000   50.00000   90.00000   90.00000   90.00000
LATT -1
SFAC C  
C      1  0.4597860000000  0.4506130000000  0.5113160000000 1.0
C      1  0.4977320000000  0.5240690000000  0.5312320000000 1.0
C      1  0.5113320000000  0.5016420000000  0.4628370000000 1.0
C      1  0.4690440000000  0.4410890000000  0.4651080000000 1.0
C      1  0.4933940000000  0.5395550000000  0.5522800000000 1.0
C      1  0.5885980000000  0.5117810000000  0.4427850000000 1.0
C      1  0.4705720000000  0.5125390000000  0.4291850000000 1.0
C      1  0.4444720000000  0.4509800000000  0.5324000000000 1.0
C      1  0.4906090000000  0.5077860000000  0.4451550000000 1.0
C      1  0.5243770000000  0.4477480000000  0.4981730000000 1.0
C      1  0.4768850000000  0.4513920000000  0.4892100000000 1.0
C      1  0.5634570000000  0.5087620000000  0.4489850000000 1.0
C      1  0.5053030000000  0.4912240000000  0.4885570000000 1.0
C      1  0.5019240000000  0.5084570000000  0.5102540000000 1.0
C      1  0.4888050000000  0.5559160000000  0.5745240000000 1.0
C      1  0.5379350000000  0.5056230000000  0.4553610000000 1.0
C      1  0.5093420000000  0.5707870000000  0.5848600000000 1.0
C      1  0.4638290000000  0.5568720000000  0.5857060000000 1.0
C      1  0.5026060000000  0.4631640000000  0.4920710000000 1.0
END
