TITL C-247196-3112-184 4.3145291645184e-07 125000 -287.722770620347 0 0 49 (C1) n - 1
REM
REM in /home/nfs/bkarasulu/CARBON/AIRSS/Generating-Clusters/LCBOP/Only-C1/SD-CG/FIRE-HFTN
REM
REM
REM
REM
REM
REM ./C.cell (11c1c37f851c82e70ff6c80c92926a4b)
REM AIRSS Version 0.9.1 bugfix July 2018 build 013d7b7c2542+ Fri, 06 Jul 2018 19:26:36 +0100
REM compiler GCC version 9.2.1 20190827 (Red Hat 9.2.1-1)
REM options -cpp -mtune=generic -march=x86-64 -g -O0 -fpre-include=/usr/include/finclude/math-vector-fortran.h
REM seed 170941844 1484413106 -1418252021 -1290558799 -1474308400 1050968661 255112342 1780965272 -1150128221 -1824273675 -830215451 136429153 1564780428 717081936 349273801 1513093188 863786575 -1996410496 416419307 -321504467 2004930233 1166153618 -1219486943 -458867417 863738837 -665517121 954102523 869547914 1455752625 -2004097687 -995680879 -1478467905 -1630542602
REM
CELL 1.54180   50.00000   50.00000   50.00000   90.00000   90.00000   90.00000
LATT -1
SFAC C  
C      1  0.4370100000000  0.5184170000000  0.5184220000000 1.0
C      1  0.5142200000000  0.4150150000000  0.4739910000000 1.0
C      1  0.4479810000000  0.4813830000000  0.4399060000000 1.0
C      1  0.5731860000000  0.5290480000000  0.4415790000000 1.0
C      1  0.4826120000000  0.4517990000000  0.4727540000000 1.0
C      1  0.4772650000000  0.4656320000000  0.4967910000000 1.0
C      1  0.4959300000000  0.5132030000000  0.5005980000000 1.0
C      1  0.5426950000000  0.4727760000000  0.5041430000000 1.0
C      1  0.4779500000000  0.5810730000000  0.5096150000000 1.0
C      1  0.4942900000000  0.4704240000000  0.4531980000000 1.0
C      1  0.5879690000000  0.5433650000000  0.4255910000000 1.0
C      1  0.5351510000000  0.4595370000000  0.4798200000000 1.0
C      1  0.4482560000000  0.5325620000000  0.5402390000000 1.0
C      1  0.5008070000000  0.4817500000000  0.5385500000000 1.0
C      1  0.5135470000000  0.5338730000000  0.5399050000000 1.0
C      1  0.4781290000000  0.4620510000000  0.5269670000000 1.0
C      1  0.5354410000000  0.4313410000000  0.4778180000000 1.0
C      1  0.4928710000000  0.4882060000000  0.5669320000000 1.0
C      1  0.5598140000000  0.5406870000000  0.5002380000000 1.0
C      1  0.4224270000000  0.5101690000000  0.4722180000000 1.0
C      1  0.4593680000000  0.5703890000000  0.4934320000000 1.0
C      1  0.5374720000000  0.4967970000000  0.4494720000000 1.0
C      1  0.4617840000000  0.5258950000000  0.5625750000000 1.0
C      1  0.5038030000000  0.5108520000000  0.5272100000000 1.0
C      1  0.4359650000000  0.5268470000000  0.4906890000000 1.0
C      1  0.4752780000000  0.5102130000000  0.6063120000000 1.0
C      1  0.5878850000000  0.4867600000000  0.5165130000000 1.0
C      1  0.5213240000000  0.5587440000000  0.5287570000000 1.0
C      1  0.4753480000000  0.4891370000000  0.4412700000000 1.0
C      1  0.4765940000000  0.5081700000000  0.5790780000000 1.0
C      1  0.4545700000000  0.5461640000000  0.4795340000000 1.0
C      1  0.5224590000000  0.4749030000000  0.4584550000000 1.0
C      1  0.4996770000000  0.5333450000000  0.4816120000000 1.0
C      1  0.5010790000000  0.5773210000000  0.5226350000000 1.0
C      1  0.5270250000000  0.4699780000000  0.5279290000000 1.0
C      1  0.4881330000000  0.4096900000000  0.5426130000000 1.0
C      1  0.6100380000000  0.4822550000000  0.5294760000000 1.0
C      1  0.4781070000000  0.5176360000000  0.4428730000000 1.0
C      1  0.4777440000000  0.4935930000000  0.4927900000000 1.0
C      1  0.4337130000000  0.4908480000000  0.5248030000000 1.0
C      1  0.4829200000000  0.4341750000000  0.5354220000000 1.0
C      1  0.4774300000000  0.5365260000000  0.4640660000000 1.0
C      1  0.5640510000000  0.4917970000000  0.5028540000000 1.0
C      1  0.4269050000000  0.4916860000000  0.4532480000000 1.0
C      1  0.4500980000000  0.4715840000000  0.5342230000000 1.0
C      1  0.4889690000000  0.4244310000000  0.4713790000000 1.0
C      1  0.5459050000000  0.5580760000000  0.5150700000000 1.0
C      1  0.5613600000000  0.5157500000000  0.4873580000000 1.0
C      1  0.5574470000000  0.5141250000000  0.4590750000000 1.0
END
