TITL C-247196-3112-274 -4.44971380633718e-07 125000 -917.427242411618 0 0 148 (C1) n - 1
REM
REM in /home/nfs/bkarasulu/CARBON/AIRSS/Generating-Clusters/LCBOP/Only-C1/SD-CG/FIRE-HFTN
REM
REM
REM
REM
REM
REM ./C.cell (11c1c37f851c82e70ff6c80c92926a4b)
REM AIRSS Version 0.9.1 bugfix July 2018 build 013d7b7c2542+ Fri, 06 Jul 2018 19:26:36 +0100
REM compiler GCC version 9.2.1 20190827 (Red Hat 9.2.1-1)
REM options -cpp -mtune=generic -march=x86-64 -g -O0 -fpre-include=/usr/include/finclude/math-vector-fortran.h
REM seed -1056287255 -391396559 1123874787 -764758805 66796100 -328072198 -1733685163 -159934693 -355574214 -1450823875 -1826221772 -1973692741 1469160625 1985003294 -857003185 -964632082 -886245797 -386319509 552277581 -140542012 -2065438933 -757640266 586227939 -1192366513 -156163179 -2053089468 903780490 101174383 851115157 1114528414 368614081 -1586027594 1409950246
REM
CELL 1.54180   50.00000   50.00000   50.00000   90.00000   90.00000   90.00000
LATT -1
SFAC C  
C      1  0.5170130000000  0.4808030000000  0.3792440000000 1.0
C      1  0.5275170000000  0.5362540000000  0.5637430000000 1.0
C      1  0.5248560000000  0.5373330000000  0.5358400000000 1.0
C      1  0.4632910000000  0.5769040000000  0.5301480000000 1.0
C      1  0.5607420000000  0.4770720000000  0.5370790000000 1.0
C      1  0.3897820000000  0.4953370000000  0.4818320000000 1.0
C      1  0.4419810000000  0.4999220000000  0.4783930000000 1.0
C      1  0.5709090000000  0.4536830000000  0.5223820000000 1.0
C      1  0.5065340000000  0.3736110000000  0.4685120000000 1.0
C      1  0.4918730000000  0.6231770000000  0.5379870000000 1.0
C      1  0.5212720000000  0.4899630000000  0.6063860000000 1.0
C      1  0.6093790000000  0.5225000000000  0.4513850000000 1.0
C      1  0.4537600000000  0.5085060000000  0.3734500000000 1.0
C      1  0.5090640000000  0.6134150000000  0.5565520000000 1.0
C      1  0.4468540000000  0.4460800000000  0.4850130000000 1.0
C      1  0.5406210000000  0.4749870000000  0.4867060000000 1.0
C      1  0.5108170000000  0.3811090000000  0.4406640000000 1.0
C      1  0.5066590000000  0.4742180000000  0.4512860000000 1.0
C      1  0.4896720000000  0.6230600000000  0.5095470000000 1.0
C      1  0.5151640000000  0.4369080000000  0.4084340000000 1.0
C      1  0.4389190000000  0.5281350000000  0.4735640000000 1.0
C      1  0.4535220000000  0.5223640000000  0.4202570000000 1.0
C      1  0.4178980000000  0.4864900000000  0.3990150000000 1.0
C      1  0.6173200000000  0.4954510000000  0.5043060000000 1.0
C      1  0.4793880000000  0.3825260000000  0.4737300000000 1.0
C      1  0.4404280000000  0.5305880000000  0.5404140000000 1.0
C      1  0.5400300000000  0.5235430000000  0.4296720000000 1.0
C      1  0.5443810000000  0.5044600000000  0.5957240000000 1.0
C      1  0.5714810000000  0.6025300000000  0.4805240000000 1.0
C      1  0.3940020000000  0.5148090000000  0.4598140000000 1.0
C      1  0.3906680000000  0.4995800000000  0.4344130000000 1.0
C      1  0.5656050000000  0.4880560000000  0.5842560000000 1.0
C      1  0.4483500000000  0.4179380000000  0.4829690000000 1.0
C      1  0.5641120000000  0.4605290000000  0.5921520000000 1.0
C      1  0.5678890000000  0.5628020000000  0.5619180000000 1.0
C      1  0.4952250000000  0.4216180000000  0.4963300000000 1.0
C      1  0.4493020000000  0.5266430000000  0.6078950000000 1.0
C      1  0.5143710000000  0.5376490000000  0.4721250000000 1.0
C      1  0.4433540000000  0.4057100000000  0.4569920000000 1.0
C      1  0.5275970000000  0.5695720000000  0.4371220000000 1.0
C      1  0.4158350000000  0.4537550000000  0.5248990000000 1.0
C      1  0.5104530000000  0.5110110000000  0.4823590000000 1.0
C      1  0.4750240000000  0.4502750000000  0.5372680000000 1.0
C      1  0.5937340000000  0.5853740000000  0.4807540000000 1.0
C      1  0.4996500000000  0.5028820000000  0.6211410000000 1.0
C      1  0.4888840000000  0.3967420000000  0.4292060000000 1.0
C      1  0.5424620000000  0.4333900000000  0.4184060000000 1.0
C      1  0.5239060000000  0.3710780000000  0.4902890000000 1.0
C      1  0.5225840000000  0.5437850000000  0.6107470000000 1.0
C      1  0.5305740000000  0.3835130000000  0.5131780000000 1.0
C      1  0.4519620000000  0.5900740000000  0.5079110000000 1.0
C      1  0.5104450000000  0.4645810000000  0.4013000000000 1.0
C      1  0.4642950000000  0.4347160000000  0.4110830000000 1.0
C      1  0.5327520000000  0.4243530000000  0.4677010000000 1.0
C      1  0.5916030000000  0.5142090000000  0.5488020000000 1.0
C      1  0.6008520000000  0.4628070000000  0.4646310000000 1.0
C      1  0.5253110000000  0.5426940000000  0.4452860000000 1.0
C      1  0.4330730000000  0.4622890000000  0.5043810000000 1.0
C      1  0.5194930000000  0.5870780000000  0.5622900000000 1.0
C      1  0.5406780000000  0.5925740000000  0.4404020000000 1.0
C      1  0.6147730000000  0.4831430000000  0.4800100000000 1.0
C      1  0.5284060000000  0.4075740000000  0.5281420000000 1.0
C      1  0.4743850000000  0.5412480000000  0.6049640000000 1.0
C      1  0.4137660000000  0.5368990000000  0.5302270000000 1.0
C      1  0.6001930000000  0.5595430000000  0.4787340000000 1.0
C      1  0.5761620000000  0.4897240000000  0.4298990000000 1.0
C      1  0.4457500000000  0.4799220000000  0.5879560000000 1.0
C      1  0.4639680000000  0.4598810000000  0.4662180000000 1.0
C      1  0.4272590000000  0.4540100000000  0.5506410000000 1.0
C      1  0.4259930000000  0.5283570000000  0.4262040000000 1.0
C      1  0.4943110000000  0.4654920000000  0.5749940000000 1.0
C      1  0.4516710000000  0.4986590000000  0.6107930000000 1.0
C      1  0.4729930000000  0.4044180000000  0.4924980000000 1.0
C      1  0.5369790000000  0.4923140000000  0.5298370000000 1.0
C      1  0.6097610000000  0.5078250000000  0.5273570000000 1.0
C      1  0.4560260000000  0.4858840000000  0.4585420000000 1.0
C      1  0.4963290000000  0.5060430000000  0.5071010000000 1.0
C      1  0.4748740000000  0.4603130000000  0.6187450000000 1.0
C      1  0.4625510000000  0.5244480000000  0.3935480000000 1.0
C      1  0.5562490000000  0.6075500000000  0.5045650000000 1.0
C      1  0.5973800000000  0.4406430000000  0.4821960000000 1.0
C      1  0.5364930000000  0.4088900000000  0.5541060000000 1.0
C      1  0.4248680000000  0.4772510000000  0.5674450000000 1.0
C      1  0.5748480000000  0.4364490000000  0.4986860000000 1.0
C      1  0.5829270000000  0.4641760000000  0.4406750000000 1.0
C      1  0.3928280000000  0.4690520000000  0.4680420000000 1.0
C      1  0.5075460000000  0.5539580000000  0.5200020000000 1.0
C      1  0.3981670000000  0.4706240000000  0.4394030000000 1.0
C      1  0.5424110000000  0.5197270000000  0.5230620000000 1.0
C      1  0.5057490000000  0.4798310000000  0.4243980000000 1.0
C      1  0.4309420000000  0.5345780000000  0.5873760000000 1.0
C      1  0.4074520000000  0.5096950000000  0.4131840000000 1.0
C      1  0.5710310000000  0.4990250000000  0.4030250000000 1.0
C      1  0.4612540000000  0.5386000000000  0.4880090000000 1.0
C      1  0.5754220000000  0.4919240000000  0.5576800000000 1.0
C      1  0.4929790000000  0.5824800000000  0.4830050000000 1.0
C      1  0.5281400000000  0.5055200000000  0.3816730000000 1.0
C      1  0.4175660000000  0.4634280000000  0.4176300000000 1.0
C      1  0.5395620000000  0.4486510000000  0.5923810000000 1.0
C      1  0.4748010000000  0.5534760000000  0.5782300000000 1.0
C      1  0.4403260000000  0.4900590000000  0.5051450000000 1.0
C      1  0.5608990000000  0.5330210000000  0.5067090000000 1.0
C      1  0.4662120000000  0.3909700000000  0.4475890000000 1.0
C      1  0.5949570000000  0.5324600000000  0.4724860000000 1.0
C      1  0.4755640000000  0.6019110000000  0.4953200000000 1.0
C      1  0.3991310000000  0.5114480000000  0.5339070000000 1.0
C      1  0.5382340000000  0.6289220000000  0.5028860000000 1.0
C      1  0.4338250000000  0.4903760000000  0.3761920000000 1.0
C      1  0.4489530000000  0.5426800000000  0.5652170000000 1.0
C      1  0.4751290000000  0.4885440000000  0.6259300000000 1.0
C      1  0.5071400000000  0.5588740000000  0.4910160000000 1.0
C      1  0.3884030000000  0.5004820000000  0.5097570000000 1.0
C      1  0.4112470000000  0.5606320000000  0.5149430000000 1.0
C      1  0.5546350000000  0.4230000000000  0.4835890000000 1.0
C      1  0.5473050000000  0.5809380000000  0.5510510000000 1.0
C      1  0.4696260000000  0.4615070000000  0.5896770000000 1.0
C      1  0.5537690000000  0.5852120000000  0.5224550000000 1.0
C      1  0.5614860000000  0.5607310000000  0.5098940000000 1.0
C      1  0.4519280000000  0.5098750000000  0.5242010000000 1.0
C      1  0.4180680000000  0.5317880000000  0.4546230000000 1.0
C      1  0.4525280000000  0.4410360000000  0.5491590000000 1.0
C      1  0.4908690000000  0.4528540000000  0.4606100000000 1.0
C      1  0.5163820000000  0.4295550000000  0.5142660000000 1.0
C      1  0.4075430000000  0.5201860000000  0.5810080000000 1.0
C      1  0.4879430000000  0.5662290000000  0.5361470000000 1.0
C      1  0.5078500000000  0.4880460000000  0.5284480000000 1.0
C      1  0.5839510000000  0.5408390000000  0.5576410000000 1.0
C      1  0.4065660000000  0.4997070000000  0.5606420000000 1.0
C      1  0.4941010000000  0.4694010000000  0.5462070000000 1.0
C      1  0.5587910000000  0.5073330000000  0.4446500000000 1.0
C      1  0.4728310000000  0.5213090000000  0.5085250000000 1.0
C      1  0.4253330000000  0.5812620000000  0.5038550000000 1.0
C      1  0.4978800000000  0.5316350000000  0.6175680000000 1.0
C      1  0.5460300000000  0.5147700000000  0.4014930000000 1.0
C      1  0.4954760000000  0.5684650000000  0.5639920000000 1.0
C      1  0.4395570000000  0.4452590000000  0.4153840000000 1.0
C      1  0.5654910000000  0.4431210000000  0.4300240000000 1.0
C      1  0.4637070000000  0.5014680000000  0.4364070000000 1.0
C      1  0.5125190000000  0.6345500000000  0.4975770000000 1.0
C      1  0.5053060000000  0.4311060000000  0.4708540000000 1.0
C      1  0.5369850000000  0.5312160000000  0.5896820000000 1.0
C      1  0.5169670000000  0.4655920000000  0.5918510000000 1.0
C      1  0.5206960000000  0.4877240000000  0.4708990000000 1.0
C      1  0.4901740000000  0.4215430000000  0.4144940000000 1.0
C      1  0.5579440000000  0.6056700000000  0.4560010000000 1.0
C      1  0.5299700000000  0.4540030000000  0.5048790000000 1.0
C      1  0.5748610000000  0.5178450000000  0.4875370000000 1.0
C      1  0.5649730000000  0.4906050000000  0.4866190000000 1.0
END
