TITL C-247195-3186-50 -1.66376430065026e-05 125000 -382.89237104586 0 0 64 (C1) n - 1
REM
REM in /home/nfs/bkarasulu/CARBON/AIRSS/Generating-Clusters/LCBOP/Only-C1/SD-CG/FIRE-HFTN
REM
REM
REM
REM
REM
REM ./C.cell (11c1c37f851c82e70ff6c80c92926a4b)
REM AIRSS Version 0.9.1 bugfix July 2018 build 013d7b7c2542+ Fri, 06 Jul 2018 19:26:36 +0100
REM compiler GCC version 9.2.1 20190827 (Red Hat 9.2.1-1)
REM options -cpp -mtune=generic -march=x86-64 -g -O0 -fpre-include=/usr/include/finclude/math-vector-fortran.h
REM seed -1042744773 713279057 -2049915001 -2023078120 622869982 -1243566998 624140428 -1535192459 -224408999 1999465625 -1349744821 1962121858 -2109039400 -602817756 -1039003984 530802980 1639166418 600241153 -324629472 -1205340417 781415252 -1358036981 426017339 -341717509 -720792144 -1313693479 1368384053 -958899197 -1768298430 933321861 1904427711 -271779122 -1306067120
REM
CELL 1.54180   50.00000   50.00000   50.00000   90.00000   90.00000   90.00000
LATT -1
SFAC C  
C      1  0.4822410000000  0.5690590000000  0.4747760000000 1.0
C      1  0.5260110000000  0.5391880000000  0.5174530000000 1.0
C      1  0.5710410000000  0.4722600000000  0.4861980000000 1.0
C      1  0.5744480000000  0.5190110000000  0.4755950000000 1.0
C      1  0.5153880000000  0.4880170000000  0.5111030000000 1.0
C      1  0.4354960000000  0.5366700000000  0.5246070000000 1.0
C      1  0.4508210000000  0.4998230000000  0.4707830000000 1.0
C      1  0.4262790000000  0.4900620000000  0.5283770000000 1.0
C      1  0.4497880000000  0.4737900000000  0.5254360000000 1.0
C      1  0.4823170000000  0.5291950000000  0.4952030000000 1.0
C      1  0.5177110000000  0.4594870000000  0.5254520000000 1.0
C      1  0.5177650000000  0.4836610000000  0.4564250000000 1.0
C      1  0.5074610000000  0.4420560000000  0.5020090000000 1.0
C      1  0.5249910000000  0.5501120000000  0.4908300000000 1.0
C      1  0.5300790000000  0.4336180000000  0.4853970000000 1.0
C      1  0.5087050000000  0.5729090000000  0.4852520000000 1.0
C      1  0.4967490000000  0.5304350000000  0.5209570000000 1.0
C      1  0.4570490000000  0.5567670000000  0.5216990000000 1.0
C      1  0.5186890000000  0.5270770000000  0.4745950000000 1.0
C      1  0.5057450000000  0.4597410000000  0.5541110000000 1.0
C      1  0.5188110000000  0.4979640000000  0.4822420000000 1.0
C      1  0.5284000000000  0.4097890000000  0.4709330000000 1.0
C      1  0.4396850000000  0.5455190000000  0.4764770000000 1.0
C      1  0.4925600000000  0.5014800000000  0.5279980000000 1.0
C      1  0.5072840000000  0.5343170000000  0.4482730000000 1.0
C      1  0.4813940000000  0.5508690000000  0.5375350000000 1.0
C      1  0.5744300000000  0.4914110000000  0.4645090000000 1.0
C      1  0.5291010000000  0.5247330000000  0.4313540000000 1.0
C      1  0.5481860000000  0.5053050000000  0.5470270000000 1.0
C      1  0.5346210000000  0.4960510000000  0.4362300000000 1.0
C      1  0.4850230000000  0.4148500000000  0.5755010000000 1.0
C      1  0.5696870000000  0.5171960000000  0.5044420000000 1.0
C      1  0.4691110000000  0.5058110000000  0.4900880000000 1.0
C      1  0.5499370000000  0.5256450000000  0.5251020000000 1.0
C      1  0.5529840000000  0.5405950000000  0.4347310000000 1.0
C      1  0.4821060000000  0.5497820000000  0.4511830000000 1.0
C      1  0.4547870000000  0.5380030000000  0.4501990000000 1.0
C      1  0.4526750000000  0.5096210000000  0.4444040000000 1.0
C      1  0.5613160000000  0.4813680000000  0.5354590000000 1.0
C      1  0.4701720000000  0.4885300000000  0.5128250000000 1.0
C      1  0.4583620000000  0.4539190000000  0.4733000000000 1.0
C      1  0.4500450000000  0.5135680000000  0.5896200000000 1.0
C      1  0.4703630000000  0.4634200000000  0.4470530000000 1.0
C      1  0.4248850000000  0.5276190000000  0.4971620000000 1.0
C      1  0.5467510000000  0.4572640000000  0.5334500000000 1.0
C      1  0.4562730000000  0.5090590000000  0.5632550000000 1.0
C      1  0.4794540000000  0.4432670000000  0.4915970000000 1.0
C      1  0.4187090000000  0.4962400000000  0.5000210000000 1.0
C      1  0.5267050000000  0.5071660000000  0.5665890000000 1.0
C      1  0.4588360000000  0.4850260000000  0.4306310000000 1.0
C      1  0.5154720000000  0.5337050000000  0.5720120000000 1.0
C      1  0.4341670000000  0.4795130000000  0.4801310000000 1.0
C      1  0.4959750000000  0.5508370000000  0.5625480000000 1.0
C      1  0.5618600000000  0.4881820000000  0.4392920000000 1.0
C      1  0.5739780000000  0.4880530000000  0.5106820000000 1.0
C      1  0.4358710000000  0.5140500000000  0.5429220000000 1.0
C      1  0.4955130000000  0.4366250000000  0.5657670000000 1.0
C      1  0.5700010000000  0.5392000000000  0.4561280000000 1.0
C      1  0.4587010000000  0.5641910000000  0.4921850000000 1.0
C      1  0.5540650000000  0.4494960000000  0.4841370000000 1.0
C      1  0.4825060000000  0.4990260000000  0.5563150000000 1.0
C      1  0.4987520000000  0.4648700000000  0.4481680000000 1.0
C      1  0.5258420000000  0.3880840000000  0.4567400000000 1.0
C      1  0.5058700000000  0.4858430000000  0.5675270000000 1.0
END
