TITL C-247201-3759-147 -7.91143673523081e-08 125000 -569.109868548069 0 0 93 (C1) n - 1
REM
REM in /home/nfs/bkarasulu/CARBON/AIRSS/Generating-Clusters/LCBOP/Only-C1/SD-CG/FIRE-HFTN
REM
REM
REM
REM
REM
REM ./C.cell (11c1c37f851c82e70ff6c80c92926a4b)
REM AIRSS Version 0.9.1 bugfix July 2018 build 013d7b7c2542+ Fri, 06 Jul 2018 19:26:36 +0100
REM compiler GCC version 9.2.1 20190827 (Red Hat 9.2.1-1)
REM options -cpp -mtune=generic -march=x86-64 -g -O0 -fpre-include=/usr/include/finclude/math-vector-fortran.h
REM seed -1432107702 279012987 -1828072430 43081477 1759761315 2111716545 -1109051741 -1427595498 1645810459 6748258 1711046821 212181817 1963388964 -487883330 -1216328367 1878202664 629522759 -2133455300 -435761609 1563463840 1050612286 1618510341 -963642465 -83195244 -1597329157 596095652 -320858045 -100110966 1276326761 765034412 552680069 -1166727157 -2036881873
REM
CELL 1.54180   50.00000   50.00000   50.00000   90.00000   90.00000   90.00000
LATT -1
SFAC C  
C      1  0.5203840000000  0.5117130000000  0.4682100000000 1.0
C      1  0.4703170000000  0.4414550000000  0.4164950000000 1.0
C      1  0.5177730000000  0.5279540000000  0.5821420000000 1.0
C      1  0.6177190000000  0.5387300000000  0.5122900000000 1.0
C      1  0.5180530000000  0.5722880000000  0.4650160000000 1.0
C      1  0.5655830000000  0.4953920000000  0.5693100000000 1.0
C      1  0.4644170000000  0.5123790000000  0.4082780000000 1.0
C      1  0.4141480000000  0.4703230000000  0.5416630000000 1.0
C      1  0.5485320000000  0.4267400000000  0.4672100000000 1.0
C      1  0.5386600000000  0.4652450000000  0.5428080000000 1.0
C      1  0.4312230000000  0.4182820000000  0.4614510000000 1.0
C      1  0.4704190000000  0.5349270000000  0.5092430000000 1.0
C      1  0.5345640000000  0.5681060000000  0.4876820000000 1.0
C      1  0.5099840000000  0.4846800000000  0.4066980000000 1.0
C      1  0.5696220000000  0.5159250000000  0.5504390000000 1.0
C      1  0.4901440000000  0.5743320000000  0.4742970000000 1.0
C      1  0.5277810000000  0.4073640000000  0.4727370000000 1.0
C      1  0.4486610000000  0.4632530000000  0.4682370000000 1.0
C      1  0.5022860000000  0.4499460000000  0.4552460000000 1.0
C      1  0.5044330000000  0.5047150000000  0.5871720000000 1.0
C      1  0.4334420000000  0.5553090000000  0.5336910000000 1.0
C      1  0.5142160000000  0.4118940000000  0.4980720000000 1.0
C      1  0.4046350000000  0.5014050000000  0.4964980000000 1.0
C      1  0.5220610000000  0.4802460000000  0.5240010000000 1.0
C      1  0.4838780000000  0.5278300000000  0.5527870000000 1.0
C      1  0.5002310000000  0.4671190000000  0.5077140000000 1.0
C      1  0.4863080000000  0.4200060000000  0.5046640000000 1.0
C      1  0.4872210000000  0.4596660000000  0.5645650000000 1.0
C      1  0.4644500000000  0.5255690000000  0.5714530000000 1.0
C      1  0.5028970000000  0.4761500000000  0.5834240000000 1.0
C      1  0.5526470000000  0.4663950000000  0.4365840000000 1.0
C      1  0.4527110000000  0.5327920000000  0.4221390000000 1.0
C      1  0.5628680000000  0.4727210000000  0.4863060000000 1.0
C      1  0.5374610000000  0.5519290000000  0.5099370000000 1.0
C      1  0.4619210000000  0.4669880000000  0.5509500000000 1.0
C      1  0.4434650000000  0.5778870000000  0.5443000000000 1.0
C      1  0.4387260000000  0.4673700000000  0.4418500000000 1.0
C      1  0.5359960000000  0.4283470000000  0.5130570000000 1.0
C      1  0.4227240000000  0.5367520000000  0.4603460000000 1.0
C      1  0.4463170000000  0.5470300000000  0.4465110000000 1.0
C      1  0.5694150000000  0.5319570000000  0.4337780000000 1.0
C      1  0.4640480000000  0.4846570000000  0.4800010000000 1.0
C      1  0.4904720000000  0.5822760000000  0.5034280000000 1.0
C      1  0.4095870000000  0.5191930000000  0.4764300000000 1.0
C      1  0.4928420000000  0.5813010000000  0.5328820000000 1.0
C      1  0.4465210000000  0.4353520000000  0.4768810000000 1.0
C      1  0.5129140000000  0.5686810000000  0.5507900000000 1.0
C      1  0.6071400000000  0.5633590000000  0.5148850000000 1.0
C      1  0.5292210000000  0.5473320000000  0.5643340000000 1.0
C      1  0.4473000000000  0.4552730000000  0.4192440000000 1.0
C      1  0.5822350000000  0.5705370000000  0.5219890000000 1.0
C      1  0.4699650000000  0.5327330000000  0.4818900000000 1.0
C      1  0.5453370000000  0.5201870000000  0.4703900000000 1.0
C      1  0.5805430000000  0.5066670000000  0.5245970000000 1.0
C      1  0.5297510000000  0.4667010000000  0.5884540000000 1.0
C      1  0.6061400000000  0.5148260000000  0.5164940000000 1.0
C      1  0.4206820000000  0.4994780000000  0.5821290000000 1.0
C      1  0.4396150000000  0.5055310000000  0.5277810000000 1.0
C      1  0.5333990000000  0.4767900000000  0.4180160000000 1.0
C      1  0.4681560000000  0.5561850000000  0.4651510000000 1.0
C      1  0.4154510000000  0.4915320000000  0.5208600000000 1.0
C      1  0.4977580000000  0.5127390000000  0.4524730000000 1.0
C      1  0.5073460000000  0.4609560000000  0.4790670000000 1.0
C      1  0.5658990000000  0.5113450000000  0.4531310000000 1.0
C      1  0.5585530000000  0.5570760000000  0.5282190000000 1.0
C      1  0.4420380000000  0.4301470000000  0.5246410000000 1.0
C      1  0.4852040000000  0.4954380000000  0.4029480000000 1.0
C      1  0.4739970000000  0.5083590000000  0.4676000000000 1.0
C      1  0.4932510000000  0.5305610000000  0.5258270000000 1.0
C      1  0.5613760000000  0.4948880000000  0.5066740000000 1.0
C      1  0.5541750000000  0.5546020000000  0.4312720000000 1.0
C      1  0.5007810000000  0.5294660000000  0.4299940000000 1.0
C      1  0.5310270000000  0.4378400000000  0.5403890000000 1.0
C      1  0.5537760000000  0.4386290000000  0.4422280000000 1.0
C      1  0.5341480000000  0.5032810000000  0.5137630000000 1.0
C      1  0.4915600000000  0.4420930000000  0.5218650000000 1.0
C      1  0.4573890000000  0.4239290000000  0.5007430000000 1.0
C      1  0.5653920000000  0.4824310000000  0.4572560000000 1.0
C      1  0.4682740000000  0.5882160000000  0.5456180000000 1.0
C      1  0.5483260000000  0.4734030000000  0.5681300000000 1.0
C      1  0.5207550000000  0.5287020000000  0.5157450000000 1.0
C      1  0.4074310000000  0.4810820000000  0.5673500000000 1.0
C      1  0.4913170000000  0.4397140000000  0.4331360000000 1.0
C      1  0.5023580000000  0.4398240000000  0.5480840000000 1.0
C      1  0.4451890000000  0.5324780000000  0.5225380000000 1.0
C      1  0.5533560000000  0.4436750000000  0.4916520000000 1.0
C      1  0.5551590000000  0.5412430000000  0.5517910000000 1.0
C      1  0.4374620000000  0.4518770000000  0.5426900000000 1.0
C      1  0.4746440000000  0.4818080000000  0.5062700000000 1.0
C      1  0.5331070000000  0.5689410000000  0.4410580000000 1.0
C      1  0.5051610000000  0.5440710000000  0.4086830000000 1.0
C      1  0.4422150000000  0.5155490000000  0.5826820000000 1.0
C      1  0.4619670000000  0.4879330000000  0.5306120000000 1.0
END
