TITL C-247201-3759-446 71.2655592923073 125000 -1208.54189955151 0 0 196 (C1) n - 1
REM
REM in /home/nfs/bkarasulu/CARBON/AIRSS/Generating-Clusters/LCBOP/Only-C1/SD-CG/FIRE-HFTN
REM
REM
REM
REM
REM
REM ./C.cell (11c1c37f851c82e70ff6c80c92926a4b)
REM AIRSS Version 0.9.1 bugfix July 2018 build 013d7b7c2542+ Fri, 06 Jul 2018 19:26:36 +0100
REM compiler GCC version 9.2.1 20190827 (Red Hat 9.2.1-1)
REM options -cpp -mtune=generic -march=x86-64 -g -O0 -fpre-include=/usr/include/finclude/math-vector-fortran.h
REM seed -84040881 2079720050 -366693957 1908092510 -1456996385 -896557926 -1495880787 -175110162 2065999694 -1540123230 776723871 2012876169 -1494408748 -159440827 1708880877 -1132328068 -733860562 1769437704 20972555 580254583 -1033485803 388191862 1273830711 1070599461 -2032656635 979155408 69805494 1198714337 -1441191305 327596734 1941643416 1289449146 -1413352203
REM
CELL 1.54180   50.00000   50.00000   50.00000   90.00000   90.00000   90.00000
LATT -1
SFAC C  
C      1  0.5199130000000  0.4250330000000  0.5095240000000 1.0
C      1  0.4881110000000  0.4145170000000  0.5228710000000 1.0
C      1  0.4962040000000  0.4473860000000  0.4725430000000 1.0
C      1  0.5614740000000  0.4928910000000  0.5168710000000 1.0
C      1  0.5434060000000  0.4984860000000  0.6836900000000 1.0
C      1  0.5511180000000  0.5212790000000  0.4336530000000 1.0
C      1  0.4796520000000  0.5430390000000  0.5751650000000 1.0
C      1  0.4174390000000  0.5249800000000  0.4440150000000 1.0
C      1  0.4730550000000  0.4321530000000  0.4043830000000 1.0
C      1  0.4310310000000  0.5156750000000  0.3926520000000 1.0
C      1  0.4874650000000  0.3885290000000  0.5068560000000 1.0
C      1  0.5011920000000  0.4907760000000  0.5662260000000 1.0
C      1  0.5162850000000  0.6137020000000  0.4588670000000 1.0
C      1  0.5527180000000  0.4034630000000  0.5338540000000 1.0
C      1  0.5500800000000  0.5631250000000  0.6040880000000 1.0
C      1  0.6115060000000  0.4718370000000  0.4929540000000 1.0
C      1  0.3954610000000  0.5424490000000  0.4496550000000 1.0
C      1  0.5288550000000  0.4398780000000  0.4068060000000 1.0
C      1  0.5342330000000  0.4190120000000  0.4259220000000 1.0
C      1  0.4447940000000  0.4006890000000  0.5390040000000 1.0
C      1  0.5700520000000  0.5138870000000  0.5023330000000 1.0
C      1  0.4154840000000  0.4243290000000  0.4766630000000 1.0
C      1  0.5975190000000  0.4596880000000  0.5425120000000 1.0
C      1  0.3901610000000  0.5595120000000  0.4276880000000 1.0
C      1  0.4817350000000  0.4734590000000  0.5427250000000 1.0
C      1  0.6109850000000  0.4222810000000  0.4794430000000 1.0
C      1  0.4423110000000  0.4484470000000  0.5204960000000 1.0
C      1  0.5542040000000  0.5275070000000  0.4833570000000 1.0
C      1  0.3890140000000  0.4844420000000  0.5525420000000 1.0
C      1  0.6042410000000  0.4934640000000  0.4460340000000 1.0
C      1  0.4823620000000  0.5573440000000  0.3823290000000 1.0
C      1  0.3832840000000  0.5633350000000  0.5613290000000 1.0
C      1  0.5444380000000  0.5879190000000  0.5617200000000 1.0
C      1  0.5089480000000  0.5425410000000  0.4861420000000 1.0
C      1  0.4168970000000  0.5398010000000  0.3899630000000 1.0
C      1  0.4567480000000  0.5321750000000  0.5631660000000 1.0
C      1  0.5419900000000  0.4960460000000  0.5372840000000 1.0
C      1  0.4991300000000  0.5120700000000  0.4433880000000 1.0
C      1  0.6085130000000  0.4537040000000  0.5155060000000 1.0
C      1  0.4260670000000  0.4351360000000  0.4513240000000 1.0
C      1  0.4496530000000  0.4347910000000  0.5787390000000 1.0
C      1  0.4072520000000  0.4829410000000  0.4594350000000 1.0
C      1  0.6076820000000  0.5140470000000  0.5448570000000 1.0
C      1  0.4244900000000  0.5482620000000  0.5366860000000 1.0
C      1  0.4907910000000  0.6321140000000  0.5018250000000 1.0
C      1  0.3773220000000  0.5357930000000  0.4707120000000 1.0
C      1  0.5719650000000  0.4993270000000  0.3752830000000 1.0
C      1  0.4262680000000  0.5161670000000  0.6004920000000 1.0
C      1  0.5398710000000  0.4989980000000  0.6299310000000 1.0
C      1  0.5026060000000  0.4914080000000  0.4848890000000 1.0
C      1  0.5215920000000  0.3730820000000  0.4750860000000 1.0
C      1  0.4241920000000  0.4255660000000  0.4236650000000 1.0
C      1  0.4288360000000  0.4922790000000  0.4752840000000 1.0
C      1  0.5487180000000  0.4548080000000  0.4821940000000 1.0
C      1  0.4843010000000  0.5807030000000  0.3960440000000 1.0
C      1  0.5887570000000  0.5547450000000  0.4903960000000 1.0
C      1  0.5573500000000  0.4161700000000  0.4444030000000 1.0
C      1  0.4622720000000  0.4922810000000  0.5384150000000 1.0
C      1  0.5835340000000  0.4430410000000  0.4154660000000 1.0
C      1  0.5673220000000  0.5242530000000  0.4575840000000 1.0
C      1  0.4043810000000  0.4607980000000  0.5618460000000 1.0
C      1  0.5113790000000  0.5433010000000  0.5381690000000 1.0
C      1  0.6156710000000  0.5232830000000  0.5188710000000 1.0
C      1  0.5113420000000  0.3817890000000  0.4500690000000 1.0
C      1  0.4430930000000  0.4968040000000  0.5873290000000 1.0
C      1  0.4226650000000  0.4679400000000  0.5122960000000 1.0
C      1  0.5516340000000  0.4747520000000  0.4352760000000 1.0
C      1  0.4005270000000  0.5568830000000  0.4028020000000 1.0
C      1  0.4718940000000  0.5927380000000  0.5237110000000 1.0
C      1  0.5366980000000  0.5374840000000  0.6002360000000 1.0
C      1  0.4919180000000  0.4837730000000  0.4403140000000 1.0
C      1  0.5261160000000  0.4725520000000  0.5329990000000 1.0
C      1  0.4542970000000  0.4988830000000  0.4619580000000 1.0
C      1  0.5342440000000  0.4250840000000  0.5327480000000 1.0
C      1  0.4516470000000  0.5048110000000  0.5610060000000 1.0
C      1  0.5530750000000  0.5748920000000  0.5381930000000 1.0
C      1  0.4734790000000  0.6214970000000  0.5207840000000 1.0
C      1  0.4550010000000  0.4532710000000  0.5996150000000 1.0
C      1  0.4732070000000  0.4969660000000  0.4867950000000 1.0
C      1  0.4644160000000  0.5448110000000  0.4380180000000 1.0
C      1  0.5533440000000  0.4804870000000  0.6137200000000 1.0
C      1  0.5271910000000  0.4281140000000  0.5858890000000 1.0
C      1  0.5772470000000  0.5556320000000  0.5969400000000 1.0
C      1  0.5112930000000  0.3744000000000  0.5022090000000 1.0
C      1  0.4396930000000  0.6149250000000  0.5555980000000 1.0
C      1  0.4533360000000  0.4477270000000  0.4508820000000 1.0
C      1  0.4859200000000  0.4188930000000  0.4269780000000 1.0
C      1  0.4194910000000  0.4931610000000  0.4081270000000 1.0
C      1  0.3800900000000  0.4854890000000  0.5248990000000 1.0
C      1  0.5961780000000  0.5388490000000  0.5555570000000 1.0
C      1  0.5454150000000  0.4932610000000  0.3749140000000 1.0
C      1  0.5787680000000  0.4126170000000  0.5424860000000 1.0
C      1  0.5361900000000  0.5558180000000  0.5244950000000 1.0
C      1  0.5241420000000  0.5182590000000  0.6164170000000 1.0
C      1  0.5385590000000  0.4670640000000  0.4588640000000 1.0
C      1  0.5429970000000  0.6017750000000  0.4590150000000 1.0
C      1  0.5565340000000  0.4663550000000  0.5914300000000 1.0
C      1  0.6104420000000  0.4259820000000  0.5073890000000 1.0
C      1  0.5781490000000  0.5801200000000  0.4978170000000 1.0
C      1  0.6028490000000  0.4867070000000  0.5511620000000 1.0
C      1  0.4610280000000  0.5730710000000  0.4363970000000 1.0
C      1  0.5795080000000  0.5784380000000  0.5270720000000 1.0
C      1  0.4419730000000  0.5628920000000  0.6077330000000 1.0
C      1  0.6065140000000  0.4688830000000  0.4641170000000 1.0
C      1  0.5117940000000  0.5570880000000  0.4370540000000 1.0
C      1  0.6321850000000  0.5528240000000  0.4885890000000 1.0
C      1  0.6033360000000  0.5631910000000  0.5374410000000 1.0
C      1  0.4484750000000  0.5871510000000  0.5946700000000 1.0
C      1  0.5935400000000  0.5277420000000  0.5016210000000 1.0
C      1  0.3957710000000  0.5867460000000  0.5550090000000 1.0
C      1  0.5752870000000  0.4691780000000  0.4196030000000 1.0
C      1  0.5262990000000  0.5148860000000  0.5545530000000 1.0
C      1  0.5092710000000  0.4709650000000  0.4617210000000 1.0
C      1  0.6208230000000  0.5375370000000  0.4669480000000 1.0
C      1  0.5831550000000  0.4281050000000  0.4391950000000 1.0
C      1  0.5980290000000  0.5200110000000  0.4569130000000 1.0
C      1  0.4164420000000  0.6024100000000  0.5428030000000 1.0
C      1  0.3647410000000  0.5152520000000  0.4859490000000 1.0
C      1  0.4794290000000  0.5904150000000  0.4225930000000 1.0
C      1  0.4926580000000  0.5399280000000  0.5121020000000 1.0
C      1  0.3860920000000  0.4735500000000  0.4765320000000 1.0
C      1  0.5937290000000  0.4911280000000  0.4185000000000 1.0
C      1  0.4669200000000  0.3868360000000  0.4877980000000 1.0
C      1  0.5130740000000  0.4626460000000  0.3977490000000 1.0
C      1  0.5487260000000  0.4460180000000  0.5719010000000 1.0
C      1  0.4645690000000  0.5339430000000  0.5126320000000 1.0
C      1  0.4635720000000  0.4794990000000  0.3906130000000 1.0
C      1  0.4443430000000  0.4258520000000  0.4044770000000 1.0
C      1  0.5787190000000  0.5379170000000  0.4021710000000 1.0
C      1  0.4578760000000  0.5045500000000  0.5117790000000 1.0
C      1  0.5418380000000  0.4985640000000  0.6576770000000 1.0
C      1  0.6258750000000  0.5514050000000  0.5183750000000 1.0
C      1  0.4777720000000  0.5839100000000  0.5510960000000 1.0
C      1  0.4092710000000  0.4980140000000  0.4343060000000 1.0
C      1  0.4574300000000  0.5962310000000  0.5695670000000 1.0
C      1  0.4547650000000  0.6334300000000  0.5390000000000 1.0
C      1  0.4236310000000  0.4375420000000  0.5610810000000 1.0
C      1  0.3679120000000  0.5093540000000  0.5139170000000 1.0
C      1  0.4839060000000  0.4587020000000  0.3949300000000 1.0
C      1  0.4626310000000  0.4014060000000  0.4659620000000 1.0
C      1  0.5370250000000  0.5645450000000  0.4246250000000 1.0
C      1  0.4463140000000  0.5255050000000  0.4483930000000 1.0
C      1  0.5754050000000  0.5375130000000  0.5741590000000 1.0
C      1  0.4728850000000  0.4464020000000  0.5200870000000 1.0
C      1  0.5073230000000  0.5635580000000  0.4651610000000 1.0
C      1  0.5004190000000  0.4225130000000  0.5835370000000 1.0
C      1  0.4900810000000  0.4909030000000  0.5930490000000 1.0
C      1  0.3939880000000  0.4689790000000  0.5054050000000 1.0
C      1  0.4274820000000  0.4243860000000  0.5315130000000 1.0
C      1  0.5097270000000  0.5165620000000  0.4705900000000 1.0
C      1  0.4699030000000  0.4234710000000  0.4500430000000 1.0
C      1  0.4934590000000  0.5599510000000  0.5570230000000 1.0
C      1  0.6009140000000  0.4070810000000  0.5258420000000 1.0
C      1  0.3799930000000  0.5365560000000  0.5653270000000 1.0
C      1  0.4916450000000  0.5365680000000  0.4319930000000 1.0
C      1  0.4256700000000  0.5442710000000  0.5925030000000 1.0
C      1  0.4792070000000  0.4499060000000  0.4924240000000 1.0
C      1  0.5484240000000  0.3831980000000  0.4813160000000 1.0
C      1  0.6012660000000  0.4394810000000  0.4588140000000 1.0
C      1  0.4591380000000  0.5090520000000  0.3853090000000 1.0
C      1  0.4757770000000  0.5312570000000  0.3795490000000 1.0
C      1  0.4972880000000  0.6071390000000  0.4377790000000 1.0
C      1  0.5617960000000  0.4687360000000  0.5023190000000 1.0
C      1  0.5341390000000  0.4495660000000  0.5464030000000 1.0
C      1  0.5281740000000  0.4879700000000  0.3970150000000 1.0
C      1  0.5544410000000  0.5437820000000  0.4164630000000 1.0
C      1  0.4481290000000  0.5806950000000  0.5118380000000 1.0
C      1  0.4642310000000  0.4751750000000  0.4455080000000 1.0
C      1  0.5609320000000  0.5959230000000  0.4810550000000 1.0
C      1  0.5512200000000  0.4090550000000  0.4715080000000 1.0
C      1  0.4318180000000  0.4930180000000  0.5031960000000 1.0
C      1  0.5101900000000  0.4042150000000  0.4322110000000 1.0
C      1  0.4130440000000  0.4172170000000  0.5037090000000 1.0
C      1  0.3626340000000  0.4895140000000  0.4730750000000 1.0
C      1  0.4632980000000  0.4799300000000  0.5981470000000 1.0
C      1  0.5118040000000  0.4789560000000  0.5096930000000 1.0
C      1  0.4742800000000  0.4197970000000  0.5714780000000 1.0
C      1  0.4828210000000  0.5373050000000  0.6030530000000 1.0
C      1  0.5469430000000  0.5271080000000  0.5743810000000 1.0
C      1  0.3844710000000  0.5096470000000  0.5657720000000 1.0
C      1  0.5870640000000  0.5105310000000  0.3970920000000 1.0
C      1  0.5378290000000  0.4290230000000  0.4871360000000 1.0
C      1  0.4719250000000  0.4058810000000  0.5468460000000 1.0
C      1  0.4441230000000  0.5530290000000  0.5164270000000 1.0
C      1  0.5067620000000  0.6283780000000  0.4808220000000 1.0
C      1  0.5396410000000  0.4973820000000  0.4225150000000 1.0
C      1  0.4644920000000  0.5504440000000  0.6200390000000 1.0
C      1  0.5485840000000  0.5882860000000  0.4346090000000 1.0
C      1  0.5800840000000  0.4387190000000  0.5556990000000 1.0
C      1  0.4365670000000  0.4716840000000  0.3999480000000 1.0
C      1  0.4316340000000  0.5461480000000  0.5639400000000 1.0
C      1  0.4238640000000  0.5957980000000  0.5156500000000 1.0
C      1  0.5368070000000  0.5455900000000  0.4968910000000 1.0
C      1  0.5443360000000  0.3821950000000  0.5168870000000 1.0
C      1  0.5408880000000  0.5848470000000  0.5884000000000 1.0
C      1  0.4974330000000  0.5137450000000  0.6089360000000 1.0
END
