TITL C-247199-3331-536 1483001.23819842 125000 -1182.96091666318 0 0 198 (C1) n - 1
REM
REM in /home/nfs/bkarasulu/CARBON/AIRSS/Generating-Clusters/LCBOP/Only-C1/SD-CG/FIRE-HFTN
REM
REM
REM
REM
REM
REM ./C.cell (11c1c37f851c82e70ff6c80c92926a4b)
REM AIRSS Version 0.9.1 bugfix July 2018 build 013d7b7c2542+ Fri, 06 Jul 2018 19:26:36 +0100
REM compiler GCC version 9.2.1 20190827 (Red Hat 9.2.1-1)
REM options -cpp -mtune=generic -march=x86-64 -g -O0 -fpre-include=/usr/include/finclude/math-vector-fortran.h
REM seed 1748789535 -668971819 2057376842 -527756967 -1806595276 -406954254 1610194288 1311557669 10533247 -648125192 1332936657 916833957 1260168432 1337251500 -834518236 2016679480 -457563930 2131509344 -2061858898 2124322499 168289469 -647597109 876627796 1800692931 -1006721436 -1753680592 1107399229 1456418292 -437283018 -1343783756 2133290758 380232106 1205077745
REM
CELL 1.54180   50.00000   50.00000   50.00000   90.00000   90.00000   90.00000
LATT -1
SFAC C  
C      1  0.5656710000000  0.5481670000000  0.4133390000000 1.0
C      1  0.5035390000000  0.3863520000000  0.4771650000000 1.0
C      1  0.3399440000000  0.3992620000000  0.5579870000000 1.0
C      1  0.5290260000000  0.4233680000000  0.6045790000000 1.0
C      1  0.5771370000000  0.4188430000000  0.5421460000000 1.0
C      1  0.5011230000000  0.5186570000000  0.5975930000000 1.0
C      1  0.5247920000000  0.5764300000000  0.4798790000000 1.0
C      1  0.5671660000000  0.6001490000000  0.4790020000000 1.0
C      1  0.5148430000000  0.4253070000000  0.5416740000000 1.0
C      1  0.4741300000000  0.4810330000000  0.5460340000000 1.0
C      1  0.5470220000000  0.4198750000000  0.4692480000000 1.0
C      1  0.5241390000000  0.4532220000000  0.4000980000000 1.0
C      1  0.5168500000000  0.4055140000000  0.4590020000000 1.0
C      1  0.3600760000000  0.4075430000000  0.5436550000000 1.0
C      1  0.5273510000000  0.6299300000000  0.4790580000000 1.0
C      1  0.4151450000000  0.5367170000000  0.4415690000000 1.0
C      1  0.5514110000000  0.6193490000000  0.4922210000000 1.0
C      1  0.5333250000000  0.5619920000000  0.5452440000000 1.0
C      1  0.3822810000000  0.4461700000000  0.5212000000000 1.0
C      1  0.5907940000000  0.4977410000000  0.5091160000000 1.0
C      1  0.4358900000000  0.5872050000000  0.5606950000000 1.0
C      1  0.5138960000000  0.5606030000000  0.3797060000000 1.0
C      1  0.4900000000000  0.4935560000000  0.6133060000000 1.0
C      1  0.5136180000000  0.4407840000000  0.6205880000000 1.0
C      1  0.5746420000000  0.5572950000000  0.5236560000000 1.0
C      1  0.4841510000000  0.4380790000000  0.4902730000000 1.0
C      1  0.6196770000000  0.4507130000000  0.5465030000000 1.0
C      1  0.3948540000000  0.5153200000000  0.4527230000000 1.0
C      1  0.3844180000000  0.5094560000000  0.5549400000000 1.0
C      1  0.5024820000000  0.5649610000000  0.5824930000000 1.0
C      1  0.4409240000000  0.5934850000000  0.5131280000000 1.0
C      1  0.4269410000000  0.4564460000000  0.5350940000000 1.0
C      1  0.3835980000000  0.5595120000000  0.5112450000000 1.0
C      1  0.5520410000000  0.4875770000000  0.4425410000000 1.0
C      1  0.5640320000000  0.5518280000000  0.4636630000000 1.0
C      1  0.4814060000000  0.5026160000000  0.3895790000000 1.0
C      1  0.5773980000000  0.5551530000000  0.4385270000000 1.0
C      1  0.4352750000000  0.6132940000000  0.4216000000000 1.0
C      1  0.4127490000000  0.5120520000000  0.5511810000000 1.0
C      1  0.5789760000000  0.4649180000000  0.5622480000000 1.0
C      1  0.3982050000000  0.5758460000000  0.5274180000000 1.0
C      1  0.5688000000000  0.5642130000000  0.3914400000000 1.0
C      1  0.5795290000000  0.5753980000000  0.5465380000000 1.0
C      1  0.3910230000000  0.4640640000000  0.4482810000000 1.0
C      1  0.4447080000000  0.5239110000000  0.4356350000000 1.0
C      1  0.4885100000000  0.4861260000000  0.5707760000000 1.0
C      1  0.4761790000000  0.3827650000000  0.4703140000000 1.0
C      1  0.5283500000000  0.4745970000000  0.5959190000000 1.0
C      1  0.4082640000000  0.5739090000000  0.6050950000000 1.0
C      1  0.5037500000000  0.5276870000000  0.4679270000000 1.0
C      1  0.5923630000000  0.4895280000000  0.5706380000000 1.0
C      1  0.5387260000000  0.5324310000000  0.5002640000000 1.0
C      1  0.5514710000000  0.4494610000000  0.4758590000000 1.0
C      1  0.3705320000000  0.4889620000000  0.5415660000000 1.0
C      1  0.5716930000000  0.5364190000000  0.5766920000000 1.0
C      1  0.4645410000000  0.4251670000000  0.5384770000000 1.0
C      1  0.4631070000000  0.5251530000000  0.3881050000000 1.0
C      1  0.6026400000000  0.5660120000000  0.4375820000000 1.0
C      1  0.4504910000000  0.5158330000000  0.4652300000000 1.0
C      1  0.5104160000000  0.4292930000000  0.3940900000000 1.0
C      1  0.3708130000000  0.4735250000000  0.5177040000000 1.0
C      1  0.4351870000000  0.3998640000000  0.4523540000000 1.0
C      1  0.6247570000000  0.4786480000000  0.5393840000000 1.0
C      1  0.5087910000000  0.3768370000000  0.5035980000000 1.0
C      1  0.4568380000000  0.4576700000000  0.6053700000000 1.0
C      1  0.5237600000000  0.4928420000000  0.4329490000000 1.0
C      1  0.6714660000000  0.5244890000000  0.4483630000000 1.0
C      1  0.4876000000000  0.5246210000000  0.5222010000000 1.0
C      1  0.5158130000000  0.4796940000000  0.5207460000000 1.0
C      1  0.4893960000000  0.4111450000000  0.4354130000000 1.0
C      1  0.6309500000000  0.4742330000000  0.4915920000000 1.0
C      1  0.4481820000000  0.4470060000000  0.4288100000000 1.0
C      1  0.6225660000000  0.5258560000000  0.4708660000000 1.0
C      1  0.6189990000000  0.4991090000000  0.5601760000000 1.0
C      1  0.4208840000000  0.5804940000000  0.5832670000000 1.0
C      1  0.5531330000000  0.5758120000000  0.4751630000000 1.0
C      1  0.3844620000000  0.4933370000000  0.4106170000000 1.0
C      1  0.4436420000000  0.5031840000000  0.5954810000000 1.0
C      1  0.4452770000000  0.4971180000000  0.5161980000000 1.0
C      1  0.5114970000000  0.4684230000000  0.5743490000000 1.0
C      1  0.4507230000000  0.6050700000000  0.4686710000000 1.0
C      1  0.5544710000000  0.5222320000000  0.4116560000000 1.0
C      1  0.4479520000000  0.4519440000000  0.4548770000000 1.0
C      1  0.5055420000000  0.5021970000000  0.4539770000000 1.0
C      1  0.5613360000000  0.6011140000000  0.5442420000000 1.0
C      1  0.5293600000000  0.5260570000000  0.6034500000000 1.0
C      1  0.4190190000000  0.5308280000000  0.5035300000000 1.0
C      1  0.5542390000000  0.4701190000000  0.5497620000000 1.0
C      1  0.5033600000000  0.6265200000000  0.4950580000000 1.0
C      1  0.4620630000000  0.6129380000000  0.5176330000000 1.0
C      1  0.4502700000000  0.4948850000000  0.4238450000000 1.0
C      1  0.5096970000000  0.4701300000000  0.6180000000000 1.0
C      1  0.4356160000000  0.5975190000000  0.4436800000000 1.0
C      1  0.4486690000000  0.4810280000000  0.4934260000000 1.0
C      1  0.4604420000000  0.4246420000000  0.5652340000000 1.0
C      1  0.5173340000000  0.4654720000000  0.4244330000000 1.0
C      1  0.4713860000000  0.4303830000000  0.5127380000000 1.0
C      1  0.5312510000000  0.4319260000000  0.5196090000000 1.0
C      1  0.4695350000000  0.4807990000000  0.4055730000000 1.0
C      1  0.5390440000000  0.5158920000000  0.5424400000000 1.0
C      1  0.4179000000000  0.5677530000000  0.4415850000000 1.0
C      1  0.4620750000000  0.4856080000000  0.6081850000000 1.0
C      1  0.5096610000000  0.4920050000000  0.4972310000000 1.0
C      1  0.6180870000000  0.6144860000000  0.4708020000000 1.0
C      1  0.5765350000000  0.5120650000000  0.5621170000000 1.0
C      1  0.6482500000000  0.5247130000000  0.4601990000000 1.0
C      1  0.5554190000000  0.4037610000000  0.5576160000000 1.0
C      1  0.5936050000000  0.6057150000000  0.4726680000000 1.0
C      1  0.6179350000000  0.5311730000000  0.5611890000000 1.0
C      1  0.5784790000000  0.5021500000000  0.4814430000000 1.0
C      1  0.4556390000000  0.3761810000000  0.4893190000000 1.0
C      1  0.4012710000000  0.4411010000000  0.4622110000000 1.0
C      1  0.5023990000000  0.6203770000000  0.5463640000000 1.0
C      1  0.4656620000000  0.3989530000000  0.4477630000000 1.0
C      1  0.5239830000000  0.5163990000000  0.4130250000000 1.0
C      1  0.5221820000000  0.4083590000000  0.3802980000000 1.0
C      1  0.4478620000000  0.4667750000000  0.5483450000000 1.0
C      1  0.4082920000000  0.4027470000000  0.5312380000000 1.0
C      1  0.5128440000000  0.5664860000000  0.4073620000000 1.0
C      1  0.4748100000000  0.6129510000000  0.5436590000000 1.0
C      1  0.5541040000000  0.4796360000000  0.6025020000000 1.0
C      1  0.5697280000000  0.5017540000000  0.4251810000000 1.0
C      1  0.5088280000000  0.5118460000000  0.3867960000000 1.0
C      1  0.4930680000000  0.4838110000000  0.4742400000000 1.0
C      1  0.4819550000000  0.5721680000000  0.4978290000000 1.0
C      1  0.5362180000000  0.3857460000000  0.5422940000000 1.0
C      1  0.3727920000000  0.4907220000000  0.4936750000000 1.0
C      1  0.4820350000000  0.5844480000000  0.5819920000000 1.0
C      1  0.5449280000000  0.4131880000000  0.5841360000000 1.0
C      1  0.6155250000000  0.5444850000000  0.4906370000000 1.0
C      1  0.5163040000000  0.6213360000000  0.5218400000000 1.0
C      1  0.3919880000000  0.5363280000000  0.4973950000000 1.0
C      1  0.4956880000000  0.4647620000000  0.5332310000000 1.0
C      1  0.5468840000000  0.6113770000000  0.5676540000000 1.0
C      1  0.4655120000000  0.5542950000000  0.4522030000000 1.0
C      1  0.5464460000000  0.5432970000000  0.5881550000000 1.0
C      1  0.5777580000000  0.4151900000000  0.5129190000000 1.0
C      1  0.5602070000000  0.4756460000000  0.4664620000000 1.0
C      1  0.5129570000000  0.5349750000000  0.3697550000000 1.0
C      1  0.4572400000000  0.4360930000000  0.5893510000000 1.0
C      1  0.4240700000000  0.5854950000000  0.5343620000000 1.0
C      1  0.4238370000000  0.5130040000000  0.5247780000000 1.0
C      1  0.5924420000000  0.5547190000000  0.5660400000000 1.0
C      1  0.4696940000000  0.5040430000000  0.5283820000000 1.0
C      1  0.4389170000000  0.5346790000000  0.4842020000000 1.0
C      1  0.5084330000000  0.5418570000000  0.4233190000000 1.0
C      1  0.5592440000000  0.5281000000000  0.4800590000000 1.0
C      1  0.6016860000000  0.5086830000000  0.4617260000000 1.0
C      1  0.4391900000000  0.4586340000000  0.4803230000000 1.0
C      1  0.5558520000000  0.3773810000000  0.4959210000000 1.0
C      1  0.4314640000000  0.3810750000000  0.4746960000000 1.0
C      1  0.3825170000000  0.5151970000000  0.4800440000000 1.0
C      1  0.4420000000000  0.5839120000000  0.4863120000000 1.0
C      1  0.5088140000000  0.5646900000000  0.5317120000000 1.0
C      1  0.5479780000000  0.5415200000000  0.5277660000000 1.0
C      1  0.4592970000000  0.3821080000000  0.5174760000000 1.0
C      1  0.4131360000000  0.4180230000000  0.4492490000000 1.0
C      1  0.4920770000000  0.5429130000000  0.5429890000000 1.0
C      1  0.5960580000000  0.5035580000000  0.4344950000000 1.0
C      1  0.5080340000000  0.4499030000000  0.4461080000000 1.0
C      1  0.5891970000000  0.3701410000000  0.3825630000000 1.0
C      1  0.4511010000000  0.5381900000000  0.4088550000000 1.0
C      1  0.5651980000000  0.3787640000000  0.3771070000000 1.0
C      1  0.3709970000000  0.5269820000000  0.5711190000000 1.0
C      1  0.5369370000000  0.4884040000000  0.5373750000000 1.0
C      1  0.4948750000000  0.4549250000000  0.4701860000000 1.0
C      1  0.5354000000000  0.3739550000000  0.5149670000000 1.0
C      1  0.4652830000000  0.4945060000000  0.4751770000000 1.0
C      1  0.4874460000000  0.4277490000000  0.4110000000000 1.0
C      1  0.5093620000000  0.5224260000000  0.4980460000000 1.0
C      1  0.4746540000000  0.6205530000000  0.4916320000000 1.0
C      1  0.4692630000000  0.4513120000000  0.4103520000000 1.0
C      1  0.4289910000000  0.5115090000000  0.5745360000000 1.0
C      1  0.5418250000000  0.3911980000000  0.3754020000000 1.0
C      1  0.5308050000000  0.5630170000000  0.5739320000000 1.0
C      1  0.4925220000000  0.5378730000000  0.5738850000000 1.0
C      1  0.5459080000000  0.6140490000000  0.5205320000000 1.0
C      1  0.3829000000000  0.4184770000000  0.5317460000000 1.0
C      1  0.5070160000000  0.4483040000000  0.5546530000000 1.0
C      1  0.5101050000000  0.5761580000000  0.4550220000000 1.0
C      1  0.4333970000000  0.3908960000000  0.5295980000000 1.0
C      1  0.4890800000000  0.3841760000000  0.5250020000000 1.0
C      1  0.5929680000000  0.4414770000000  0.5528110000000 1.0
C      1  0.5808200000000  0.5105420000000  0.5325500000000 1.0
C      1  0.4488050000000  0.5591450000000  0.4747970000000 1.0
C      1  0.4633480000000  0.5959330000000  0.5637980000000 1.0
C      1  0.4950880000000  0.5498130000000  0.4503750000000 1.0
C      1  0.5437400000000  0.4490650000000  0.5033730000000 1.0
C      1  0.5081610000000  0.3974450000000  0.5440730000000 1.0
C      1  0.5206340000000  0.6195080000000  0.5683600000000 1.0
C      1  0.5085800000000  0.5727380000000  0.5039550000000 1.0
C      1  0.4146920000000  0.4478350000000  0.4868480000000 1.0
C      1  0.6164140000000  0.4845620000000  0.5123780000000 1.0
C      1  0.5963810000000  0.5542820000000  0.5062870000000 1.0
C      1  0.5150760000000  0.5864830000000  0.4281480000000 1.0
C      1  0.3903060000000  0.4906640000000  0.4374100000000 1.0
C      1  0.5639790000000  0.4039200000000  0.4895400000000 1.0
C      1  0.4095910000000  0.4498130000000  0.5140050000000 1.0
END
