TITL C-247200-3482-213 1.33412433847669 125000 -200.433040975001 0 0 36 (C1) n - 1
REM
REM in /home/nfs/bkarasulu/CARBON/AIRSS/Generating-Clusters/LCBOP/Only-C1/SD-CG/FIRE-HFTN
REM
REM
REM
REM
REM
REM ./C.cell (11c1c37f851c82e70ff6c80c92926a4b)
REM AIRSS Version 0.9.1 bugfix July 2018 build 013d7b7c2542+ Fri, 06 Jul 2018 19:26:36 +0100
REM compiler GCC version 9.2.1 20190827 (Red Hat 9.2.1-1)
REM options -cpp -mtune=generic -march=x86-64 -g -O0 -fpre-include=/usr/include/finclude/math-vector-fortran.h
REM seed 1512768168 2081692132 912214825 1420260646 1877918781 -1953119422 -530643658 -90516453 -945781762 495157928 -1056677985 -1871934927 -1509387827 1504273929 -2103446208 -1587724424 -418161150 -62135289 1367806214 1048547025 1333554729 -1253084711 748885419 -1634106079 -1808420122 -1138596795 -52905707 -1454822223 -26285187 1502015046 -769864448 863686794 2088500565
REM
CELL 1.54180   50.00000   50.00000   50.00000   90.00000   90.00000   90.00000
LATT -1
SFAC C  
C      1  0.5163980000000  0.5458500000000  0.6338470000000 1.0
C      1  0.5265840000000  0.5465060000000  0.4425230000000 1.0
C      1  0.4786890000000  0.4378550000000  0.5111290000000 1.0
C      1  0.5413350000000  0.5657930000000  0.4563010000000 1.0
C      1  0.4640020000000  0.4625720000000  0.5545340000000 1.0
C      1  0.4717480000000  0.4768250000000  0.5754810000000 1.0
C      1  0.5121960000000  0.5367690000000  0.6077860000000 1.0
C      1  0.4431040000000  0.4057770000000  0.5067220000000 1.0
C      1  0.4484770000000  0.4643400000000  0.4867600000000 1.0
C      1  0.5184910000000  0.4753900000000  0.4758910000000 1.0
C      1  0.5322280000000  0.5584060000000  0.5624350000000 1.0
C      1  0.4702630000000  0.4105090000000  0.5081110000000 1.0
C      1  0.4598910000000  0.4520660000000  0.5294210000000 1.0
C      1  0.4252110000000  0.4267330000000  0.5083740000000 1.0
C      1  0.4961790000000  0.5143630000000  0.6030620000000 1.0
C      1  0.4761760000000  0.4544740000000  0.4867000000000 1.0
C      1  0.4246980000000  0.4951840000000  0.4497990000000 1.0
C      1  0.4945660000000  0.4503530000000  0.4420560000000 1.0
C      1  0.5385110000000  0.4897330000000  0.4844200000000 1.0
C      1  0.4964360000000  0.4600690000000  0.4681770000000 1.0
C      1  0.5558980000000  0.5849730000000  0.4421450000000 1.0
C      1  0.5134980000000  0.5259340000000  0.4288660000000 1.0
C      1  0.5286490000000  0.5071430000000  0.4147560000000 1.0
C      1  0.5415450000000  0.5659000000000  0.4842310000000 1.0
C      1  0.5573090000000  0.4685680000000  0.3934940000000 1.0
C      1  0.4862170000000  0.5241090000000  0.4294200000000 1.0
C      1  0.4826950000000  0.4943940000000  0.5920380000000 1.0
C      1  0.5406000000000  0.5653820000000  0.5106990000000 1.0
C      1  0.5376770000000  0.5632500000000  0.5369530000000 1.0
C      1  0.4912250000000  0.4418310000000  0.4176570000000 1.0
C      1  0.4362110000000  0.4531660000000  0.5113190000000 1.0
C      1  0.5433160000000  0.4880750000000  0.4036560000000 1.0
C      1  0.4362150000000  0.4805590000000  0.4680350000000 1.0
C      1  0.5694720000000  0.6028200000000  0.4288610000000 1.0
C      1  0.5203220000000  0.5543310000000  0.6581760000000 1.0
C      1  0.5239690000000  0.5499970000000  0.5861650000000 1.0
END
