TITL C-247198-3593-60 -4.33923612092209e-07 125000 -437.442038874988 0 0 73 (C1) n - 1
REM
REM in /home/nfs/bkarasulu/CARBON/AIRSS/Generating-Clusters/LCBOP/Only-C1/SD-CG/FIRE-HFTN
REM
REM
REM
REM
REM
REM ./C.cell (11c1c37f851c82e70ff6c80c92926a4b)
REM AIRSS Version 0.9.1 bugfix July 2018 build 013d7b7c2542+ Fri, 06 Jul 2018 19:26:36 +0100
REM compiler GCC version 9.2.1 20190827 (Red Hat 9.2.1-1)
REM options -cpp -mtune=generic -march=x86-64 -g -O0 -fpre-include=/usr/include/finclude/math-vector-fortran.h
REM seed 759903381 -1951133716 877365916 -1382112038 -1222830950 1222839546 1445693211 -1150417569 -2087279106 1506902831 -277890590 7141343 -1523044085 -1230302692 -2051895250 2083620320 -2076438860 -795326106 591619949 -772927561 1736588105 -1859315253 -328045690 1190033783 -603278071 -267639849 46002546 2032794442 1373730910 978189951 1008338727 -52506444 -907819847
REM
CELL 1.54180   50.00000   50.00000   50.00000   90.00000   90.00000   90.00000
LATT -1
SFAC C  
C      1  0.4600460000000  0.5004770000000  0.5725820000000 1.0
C      1  0.5350810000000  0.5073700000000  0.5354090000000 1.0
C      1  0.5387140000000  0.5368010000000  0.5433460000000 1.0
C      1  0.4528600000000  0.4251910000000  0.5013280000000 1.0
C      1  0.5243430000000  0.5232920000000  0.4276370000000 1.0
C      1  0.4924810000000  0.4418020000000  0.5608570000000 1.0
C      1  0.4519130000000  0.5404740000000  0.4666220000000 1.0
C      1  0.5015470000000  0.5862740000000  0.4918080000000 1.0
C      1  0.4910640000000  0.5130140000000  0.4807970000000 1.0
C      1  0.4934350000000  0.5588300000000  0.4385720000000 1.0
C      1  0.5469790000000  0.5064580000000  0.4344920000000 1.0
C      1  0.4786410000000  0.4491390000000  0.4469200000000 1.0
C      1  0.5027500000000  0.4865510000000  0.4435900000000 1.0
C      1  0.4989760000000  0.5914470000000  0.5198660000000 1.0
C      1  0.5613670000000  0.5557640000000  0.4749080000000 1.0
C      1  0.5380170000000  0.4596030000000  0.5509710000000 1.0
C      1  0.5578420000000  0.5685640000000  0.5003190000000 1.0
C      1  0.4531120000000  0.4551060000000  0.4362710000000 1.0
C      1  0.5200940000000  0.5801780000000  0.5353700000000 1.0
C      1  0.4789650000000  0.4500690000000  0.4754460000000 1.0
C      1  0.4506070000000  0.4424930000000  0.5255370000000 1.0
C      1  0.4602260000000  0.5600100000000  0.5172590000000 1.0
C      1  0.4319180000000  0.4373380000000  0.4833740000000 1.0
C      1  0.5479240000000  0.4348220000000  0.4677450000000 1.0
C      1  0.4740090000000  0.4726050000000  0.4929140000000 1.0
C      1  0.4622750000000  0.5565280000000  0.4883260000000 1.0
C      1  0.4709480000000  0.5859450000000  0.5262340000000 1.0
C      1  0.5284670000000  0.4166100000000  0.4749170000000 1.0
C      1  0.4801760000000  0.5125260000000  0.5264270000000 1.0
C      1  0.4793380000000  0.4245380000000  0.4890610000000 1.0
C      1  0.5173070000000  0.4342240000000  0.5146390000000 1.0
C      1  0.5177360000000  0.4516190000000  0.5695890000000 1.0
C      1  0.5023400000000  0.4597020000000  0.4349530000000 1.0
C      1  0.5562270000000  0.4879240000000  0.4556350000000 1.0
C      1  0.4368440000000  0.4959120000000  0.5602100000000 1.0
C      1  0.5632830000000  0.5037950000000  0.4807170000000 1.0
C      1  0.5838980000000  0.5065030000000  0.5805710000000 1.0
C      1  0.4275880000000  0.4663120000000  0.4891220000000 1.0
C      1  0.5408280000000  0.5051420000000  0.5035980000000 1.0
C      1  0.4707800000000  0.5388400000000  0.5339390000000 1.0
C      1  0.5128950000000  0.5578040000000  0.5536950000000 1.0
C      1  0.4359040000000  0.5165680000000  0.4722460000000 1.0
C      1  0.4764880000000  0.4998860000000  0.5015720000000 1.0
C      1  0.5066750000000  0.4174730000000  0.4942440000000 1.0
C      1  0.4694450000000  0.4407900000000  0.5467490000000 1.0
C      1  0.4403930000000  0.4799760000000  0.4412210000000 1.0
C      1  0.5214410000000  0.5504080000000  0.4374270000000 1.0
C      1  0.5615970000000  0.4913980000000  0.5769810000000 1.0
C      1  0.5440800000000  0.5676960000000  0.5245400000000 1.0
C      1  0.5744570000000  0.5300950000000  0.4757550000000 1.0
C      1  0.4907640000000  0.5615230000000  0.4836620000000 1.0
C      1  0.5237040000000  0.4826560000000  0.4928650000000 1.0
C      1  0.5473680000000  0.4780680000000  0.5979690000000 1.0
C      1  0.4691520000000  0.5425420000000  0.4418740000000 1.0
C      1  0.5491600000000  0.4861270000000  0.5516060000000 1.0
C      1  0.5230310000000  0.4597260000000  0.5085390000000 1.0
C      1  0.5207420000000  0.4685110000000  0.5932230000000 1.0
C      1  0.5431770000000  0.5606630000000  0.4530730000000 1.0
C      1  0.5011370000000  0.4886020000000  0.5937300000000 1.0
C      1  0.5076820000000  0.4919550000000  0.4706150000000 1.0
C      1  0.4719920000000  0.5184840000000  0.4262890000000 1.0
C      1  0.4498360000000  0.5010870000000  0.4244800000000 1.0
C      1  0.4318620000000  0.4877390000000  0.4683460000000 1.0
C      1  0.5000590000000  0.5029260000000  0.5448270000000 1.0
C      1  0.4334200000000  0.4660490000000  0.5185570000000 1.0
C      1  0.4265530000000  0.4843680000000  0.5384430000000 1.0
C      1  0.4864500000000  0.5492180000000  0.5558940000000 1.0
C      1  0.5293330000000  0.4525960000000  0.4303780000000 1.0
C      1  0.5492010000000  0.4586270000000  0.4512440000000 1.0
C      1  0.4991460000000  0.5086370000000  0.4264640000000 1.0
C      1  0.5291190000000  0.5322010000000  0.4959520000000 1.0
C      1  0.5045280000000  0.5372250000000  0.4847170000000 1.0
C      1  0.4882630000000  0.4985820000000  0.5709420000000 1.0
END
