TITL C-247200-3482-610 -5.08433333244275e-07 125000 -1039.09689751805 0 0 170 (C1) n - 1
REM
REM in /home/nfs/bkarasulu/CARBON/AIRSS/Generating-Clusters/LCBOP/Only-C1/SD-CG/FIRE-HFTN
REM
REM
REM
REM
REM
REM ./C.cell (11c1c37f851c82e70ff6c80c92926a4b)
REM AIRSS Version 0.9.1 bugfix July 2018 build 013d7b7c2542+ Fri, 06 Jul 2018 19:26:36 +0100
REM compiler GCC version 9.2.1 20190827 (Red Hat 9.2.1-1)
REM options -cpp -mtune=generic -march=x86-64 -g -O0 -fpre-include=/usr/include/finclude/math-vector-fortran.h
REM seed 628490511 913686036 1287354967 2002503332 -1112584328 -1453985792 2082022065 -22102294 1988424410 930392828 2036656894 -796556622 763599925 161927879 1514753467 1078236244 -415568363 -2129506222 -1673097701 1099126724 923510322 -806780270 1959098164 466266227 -1624186170 -2100398879 855947471 1053607267 259388664 -574991439 594893730 -2072617590 -1027346269
REM
CELL 1.54180   50.00000   50.00000   50.00000   90.00000   90.00000   90.00000
LATT -1
SFAC C  
C      1  0.6014580000000  0.4522310000000  0.4996080000000 1.0
C      1  0.4087570000000  0.5695210000000  0.5561320000000 1.0
C      1  0.5209950000000  0.6167860000000  0.5533860000000 1.0
C      1  0.4794550000000  0.5927520000000  0.5474170000000 1.0
C      1  0.4490900000000  0.4110480000000  0.4559130000000 1.0
C      1  0.4087270000000  0.4621830000000  0.4395480000000 1.0
C      1  0.3848830000000  0.5119370000000  0.5294330000000 1.0
C      1  0.3961260000000  0.5092250000000  0.4550000000000 1.0
C      1  0.4677090000000  0.3954020000000  0.5624830000000 1.0
C      1  0.6160120000000  0.5213550000000  0.4411690000000 1.0
C      1  0.4900390000000  0.5187340000000  0.3884240000000 1.0
C      1  0.6155160000000  0.5249890000000  0.5189650000000 1.0
C      1  0.4548160000000  0.5558880000000  0.5742000000000 1.0
C      1  0.5087470000000  0.3877120000000  0.5361150000000 1.0
C      1  0.5344060000000  0.5382720000000  0.3914400000000 1.0
C      1  0.5452290000000  0.4796790000000  0.3983930000000 1.0
C      1  0.6052730000000  0.4497580000000  0.4705320000000 1.0
C      1  0.4367890000000  0.5708630000000  0.5547650000000 1.0
C      1  0.3869940000000  0.5518780000000  0.5562380000000 1.0
C      1  0.4970450000000  0.5678010000000  0.4760870000000 1.0
C      1  0.5465720000000  0.4776140000000  0.5292740000000 1.0
C      1  0.5715830000000  0.4475070000000  0.5714970000000 1.0
C      1  0.5106930000000  0.5063620000000  0.5556590000000 1.0
C      1  0.5159800000000  0.5266570000000  0.5104010000000 1.0
C      1  0.5471860000000  0.5782520000000  0.4772170000000 1.0
C      1  0.4531130000000  0.5253440000000  0.5848090000000 1.0
C      1  0.5153710000000  0.4805500000000  0.5680010000000 1.0
C      1  0.5671160000000  0.6150360000000  0.4525190000000 1.0
C      1  0.4533290000000  0.5146750000000  0.4744310000000 1.0
C      1  0.5150670000000  0.6030980000000  0.5072400000000 1.0
C      1  0.4170490000000  0.4671740000000  0.5388480000000 1.0
C      1  0.4058700000000  0.5144490000000  0.4809430000000 1.0
C      1  0.4429350000000  0.4882880000000  0.4721570000000 1.0
C      1  0.4373100000000  0.3861240000000  0.5264120000000 1.0
C      1  0.6060820000000  0.4805650000000  0.5029050000000 1.0
C      1  0.4726030000000  0.4196440000000  0.4403610000000 1.0
C      1  0.5414720000000  0.4811590000000  0.4683880000000 1.0
C      1  0.5934910000000  0.5375830000000  0.5039160000000 1.0
C      1  0.5772100000000  0.5560150000000  0.5194140000000 1.0
C      1  0.4207630000000  0.4788250000000  0.5129550000000 1.0
C      1  0.4094040000000  0.5615450000000  0.4405930000000 1.0
C      1  0.4638340000000  0.5683310000000  0.5112350000000 1.0
C      1  0.5829730000000  0.5384900000000  0.6198820000000 1.0
C      1  0.5254660000000  0.5005980000000  0.6113300000000 1.0
C      1  0.4808670000000  0.5093260000000  0.4789130000000 1.0
C      1  0.5276650000000  0.4184690000000  0.5682620000000 1.0
C      1  0.5597100000000  0.4253500000000  0.5286210000000 1.0
C      1  0.4713740000000  0.3879670000000  0.4938860000000 1.0
C      1  0.6124710000000  0.5487170000000  0.4413500000000 1.0
C      1  0.4213130000000  0.4830570000000  0.4226030000000 1.0
C      1  0.4932120000000  0.5490760000000  0.5495280000000 1.0
C      1  0.5652710000000  0.5407000000000  0.4387080000000 1.0
C      1  0.5460790000000  0.4827070000000  0.6057980000000 1.0
C      1  0.5541710000000  0.5599040000000  0.5800040000000 1.0
C      1  0.4962250000000  0.6024080000000  0.4099690000000 1.0
C      1  0.5841130000000  0.5042890000000  0.5501220000000 1.0
C      1  0.5392450000000  0.6093000000000  0.5713380000000 1.0
C      1  0.4716240000000  0.4773410000000  0.5409380000000 1.0
C      1  0.5490930000000  0.4332490000000  0.4623660000000 1.0
C      1  0.5686410000000  0.5464410000000  0.5996090000000 1.0
C      1  0.4517840000000  0.5790840000000  0.4598540000000 1.0
C      1  0.5075920000000  0.4518150000000  0.5231360000000 1.0
C      1  0.3919010000000  0.5042660000000  0.5578510000000 1.0
C      1  0.5869120000000  0.4391780000000  0.5230350000000 1.0
C      1  0.5153800000000  0.5343620000000  0.5603260000000 1.0
C      1  0.4483300000000  0.5506700000000  0.4204200000000 1.0
C      1  0.5547040000000  0.5302230000000  0.4116120000000 1.0
C      1  0.5417970000000  0.5466760000000  0.5581250000000 1.0
C      1  0.5417470000000  0.4133430000000  0.5089280000000 1.0
C      1  0.5284110000000  0.6225850000000  0.4893470000000 1.0
C      1  0.4887430000000  0.3981490000000  0.3937670000000 1.0
C      1  0.4534480000000  0.4462250000000  0.4865500000000 1.0
C      1  0.4369620000000  0.4348930000000  0.4652410000000 1.0
C      1  0.4956420000000  0.4849290000000  0.4756990000000 1.0
C      1  0.5388860000000  0.4726050000000  0.5552830000000 1.0
C      1  0.4814610000000  0.4534180000000  0.5316810000000 1.0
C      1  0.4156600000000  0.4883460000000  0.5600400000000 1.0
C      1  0.5031760000000  0.6052710000000  0.5344770000000 1.0
C      1  0.5051740000000  0.5480270000000  0.4573040000000 1.0
C      1  0.4902550000000  0.4658120000000  0.6078780000000 1.0
C      1  0.4424730000000  0.4747450000000  0.4039020000000 1.0
C      1  0.4392540000000  0.3977070000000  0.5528340000000 1.0
C      1  0.5204230000000  0.5755950000000  0.4944960000000 1.0
C      1  0.4405060000000  0.4705380000000  0.4937460000000 1.0
C      1  0.5395660000000  0.5094520000000  0.4598540000000 1.0
C      1  0.5512940000000  0.5877870000000  0.5813840000000 1.0
C      1  0.5539910000000  0.4596410000000  0.4548080000000 1.0
C      1  0.4813710000000  0.4350310000000  0.4829670000000 1.0
C      1  0.6003130000000  0.4679410000000  0.4476670000000 1.0
C      1  0.4865520000000  0.4420040000000  0.4539080000000 1.0
C      1  0.4226860000000  0.5571980000000  0.4852780000000 1.0
C      1  0.4302250000000  0.5308310000000  0.4791000000000 1.0
C      1  0.5939090000000  0.4474620000000  0.5511220000000 1.0
C      1  0.4819750000000  0.3810930000000  0.5415220000000 1.0
C      1  0.5497730000000  0.5577640000000  0.4573570000000 1.0
C      1  0.4718710000000  0.5960220000000  0.4191240000000 1.0
C      1  0.5179660000000  0.5133530000000  0.3792300000000 1.0
C      1  0.5495000000000  0.4156000000000  0.4820930000000 1.0
C      1  0.5508980000000  0.5516050000000  0.5309650000000 1.0
C      1  0.4565380000000  0.5227530000000  0.5280970000000 1.0
C      1  0.4951190000000  0.4674370000000  0.3802780000000 1.0
C      1  0.4224500000000  0.5388860000000  0.4262760000000 1.0
C      1  0.4496650000000  0.4366980000000  0.5777670000000 1.0
C      1  0.5671560000000  0.4721790000000  0.5880560000000 1.0
C      1  0.5453030000000  0.5029350000000  0.4149930000000 1.0
C      1  0.4655890000000  0.4799380000000  0.6046350000000 1.0
C      1  0.4070020000000  0.5058180000000  0.5099130000000 1.0
C      1  0.4645430000000  0.3765070000000  0.5194230000000 1.0
C      1  0.4159940000000  0.4382410000000  0.5373010000000 1.0
C      1  0.3768800000000  0.5400220000000  0.5315120000000 1.0
C      1  0.4591660000000  0.5749410000000  0.4323680000000 1.0
C      1  0.4873340000000  0.5470420000000  0.3889570000000 1.0
C      1  0.6126460000000  0.4940850000000  0.4433960000000 1.0
C      1  0.4916140000000  0.4092830000000  0.4944170000000 1.0
C      1  0.5818600000000  0.5828280000000  0.5122890000000 1.0
C      1  0.5242760000000  0.3919870000000  0.5590580000000 1.0
C      1  0.4265670000000  0.4004220000000  0.5030150000000 1.0
C      1  0.5044750000000  0.4595400000000  0.5844850000000 1.0
C      1  0.5146850000000  0.4033370000000  0.5123700000000 1.0
C      1  0.5811440000000  0.4947710000000  0.5016100000000 1.0
C      1  0.4756840000000  0.4204240000000  0.5759660000000 1.0
C      1  0.4814490000000  0.5691520000000  0.5667160000000 1.0
C      1  0.5466330000000  0.6248040000000  0.4684930000000 1.0
C      1  0.5286840000000  0.5518860000000  0.5124260000000 1.0
C      1  0.5159190000000  0.5848310000000  0.4044740000000 1.0
C      1  0.5030800000000  0.4318450000000  0.5768200000000 1.0
C      1  0.3960320000000  0.4379400000000  0.4869100000000 1.0
C      1  0.4108220000000  0.4446430000000  0.4624340000000 1.0
C      1  0.5863750000000  0.5967980000000  0.4446530000000 1.0
C      1  0.5273130000000  0.4673940000000  0.5113760000000 1.0
C      1  0.5686500000000  0.4945750000000  0.5269770000000 1.0
C      1  0.4539950000000  0.5849150000000  0.5337350000000 1.0
C      1  0.5653180000000  0.4621760000000  0.4081250000000 1.0
C      1  0.4817050000000  0.4994440000000  0.4080480000000 1.0
C      1  0.5813540000000  0.5185590000000  0.4850610000000 1.0
C      1  0.5298510000000  0.5368970000000  0.4673700000000 1.0
C      1  0.4131120000000  0.5108670000000  0.4310180000000 1.0
C      1  0.4401140000000  0.5039140000000  0.5670390000000 1.0
C      1  0.6020260000000  0.5742210000000  0.4423780000000 1.0
C      1  0.4979270000000  0.4910050000000  0.4302690000000 1.0
C      1  0.4748220000000  0.5444810000000  0.5260100000000 1.0
C      1  0.4232900000000  0.5740290000000  0.4629440000000 1.0
C      1  0.4698550000000  0.5737650000000  0.4829470000000 1.0
C      1  0.4293210000000  0.5249180000000  0.5216350000000 1.0
C      1  0.5083320000000  0.5066650000000  0.5268020000000 1.0
C      1  0.4473390000000  0.4608260000000  0.5931180000000 1.0
C      1  0.5227490000000  0.5065260000000  0.4340410000000 1.0
C      1  0.5518980000000  0.4299260000000  0.5579800000000 1.0
C      1  0.4718620000000  0.5089950000000  0.6024240000000 1.0
C      1  0.4807400000000  0.4083330000000  0.4163780000000 1.0
C      1  0.5746810000000  0.4629600000000  0.4352310000000 1.0
C      1  0.4110670000000  0.4250710000000  0.5095200000000 1.0
C      1  0.3879960000000  0.5283430000000  0.5735170000000 1.0
C      1  0.4297740000000  0.4244040000000  0.5589130000000 1.0
C      1  0.6261140000000  0.5003970000000  0.5077170000000 1.0
C      1  0.5004740000000  0.5128320000000  0.6092910000000 1.0
C      1  0.5120700000000  0.5559610000000  0.4040800000000 1.0
C      1  0.5811900000000  0.4937390000000  0.5758090000000 1.0
C      1  0.5684810000000  0.5911470000000  0.4906440000000 1.0
C      1  0.4464060000000  0.3944710000000  0.4797320000000 1.0
C      1  0.5207170000000  0.4773910000000  0.4866840000000 1.0
C      1  0.4701780000000  0.4764840000000  0.3949640000000 1.0
C      1  0.5218180000000  0.4830500000000  0.3806940000000 1.0
C      1  0.6067900000000  0.5209270000000  0.5457150000000 1.0
C      1  0.5695700000000  0.5178490000000  0.4582280000000 1.0
C      1  0.5068760000000  0.5418210000000  0.4309200000000 1.0
C      1  0.3691830000000  0.4430530000000  0.4891800000000 1.0
C      1  0.4913190000000  0.4706780000000  0.4501140000000 1.0
C      1  0.4653120000000  0.4321950000000  0.5288850000000 1.0
C      1  0.4596060000000  0.5013800000000  0.5458210000000 1.0
END
