TITL C-247197-3123-358 -5.36431154850348e-07 125000 -699.217975232222 0 0 115 (C1) n - 1
REM
REM in /home/nfs/bkarasulu/CARBON/AIRSS/Generating-Clusters/LCBOP/Only-C1/SD-CG/FIRE-HFTN
REM
REM
REM
REM
REM
REM ./C.cell (11c1c37f851c82e70ff6c80c92926a4b)
REM AIRSS Version 0.9.1 bugfix July 2018 build 013d7b7c2542+ Fri, 06 Jul 2018 19:26:36 +0100
REM compiler GCC version 9.2.1 20190827 (Red Hat 9.2.1-1)
REM options -cpp -mtune=generic -march=x86-64 -g -O0 -fpre-include=/usr/include/finclude/math-vector-fortran.h
REM seed 1111473091 1397744373 -533512878 2132009825 -974451625 394915623 1956269944 -1992496762 1513833266 1516832882 595246099 174573323 -1593152029 901807809 -21952119 -252588753 1352149135 1863446505 907346008 -339817118 -1889948034 1221425472 -575903592 -1092961442 -1953448042 -159252137 -10826116 -1733436277 -1476264879 1502784750 -906761834 1127302722 204953166
REM
CELL 1.54180   50.00000   50.00000   50.00000   90.00000   90.00000   90.00000
LATT -1
SFAC C  
C      1  0.5692300000000  0.5902390000000  0.5318940000000 1.0
C      1  0.4612970000000  0.4897240000000  0.4097990000000 1.0
C      1  0.5087340000000  0.5029730000000  0.4053760000000 1.0
C      1  0.5510130000000  0.4846800000000  0.4985020000000 1.0
C      1  0.5594880000000  0.4245080000000  0.5408900000000 1.0
C      1  0.4906350000000  0.5085980000000  0.4533840000000 1.0
C      1  0.5550670000000  0.4846860000000  0.4048170000000 1.0
C      1  0.5135740000000  0.4131920000000  0.5641130000000 1.0
C      1  0.4273380000000  0.5446970000000  0.4562420000000 1.0
C      1  0.5732210000000  0.5348510000000  0.4896230000000 1.0
C      1  0.4942570000000  0.5306810000000  0.5273090000000 1.0
C      1  0.4702090000000  0.4856900000000  0.4589560000000 1.0
C      1  0.4297120000000  0.4658900000000  0.4402480000000 1.0
C      1  0.5050960000000  0.5138850000000  0.4813360000000 1.0
C      1  0.4690570000000  0.4876330000000  0.5073300000000 1.0
C      1  0.4893640000000  0.5717250000000  0.4593670000000 1.0
C      1  0.5224830000000  0.4828650000000  0.6008120000000 1.0
C      1  0.4501200000000  0.4266000000000  0.4226470000000 1.0
C      1  0.4357700000000  0.4260230000000  0.4688890000000 1.0
C      1  0.5049460000000  0.5832500000000  0.5344450000000 1.0
C      1  0.5397280000000  0.4126190000000  0.5555830000000 1.0
C      1  0.5535730000000  0.5499530000000  0.4370230000000 1.0
C      1  0.4761790000000  0.4641220000000  0.6028810000000 1.0
C      1  0.5472010000000  0.5260750000000  0.5923410000000 1.0
C      1  0.4621680000000  0.4625460000000  0.5781220000000 1.0
C      1  0.5242160000000  0.4557040000000  0.5322360000000 1.0
C      1  0.5043970000000  0.6052100000000  0.5179530000000 1.0
C      1  0.4626080000000  0.5345840000000  0.4949980000000 1.0
C      1  0.5058140000000  0.4666170000000  0.4858080000000 1.0
C      1  0.4324590000000  0.5669690000000  0.5278220000000 1.0
C      1  0.5716620000000  0.5157000000000  0.4682020000000 1.0
C      1  0.4228380000000  0.5608130000000  0.5014350000000 1.0
C      1  0.4073180000000  0.4810460000000  0.4475050000000 1.0
C      1  0.5128840000000  0.5732760000000  0.5798660000000 1.0
C      1  0.4771920000000  0.3918910000000  0.4595930000000 1.0
C      1  0.5832970000000  0.5631120000000  0.4885760000000 1.0
C      1  0.5640920000000  0.4717360000000  0.4266820000000 1.0
C      1  0.4119810000000  0.4604800000000  0.4988630000000 1.0
C      1  0.5691210000000  0.4463130000000  0.5274240000000 1.0
C      1  0.5319220000000  0.5311190000000  0.5677500000000 1.0
C      1  0.4498930000000  0.4854310000000  0.5273170000000 1.0
C      1  0.5886060000000  0.5419560000000  0.5578600000000 1.0
C      1  0.4057400000000  0.4878430000000  0.4956850000000 1.0
C      1  0.5212330000000  0.5378820000000  0.5165560000000 1.0
C      1  0.4340730000000  0.4379240000000  0.4431480000000 1.0
C      1  0.5719450000000  0.5612310000000  0.5725780000000 1.0
C      1  0.4996070000000  0.4723650000000  0.6137200000000 1.0
C      1  0.5462830000000  0.4416040000000  0.4625490000000 1.0
C      1  0.5614050000000  0.4655850000000  0.4543620000000 1.0
C      1  0.5086960000000  0.4655700000000  0.4330560000000 1.0
C      1  0.4979950000000  0.4433760000000  0.4225340000000 1.0
C      1  0.5397660000000  0.5039570000000  0.6080920000000 1.0
C      1  0.4759980000000  0.4296440000000  0.4160170000000 1.0
C      1  0.4712020000000  0.5619260000000  0.5006660000000 1.0
C      1  0.5213060000000  0.4789890000000  0.5728700000000 1.0
C      1  0.4309070000000  0.5059290000000  0.5334760000000 1.0
C      1  0.5550950000000  0.5806740000000  0.5555180000000 1.0
C      1  0.4452690000000  0.5536310000000  0.4114180000000 1.0
C      1  0.4509790000000  0.4865090000000  0.5677000000000 1.0
C      1  0.5343140000000  0.4986230000000  0.3942430000000 1.0
C      1  0.4443050000000  0.4246820000000  0.5155720000000 1.0
C      1  0.4362120000000  0.5673550000000  0.4740270000000 1.0
C      1  0.5251680000000  0.5828090000000  0.5559770000000 1.0
C      1  0.4652590000000  0.5750280000000  0.4761570000000 1.0
C      1  0.5211160000000  0.4464150000000  0.4751890000000 1.0
C      1  0.4844010000000  0.5586040000000  0.4346260000000 1.0
C      1  0.6049580000000  0.5910740000000  0.4481540000000 1.0
C      1  0.4535180000000  0.4807040000000  0.4358810000000 1.0
C      1  0.5422760000000  0.5318150000000  0.5336450000000 1.0
C      1  0.4632270000000  0.4070990000000  0.5026630000000 1.0
C      1  0.5361370000000  0.4642940000000  0.5550700000000 1.0
C      1  0.5671470000000  0.5314340000000  0.5183380000000 1.0
C      1  0.5934570000000  0.5770070000000  0.4668410000000 1.0
C      1  0.4441850000000  0.5363220000000  0.4349920000000 1.0
C      1  0.4910530000000  0.5156850000000  0.5518400000000 1.0
C      1  0.5366240000000  0.5657810000000  0.4505680000000 1.0
C      1  0.4401260000000  0.5124660000000  0.5609610000000 1.0
C      1  0.5003210000000  0.4914470000000  0.5596640000000 1.0
C      1  0.4826400000000  0.5333490000000  0.5729520000000 1.0
C      1  0.4777110000000  0.4728380000000  0.4841680000000 1.0
C      1  0.4546380000000  0.5589010000000  0.5445160000000 1.0
C      1  0.5076480000000  0.5456840000000  0.5788140000000 1.0
C      1  0.4905630000000  0.3976620000000  0.5028580000000 1.0
C      1  0.4455980000000  0.4309210000000  0.5429200000000 1.0
C      1  0.4691770000000  0.5676940000000  0.4119890000000 1.0
C      1  0.5881800000000  0.5478980000000  0.5305490000000 1.0
C      1  0.4735870000000  0.5315810000000  0.4413530000000 1.0
C      1  0.5184370000000  0.5407690000000  0.4876790000000 1.0
C      1  0.4655370000000  0.4386570000000  0.5616440000000 1.0
C      1  0.5674780000000  0.5276900000000  0.4429900000000 1.0
C      1  0.4559780000000  0.4056640000000  0.4735200000000 1.0
C      1  0.4113970000000  0.5104750000000  0.5138500000000 1.0
C      1  0.4819160000000  0.5607300000000  0.5291300000000 1.0
C      1  0.4916680000000  0.4290100000000  0.5542440000000 1.0
C      1  0.4092830000000  0.5351550000000  0.4986300000000 1.0
C      1  0.5630680000000  0.5491340000000  0.5968020000000 1.0
C      1  0.5222720000000  0.4898690000000  0.4921700000000 1.0
C      1  0.4278280000000  0.4375190000000  0.4948890000000 1.0
C      1  0.4821030000000  0.5001630000000  0.3954440000000 1.0
C      1  0.5803100000000  0.4921240000000  0.5418050000000 1.0
C      1  0.4817910000000  0.5146500000000  0.5039470000000 1.0
C      1  0.4038390000000  0.4989420000000  0.4686850000000 1.0
C      1  0.5278460000000  0.3956160000000  0.4669570000000 1.0
C      1  0.5014150000000  0.3921410000000  0.4762460000000 1.0
C      1  0.5080470000000  0.4941700000000  0.4328840000000 1.0
C      1  0.5155850000000  0.5629240000000  0.4693460000000 1.0
C      1  0.5674670000000  0.4749660000000  0.5218290000000 1.0
C      1  0.4744920000000  0.3765580000000  0.4372560000000 1.0
C      1  0.5880610000000  0.5125600000000  0.5586910000000 1.0
C      1  0.5653270000000  0.4878870000000  0.4733490000000 1.0
C      1  0.4549330000000  0.5379020000000  0.5650940000000 1.0
C      1  0.4091120000000  0.5271510000000  0.4699080000000 1.0
C      1  0.5852930000000  0.5728690000000  0.5161280000000 1.0
C      1  0.5011920000000  0.4420630000000  0.5307730000000 1.0
C      1  0.5475240000000  0.4131690000000  0.4598220000000 1.0
END
