TITL C-247196-3112-153 0.0188032341515033 125000 -974.250684580198 0 0 159 (C1) n - 1
REM
REM in /home/nfs/bkarasulu/CARBON/AIRSS/Generating-Clusters/LCBOP/Only-C1/SD-CG/FIRE-HFTN
REM
REM
REM
REM
REM
REM ./C.cell (11c1c37f851c82e70ff6c80c92926a4b)
REM AIRSS Version 0.9.1 bugfix July 2018 build 013d7b7c2542+ Fri, 06 Jul 2018 19:26:36 +0100
REM compiler GCC version 9.2.1 20190827 (Red Hat 9.2.1-1)
REM options -cpp -mtune=generic -march=x86-64 -g -O0 -fpre-include=/usr/include/finclude/math-vector-fortran.h
REM seed 937985661 -1272213127 -336873443 1630669495 735939574 -766636646 1402129530 -1316853346 -1551508553 -319816092 -293293972 -1501926712 -137175842 1763806027 1505479375 412278810 354612948 2122042116 -70905689 655703670 -1639527881 737723801 -306973426 1413037085 -1967079206 1545576457 -25433501 1061350314 12476751 -996768559 546192206 -1087124708 433228368
REM
CELL 1.54180   50.00000   50.00000   50.00000   90.00000   90.00000   90.00000
LATT -1
SFAC C  
C      1  0.4432910000000  0.5181980000000  0.7114650000000 1.0
C      1  0.4138800000000  0.4697000000000  0.5761330000000 1.0
C      1  0.4413360000000  0.5578910000000  0.4619370000000 1.0
C      1  0.4742810000000  0.4406450000000  0.5122650000000 1.0
C      1  0.5392870000000  0.5289840000000  0.4632120000000 1.0
C      1  0.5333600000000  0.5194190000000  0.5156630000000 1.0
C      1  0.6118310000000  0.5344280000000  0.5175730000000 1.0
C      1  0.5136850000000  0.5136220000000  0.4179780000000 1.0
C      1  0.4997410000000  0.4445860000000  0.5695430000000 1.0
C      1  0.5797010000000  0.4853800000000  0.3978830000000 1.0
C      1  0.5453730000000  0.4718390000000  0.5041330000000 1.0
C      1  0.6052150000000  0.5007290000000  0.4642510000000 1.0
C      1  0.4936150000000  0.4229660000000  0.5551040000000 1.0
C      1  0.3989800000000  0.5056440000000  0.4275080000000 1.0
C      1  0.4240030000000  0.5933830000000  0.5419180000000 1.0
C      1  0.4742370000000  0.5773540000000  0.4174820000000 1.0
C      1  0.4842340000000  0.4172550000000  0.5292580000000 1.0
C      1  0.5001620000000  0.5271780000000  0.6214010000000 1.0
C      1  0.4211670000000  0.5705620000000  0.5269680000000 1.0
C      1  0.4698880000000  0.3743930000000  0.5076610000000 1.0
C      1  0.4577010000000  0.5206810000000  0.6898820000000 1.0
C      1  0.4869310000000  0.4849960000000  0.4847050000000 1.0
C      1  0.5278560000000  0.5678680000000  0.5998430000000 1.0
C      1  0.5404960000000  0.4151270000000  0.4138310000000 1.0
C      1  0.4632080000000  0.3713570000000  0.4815380000000 1.0
C      1  0.4726580000000  0.3880470000000  0.4607910000000 1.0
C      1  0.4025440000000  0.4727800000000  0.4636620000000 1.0
C      1  0.5071450000000  0.4898010000000  0.4609010000000 1.0
C      1  0.5131590000000  0.5509050000000  0.6140660000000 1.0
C      1  0.6265710000000  0.4844590000000  0.5085910000000 1.0
C      1  0.4514760000000  0.5395160000000  0.5509340000000 1.0
C      1  0.5011370000000  0.5052430000000  0.6039980000000 1.0
C      1  0.4531280000000  0.5645050000000  0.4072780000000 1.0
C      1  0.5289390000000  0.3992790000000  0.4863620000000 1.0
C      1  0.5791440000000  0.4167860000000  0.5325810000000 1.0
C      1  0.5557490000000  0.4916790000000  0.5771530000000 1.0
C      1  0.6003530000000  0.4844190000000  0.4416590000000 1.0
C      1  0.5728590000000  0.4164750000000  0.5047380000000 1.0
C      1  0.4055910000000  0.4401520000000  0.4974700000000 1.0
C      1  0.4067840000000  0.4437760000000  0.5836800000000 1.0
C      1  0.4001180000000  0.4798230000000  0.4362390000000 1.0
C      1  0.4487470000000  0.4874650000000  0.5238030000000 1.0
C      1  0.4499510000000  0.4965360000000  0.3936900000000 1.0
C      1  0.4967600000000  0.3859450000000  0.4150110000000 1.0
C      1  0.5563000000000  0.5700070000000  0.5554330000000 1.0
C      1  0.4577370000000  0.4707640000000  0.3948640000000 1.0
C      1  0.5994270000000  0.4961670000000  0.4160260000000 1.0
C      1  0.5566330000000  0.5717250000000  0.4317230000000 1.0
C      1  0.5571940000000  0.4028140000000  0.4837110000000 1.0
C      1  0.5886470000000  0.5262420000000  0.5581390000000 1.0
C      1  0.5314120000000  0.5010180000000  0.5660160000000 1.0
C      1  0.4899190000000  0.3913030000000  0.5183850000000 1.0
C      1  0.4864600000000  0.5254340000000  0.6456300000000 1.0
C      1  0.4662760000000  0.5084040000000  0.4365480000000 1.0
C      1  0.6049480000000  0.5391430000000  0.4922350000000 1.0
C      1  0.3979460000000  0.4839430000000  0.5579760000000 1.0
C      1  0.4772280000000  0.5278020000000  0.5461690000000 1.0
C      1  0.4621580000000  0.4749080000000  0.4696890000000 1.0
C      1  0.4355080000000  0.5096660000000  0.4788510000000 1.0
C      1  0.5568750000000  0.5832180000000  0.5065110000000 1.0
C      1  0.5592300000000  0.4058150000000  0.4326170000000 1.0
C      1  0.4516060000000  0.4584300000000  0.5247830000000 1.0
C      1  0.5797750000000  0.4416100000000  0.4913870000000 1.0
C      1  0.5327550000000  0.4931110000000  0.4108700000000 1.0
C      1  0.4720390000000  0.5393240000000  0.4941920000000 1.0
C      1  0.4713120000000  0.5613630000000  0.5122520000000 1.0
C      1  0.4121350000000  0.5725360000000  0.4998720000000 1.0
C      1  0.6039400000000  0.5154970000000  0.5370050000000 1.0
C      1  0.6154130000000  0.5440430000000  0.4142360000000 1.0
C      1  0.5397280000000  0.4430280000000  0.4099310000000 1.0
C      1  0.5496030000000  0.5499370000000  0.4141000000000 1.0
C      1  0.4253110000000  0.5446290000000  0.4416520000000 1.0
C      1  0.3845570000000  0.5714220000000  0.4950940000000 1.0
C      1  0.4952890000000  0.5591470000000  0.4584710000000 1.0
C      1  0.5189570000000  0.5478670000000  0.4734890000000 1.0
C      1  0.4521350000000  0.5165620000000  0.4132330000000 1.0
C      1  0.4349560000000  0.6047110000000  0.4719620000000 1.0
C      1  0.4358720000000  0.4990310000000  0.6075070000000 1.0
C      1  0.4859950000000  0.6145190000000  0.5537690000000 1.0
C      1  0.5113380000000  0.4169780000000  0.4715170000000 1.0
C      1  0.5188220000000  0.3986800000000  0.4070010000000 1.0
C      1  0.4947050000000  0.5781840000000  0.4367440000000 1.0
C      1  0.6074040000000  0.4877970000000  0.5294280000000 1.0
C      1  0.5400760000000  0.4984250000000  0.4982890000000 1.0
C      1  0.6244510000000  0.4907490000000  0.4825620000000 1.0
C      1  0.6218810000000  0.4383370000000  0.5885500000000 1.0
C      1  0.3880080000000  0.4845280000000  0.5103130000000 1.0
C      1  0.5883670000000  0.4662150000000  0.5304330000000 1.0
C      1  0.3582420000000  0.5718090000000  0.4920520000000 1.0
C      1  0.5565820000000  0.5025650000000  0.3986430000000 1.0
C      1  0.5912530000000  0.4408600000000  0.5441780000000 1.0
C      1  0.4723060000000  0.5231810000000  0.6679050000000 1.0
C      1  0.4911700000000  0.4725990000000  0.5657480000000 1.0
C      1  0.5926880000000  0.4576320000000  0.4464930000000 1.0
C      1  0.5151970000000  0.5967760000000  0.4325780000000 1.0
C      1  0.5628180000000  0.5857540000000  0.4788440000000 1.0
C      1  0.6067420000000  0.4390910000000  0.5673520000000 1.0
C      1  0.5669030000000  0.5371500000000  0.4635480000000 1.0
C      1  0.4394730000000  0.5417580000000  0.4164760000000 1.0
C      1  0.4376770000000  0.4814520000000  0.5865800000000 1.0
C      1  0.5082150000000  0.4924620000000  0.5802030000000 1.0
C      1  0.4826790000000  0.4130250000000  0.4704120000000 1.0
C      1  0.4827860000000  0.6193720000000  0.5796150000000 1.0
C      1  0.5127940000000  0.4621940000000  0.4467360000000 1.0
C      1  0.5519380000000  0.6070340000000  0.4624090000000 1.0
C      1  0.4791540000000  0.3810340000000  0.4345220000000 1.0
C      1  0.5680340000000  0.4128850000000  0.4580460000000 1.0
C      1  0.3893990000000  0.4558560000000  0.5128260000000 1.0
C      1  0.4691090000000  0.5502760000000  0.4680530000000 1.0
C      1  0.5226110000000  0.5401890000000  0.4128890000000 1.0
C      1  0.4654200000000  0.4311570000000  0.4846470000000 1.0
C      1  0.5323510000000  0.5028880000000  0.4711440000000 1.0
C      1  0.4914620000000  0.6237690000000  0.5069330000000 1.0
C      1  0.5426610000000  0.5968730000000  0.4370580000000 1.0
C      1  0.5049550000000  0.5388350000000  0.5465490000000 1.0
C      1  0.5679070000000  0.5295750000000  0.4056450000000 1.0
C      1  0.4930860000000  0.4797160000000  0.5356290000000 1.0
C      1  0.4749260000000  0.5029640000000  0.5288440000000 1.0
C      1  0.5683530000000  0.5649270000000  0.4582330000000 1.0
C      1  0.4013530000000  0.4184500000000  0.5892420000000 1.0
C      1  0.3946070000000  0.4993060000000  0.5344490000000 1.0
C      1  0.5777170000000  0.5086890000000  0.5766470000000 1.0
C      1  0.4333520000000  0.5009020000000  0.5042590000000 1.0
C      1  0.4258860000000  0.5450070000000  0.5390660000000 1.0
C      1  0.5718630000000  0.4634160000000  0.5072970000000 1.0
C      1  0.5313670000000  0.4668130000000  0.4227600000000 1.0
C      1  0.4479280000000  0.4506180000000  0.4729380000000 1.0
C      1  0.4189850000000  0.4515800000000  0.4749940000000 1.0
C      1  0.5782940000000  0.5524250000000  0.5565010000000 1.0
C      1  0.4024580000000  0.5273310000000  0.4461040000000 1.0
C      1  0.4805050000000  0.5122230000000  0.4999540000000 1.0
C      1  0.5200150000000  0.4440450000000  0.4704190000000 1.0
C      1  0.5734910000000  0.3951300000000  0.5483880000000 1.0
C      1  0.5267270000000  0.5183070000000  0.5439690000000 1.0
C      1  0.3962330000000  0.3934270000000  0.5944590000000 1.0
C      1  0.5820110000000  0.4379840000000  0.4631070000000 1.0
C      1  0.5573060000000  0.4671340000000  0.5891010000000 1.0
C      1  0.5163140000000  0.3871300000000  0.5085070000000 1.0
C      1  0.5157250000000  0.5620640000000  0.5270590000000 1.0
C      1  0.5430820000000  0.5751650000000  0.5305700000000 1.0
C      1  0.4713250000000  0.4543320000000  0.4111100000000 1.0
C      1  0.4962610000000  0.4639400000000  0.5083950000000 1.0
C      1  0.4946850000000  0.5063290000000  0.4380360000000 1.0
C      1  0.4895330000000  0.6057850000000  0.5274460000000 1.0
C      1  0.3907810000000  0.4930410000000  0.4825540000000 1.0
C      1  0.5221410000000  0.5440620000000  0.5026460000000 1.0
C      1  0.3323870000000  0.5712980000000  0.4887640000000 1.0
C      1  0.4880700000000  0.4518460000000  0.4318230000000 1.0
C      1  0.4056170000000  0.5253660000000  0.5360030000000 1.0
C      1  0.4798180000000  0.6228370000000  0.6052810000000 1.0
C      1  0.5430470000000  0.5757770000000  0.5794860000000 1.0
C      1  0.4913540000000  0.5782160000000  0.5223840000000 1.0
C      1  0.4510530000000  0.4984590000000  0.4581350000000 1.0
C      1  0.5231530000000  0.4554850000000  0.4970090000000 1.0
C      1  0.3904910000000  0.5197740000000  0.4714250000000 1.0
C      1  0.5914550000000  0.5249200000000  0.4717400000000 1.0
C      1  0.4627180000000  0.4751720000000  0.5755840000000 1.0
C      1  0.5958410000000  0.5252650000000  0.4127040000000 1.0
C      1  0.4295590000000  0.5784840000000  0.4779910000000 1.0
END
