TITL C-247195-3186-289 0.0180687412659475 125000 -416.871653299062 0 0 69 (C1) n - 1
REM
REM in /home/nfs/bkarasulu/CARBON/AIRSS/Generating-Clusters/LCBOP/Only-C1/SD-CG/FIRE-HFTN
REM
REM
REM
REM
REM
REM ./C.cell (11c1c37f851c82e70ff6c80c92926a4b)
REM AIRSS Version 0.9.1 bugfix July 2018 build 013d7b7c2542+ Fri, 06 Jul 2018 19:26:36 +0100
REM compiler GCC version 9.2.1 20190827 (Red Hat 9.2.1-1)
REM options -cpp -mtune=generic -march=x86-64 -g -O0 -fpre-include=/usr/include/finclude/math-vector-fortran.h
REM seed -426317003 -867931816 1894859277 -561355053 1165317673 -1976378680 -180573134 -626584114 302298787 1876494795 2114579154 -687661493 1775081011 -136369538 1603160875 2114211026 -1351986361 -1004947493 601326182 -109834747 -2012825127 -271783716 831758873 1765622411 1177769444 335406015 1965050219 1635835942 -1795819701 -1568333432 1765385650 81913891 1748371276
REM
CELL 1.54180   50.00000   50.00000   50.00000   90.00000   90.00000   90.00000
LATT -1
SFAC C  
C      1  0.4426400000000  0.4284490000000  0.5269630000000 1.0
C      1  0.5982210000000  0.4636540000000  0.4628240000000 1.0
C      1  0.5396930000000  0.4483700000000  0.5359690000000 1.0
C      1  0.5440120000000  0.4872670000000  0.5647370000000 1.0
C      1  0.5853990000000  0.4081980000000  0.4521180000000 1.0
C      1  0.4243430000000  0.5590730000000  0.5279490000000 1.0
C      1  0.5096130000000  0.5924180000000  0.4986210000000 1.0
C      1  0.5714680000000  0.4157690000000  0.4737560000000 1.0
C      1  0.5287070000000  0.5094170000000  0.5573590000000 1.0
C      1  0.6081070000000  0.4485100000000  0.4430100000000 1.0
C      1  0.4274720000000  0.5709660000000  0.5041520000000 1.0
C      1  0.5145830000000  0.4272850000000  0.4391510000000 1.0
C      1  0.4911920000000  0.4448000000000  0.5228510000000 1.0
C      1  0.4466170000000  0.5795640000000  0.4534160000000 1.0
C      1  0.4922070000000  0.5096550000000  0.4584140000000 1.0
C      1  0.5073460000000  0.5635550000000  0.5385550000000 1.0
C      1  0.4917540000000  0.4604960000000  0.4994560000000 1.0
C      1  0.5604920000000  0.5079590000000  0.4881900000000 1.0
C      1  0.4127390000000  0.5952330000000  0.4137150000000 1.0
C      1  0.5008730000000  0.4876100000000  0.5002740000000 1.0
C      1  0.5327160000000  0.5520560000000  0.5315770000000 1.0
C      1  0.5096210000000  0.5915600000000  0.5449560000000 1.0
C      1  0.5124180000000  0.4464280000000  0.5430780000000 1.0
C      1  0.4587780000000  0.5235060000000  0.4923780000000 1.0
C      1  0.5429420000000  0.5556790000000  0.5046880000000 1.0
C      1  0.4856920000000  0.5560570000000  0.5199530000000 1.0
C      1  0.5669710000000  0.4377850000000  0.4907050000000 1.0
C      1  0.4537580000000  0.4996550000000  0.5684920000000 1.0
C      1  0.4292430000000  0.5876510000000  0.4330040000000 1.0
C      1  0.4268080000000  0.5411360000000  0.5476860000000 1.0
C      1  0.4280560000000  0.4515120000000  0.4754910000000 1.0
C      1  0.4354590000000  0.5200140000000  0.5616820000000 1.0
C      1  0.5297050000000  0.5748370000000  0.4869300000000 1.0
C      1  0.4813100000000  0.4500990000000  0.4749510000000 1.0
C      1  0.5740300000000  0.4817650000000  0.5279270000000 1.0
C      1  0.5018970000000  0.5062300000000  0.5485540000000 1.0
C      1  0.4970000000000  0.4513960000000  0.5676130000000 1.0
C      1  0.4984080000000  0.4373440000000  0.4569340000000 1.0
C      1  0.4846260000000  0.5777460000000  0.5009460000000 1.0
C      1  0.5112600000000  0.4979080000000  0.4754260000000 1.0
C      1  0.5145190000000  0.6070030000000  0.5226950000000 1.0
C      1  0.5504570000000  0.4354410000000  0.5133550000000 1.0
C      1  0.3964910000000  0.6026920000000  0.3947410000000 1.0
C      1  0.4205170000000  0.4639190000000  0.5657300000000 1.0
C      1  0.4689300000000  0.5207140000000  0.4661640000000 1.0
C      1  0.6278320000000  0.3985700000000  0.3932360000000 1.0
C      1  0.6161470000000  0.4097680000000  0.4136640000000 1.0
C      1  0.4810150000000  0.5060230000000  0.5671500000000 1.0
C      1  0.4945470000000  0.5068920000000  0.5208670000000 1.0
C      1  0.4065940000000  0.4525660000000  0.5455690000000 1.0
C      1  0.4170480000000  0.4398220000000  0.5227040000000 1.0
C      1  0.5000920000000  0.5705110000000  0.4465290000000 1.0
C      1  0.4681190000000  0.4527980000000  0.5627730000000 1.0
C      1  0.5235330000000  0.5692510000000  0.4598270000000 1.0
C      1  0.5745930000000  0.4860770000000  0.5000940000000 1.0
C      1  0.4736170000000  0.5745800000000  0.4468130000000 1.0
C      1  0.4783350000000  0.5295070000000  0.5126080000000 1.0
C      1  0.6037060000000  0.4216910000000  0.4354150000000 1.0
C      1  0.4474920000000  0.4717450000000  0.5692100000000 1.0
C      1  0.5605140000000  0.5352780000000  0.4955620000000 1.0
C      1  0.5386840000000  0.5004690000000  0.4720050000000 1.0
C      1  0.4661630000000  0.4398670000000  0.5362900000000 1.0
C      1  0.5802500000000  0.4628240000000  0.4844250000000 1.0
C      1  0.4362050000000  0.5767600000000  0.4795220000000 1.0
C      1  0.4115170000000  0.4464980000000  0.4960310000000 1.0
C      1  0.5419020000000  0.5328660000000  0.5495700000000 1.0
C      1  0.4336370000000  0.5144670000000  0.4980770000000 1.0
C      1  0.5554150000000  0.4701660000000  0.5457740000000 1.0
C      1  0.4539570000000  0.4526250000000  0.4691480000000 1.0
END
