TITL C-247198-3593-641 76137.1804785466 125000 -1110.94848777432 0 0 183 (C1) n - 1
REM
REM in /home/nfs/bkarasulu/CARBON/AIRSS/Generating-Clusters/LCBOP/Only-C1/SD-CG/FIRE-HFTN
REM
REM
REM
REM
REM
REM ./C.cell (11c1c37f851c82e70ff6c80c92926a4b)
REM AIRSS Version 0.9.1 bugfix July 2018 build 013d7b7c2542+ Fri, 06 Jul 2018 19:26:36 +0100
REM compiler GCC version 9.2.1 20190827 (Red Hat 9.2.1-1)
REM options -cpp -mtune=generic -march=x86-64 -g -O0 -fpre-include=/usr/include/finclude/math-vector-fortran.h
REM seed -250641936 1089609987 1960602731 168580551 1146320151 1148886654 425773376 1174659748 -860759392 -1841354567 -1468201884 1065535501 -2141995391 -1310353914 -275786946 1969894699 -1444676080 191919436 529891729 -1334791690 -1906037063 447989387 -1845654254 -1355656258 1593031941 -1659814945 1353599238 1007076841 -1676568720 -1144798461 -1443967965 1150940307 551756220
REM
CELL 1.54180   50.00000   50.00000   50.00000   90.00000   90.00000   90.00000
LATT -1
SFAC C  
C      1  0.4284450000000  0.5391030000000  0.5132450000000 1.0
C      1  0.5432880000000  0.4042170000000  0.4925530000000 1.0
C      1  0.5081500000000  0.5923220000000  0.4795670000000 1.0
C      1  0.5386320000000  0.5895910000000  0.6327870000000 1.0
C      1  0.6009750000000  0.5183330000000  0.4723890000000 1.0
C      1  0.3954230000000  0.4087740000000  0.5135640000000 1.0
C      1  0.5347380000000  0.6216960000000  0.3934140000000 1.0
C      1  0.4872300000000  0.3769270000000  0.4728620000000 1.0
C      1  0.4623580000000  0.5372150000000  0.5617150000000 1.0
C      1  0.4790760000000  0.5197050000000  0.3730300000000 1.0
C      1  0.4764740000000  0.4989560000000  0.3919220000000 1.0
C      1  0.5570770000000  0.4288110000000  0.5354510000000 1.0
C      1  0.4609650000000  0.6064800000000  0.5309770000000 1.0
C      1  0.5051320000000  0.5040000000000  0.4538950000000 1.0
C      1  0.4580600000000  0.6239760000000  0.4869770000000 1.0
C      1  0.4109600000000  0.4677490000000  0.5061670000000 1.0
C      1  0.4548040000000  0.5112930000000  0.5569360000000 1.0
C      1  0.4163790000000  0.5621030000000  0.5800830000000 1.0
C      1  0.4723360000000  0.5855220000000  0.5452970000000 1.0
C      1  0.4374600000000  0.6100530000000  0.4759240000000 1.0
C      1  0.6141140000000  0.4745440000000  0.4590170000000 1.0
C      1  0.5566520000000  0.5135750000000  0.4343240000000 1.0
C      1  0.5127970000000  0.4333180000000  0.5099810000000 1.0
C      1  0.5016040000000  0.5810210000000  0.4063850000000 1.0
C      1  0.5561290000000  0.5454970000000  0.6238780000000 1.0
C      1  0.4327690000000  0.6074800000000  0.5335330000000 1.0
C      1  0.5636020000000  0.4129140000000  0.5116130000000 1.0
C      1  0.5441280000000  0.5693710000000  0.6152540000000 1.0
C      1  0.4087430000000  0.5408840000000  0.5337520000000 1.0
C      1  0.5752880000000  0.4880880000000  0.5576210000000 1.0
C      1  0.5517240000000  0.6034970000000  0.5223220000000 1.0
C      1  0.4339630000000  0.4623540000000  0.4290050000000 1.0
C      1  0.5256180000000  0.3953460000000  0.4378670000000 1.0
C      1  0.4881580000000  0.4396360000000  0.5954250000000 1.0
C      1  0.4540740000000  0.4445000000000  0.4178210000000 1.0
C      1  0.3984730000000  0.4656280000000  0.4623170000000 1.0
C      1  0.5083670000000  0.4177800000000  0.5899700000000 1.0
C      1  0.5102830000000  0.4864180000000  0.6011840000000 1.0
C      1  0.5720450000000  0.4738370000000  0.4829990000000 1.0
C      1  0.5227990000000  0.5685230000000  0.4855090000000 1.0
C      1  0.5933190000000  0.5433130000000  0.5334580000000 1.0
C      1  0.4589280000000  0.4627630000000  0.4712810000000 1.0
C      1  0.4670660000000  0.4412530000000  0.5752870000000 1.0
C      1  0.4796510000000  0.4679020000000  0.4535270000000 1.0
C      1  0.6056930000000  0.4564090000000  0.4384280000000 1.0
C      1  0.4911780000000  0.5858830000000  0.5932420000000 1.0
C      1  0.5440080000000  0.5013520000000  0.3376060000000 1.0
C      1  0.4910530000000  0.5437650000000  0.3761990000000 1.0
C      1  0.4318440000000  0.4909590000000  0.4304440000000 1.0
C      1  0.5776270000000  0.5458960000000  0.5575870000000 1.0
C      1  0.5389520000000  0.5071300000000  0.3625060000000 1.0
C      1  0.4661350000000  0.4897910000000  0.5701300000000 1.0
C      1  0.5156280000000  0.5864910000000  0.5782190000000 1.0
C      1  0.4167920000000  0.4157020000000  0.4966840000000 1.0
C      1  0.5200400000000  0.4660130000000  0.5618880000000 1.0
C      1  0.4749120000000  0.5084390000000  0.4187510000000 1.0
C      1  0.4321530000000  0.5573910000000  0.4314390000000 1.0
C      1  0.4883940000000  0.5070500000000  0.4783590000000 1.0
C      1  0.4108780000000  0.5634280000000  0.5516910000000 1.0
C      1  0.3975160000000  0.4833320000000  0.4858780000000 1.0
C      1  0.5271920000000  0.4662350000000  0.4688790000000 1.0
C      1  0.5731190000000  0.5226770000000  0.4771850000000 1.0
C      1  0.5367960000000  0.3782110000000  0.4816710000000 1.0
C      1  0.5032830000000  0.6083750000000  0.5041080000000 1.0
C      1  0.6017650000000  0.4940650000000  0.5466220000000 1.0
C      1  0.5088110000000  0.4418450000000  0.5541660000000 1.0
C      1  0.4717100000000  0.5609120000000  0.5548880000000 1.0
C      1  0.5328440000000  0.5398490000000  0.4000310000000 1.0
C      1  0.5163080000000  0.5326540000000  0.5370140000000 1.0
C      1  0.4655470000000  0.4436980000000  0.5157460000000 1.0
C      1  0.4195550000000  0.5024200000000  0.4082700000000 1.0
C      1  0.4339190000000  0.4031720000000  0.4762760000000 1.0
C      1  0.5641920000000  0.4788200000000  0.5856280000000 1.0
C      1  0.5531390000000  0.5390960000000  0.4206570000000 1.0
C      1  0.5389530000000  0.5719180000000  0.5871860000000 1.0
C      1  0.4045010000000  0.5385830000000  0.4734680000000 1.0
C      1  0.6018670000000  0.4750010000000  0.4863060000000 1.0
C      1  0.4251970000000  0.4822730000000  0.5251030000000 1.0
C      1  0.5420220000000  0.3778120000000  0.4536140000000 1.0
C      1  0.5011550000000  0.4281970000000  0.4656020000000 1.0
C      1  0.5185430000000  0.4194560000000  0.4867340000000 1.0
C      1  0.5278110000000  0.4562820000000  0.5131580000000 1.0
C      1  0.5329720000000  0.4735120000000  0.5864150000000 1.0
C      1  0.5870130000000  0.5651650000000  0.4900080000000 1.0
C      1  0.4499640000000  0.4898130000000  0.6661280000000 1.0
C      1  0.4140850000000  0.5892620000000  0.5402170000000 1.0
C      1  0.5812480000000  0.6467660000000  0.3929520000000 1.0
C      1  0.5575260000000  0.5586980000000  0.5701980000000 1.0
C      1  0.3942650000000  0.5119150000000  0.4943170000000 1.0
C      1  0.5157310000000  0.6037550000000  0.3977640000000 1.0
C      1  0.4577910000000  0.5122400000000  0.4760100000000 1.0
C      1  0.4523670000000  0.5765710000000  0.4238540000000 1.0
C      1  0.4952380000000  0.5042740000000  0.5056960000000 1.0
C      1  0.4647050000000  0.5821880000000  0.5976400000000 1.0
C      1  0.4505030000000  0.4484610000000  0.4933740000000 1.0
C      1  0.5916070000000  0.4126880000000  0.5072650000000 1.0
C      1  0.4951340000000  0.4273580000000  0.3977730000000 1.0
C      1  0.4509890000000  0.5291190000000  0.4999470000000 1.0
C      1  0.4394050000000  0.5745770000000  0.5917410000000 1.0
C      1  0.6056310000000  0.6557880000000  0.3948890000000 1.0
C      1  0.5090020000000  0.3747570000000  0.5221300000000 1.0
C      1  0.5791630000000  0.4641030000000  0.4282350000000 1.0
C      1  0.5508580000000  0.4568880000000  0.5291540000000 1.0
C      1  0.4867160000000  0.4682280000000  0.6070910000000 1.0
C      1  0.4736870000000  0.5444850000000  0.5091720000000 1.0
C      1  0.5709290000000  0.4988980000000  0.6065290000000 1.0
C      1  0.5753120000000  0.5908630000000  0.5269220000000 1.0
C      1  0.5794220000000  0.4950380000000  0.4328210000000 1.0
C      1  0.4589350000000  0.5677830000000  0.4713950000000 1.0
C      1  0.4531840000000  0.4842670000000  0.6408710000000 1.0
C      1  0.6122140000000  0.4266110000000  0.5176840000000 1.0
C      1  0.5518590000000  0.5052300000000  0.5167730000000 1.0
C      1  0.4716460000000  0.4188470000000  0.5275920000000 1.0
C      1  0.6212450000000  0.4472740000000  0.5322250000000 1.0
C      1  0.4335850000000  0.5820350000000  0.4736770000000 1.0
C      1  0.3801300000000  0.4230800000000  0.5306250000000 1.0
C      1  0.4862870000000  0.4719870000000  0.3908910000000 1.0
C      1  0.4705210000000  0.5494620000000  0.4522830000000 1.0
C      1  0.5135970000000  0.5146940000000  0.5593750000000 1.0
C      1  0.3930420000000  0.4958510000000  0.5537870000000 1.0
C      1  0.5258330000000  0.4042180000000  0.5680620000000 1.0
C      1  0.5119340000000  0.3948050000000  0.5430220000000 1.0
C      1  0.5234180000000  0.6058410000000  0.5262170000000 1.0
C      1  0.5297740000000  0.5019840000000  0.4365750000000 1.0
C      1  0.5684960000000  0.4266170000000  0.5825400000000 1.0
C      1  0.4734720000000  0.5683020000000  0.4955160000000 1.0
C      1  0.5539980000000  0.4587870000000  0.4659290000000 1.0
C      1  0.4381580000000  0.5098280000000  0.4525630000000 1.0
C      1  0.4579800000000  0.4226480000000  0.4371570000000 1.0
C      1  0.4936480000000  0.4840240000000  0.5250000000000 1.0
C      1  0.4847670000000  0.4904380000000  0.4376300000000 1.0
C      1  0.5411450000000  0.5506060000000  0.4970620000000 1.0
C      1  0.5571060000000  0.6358510000000  0.3920750000000 1.0
C      1  0.4571670000000  0.4786900000000  0.6132800000000 1.0
C      1  0.4944600000000  0.5941150000000  0.4534720000000 1.0
C      1  0.5371410000000  0.4274100000000  0.4271580000000 1.0
C      1  0.5579760000000  0.4467660000000  0.4392550000000 1.0
C      1  0.4330820000000  0.4212390000000  0.4528900000000 1.0
C      1  0.5665590000000  0.5213420000000  0.6200670000000 1.0
C      1  0.4320780000000  0.4841970000000  0.5960830000000 1.0
C      1  0.5320500000000  0.5127190000000  0.3888610000000 1.0
C      1  0.5198210000000  0.4397280000000  0.4070930000000 1.0
C      1  0.4221920000000  0.5344190000000  0.4497690000000 1.0
C      1  0.4734330000000  0.4652760000000  0.5311300000000 1.0
C      1  0.5612450000000  0.5001410000000  0.4904200000000 1.0
C      1  0.4552970000000  0.3987320000000  0.5355600000000 1.0
C      1  0.4731850000000  0.5344200000000  0.4298020000000 1.0
C      1  0.5579190000000  0.4838210000000  0.5355650000000 1.0
C      1  0.4754740000000  0.6169070000000  0.5084490000000 1.0
C      1  0.4386170000000  0.5020780000000  0.5363670000000 1.0
C      1  0.5162030000000  0.6004430000000  0.5533660000000 1.0
C      1  0.6035290000000  0.5152200000000  0.5254210000000 1.0
C      1  0.4969210000000  0.3892430000000  0.4462670000000 1.0
C      1  0.4658980000000  0.4641330000000  0.5586710000000 1.0
C      1  0.6187600000000  0.4714330000000  0.5436940000000 1.0
C      1  0.5031820000000  0.4552620000000  0.4612480000000 1.0
C      1  0.5089450000000  0.5128790000000  0.5878960000000 1.0
C      1  0.5518740000000  0.4170710000000  0.5618240000000 1.0
C      1  0.6043170000000  0.5016030000000  0.4488990000000 1.0
C      1  0.4170730000000  0.4475980000000  0.4485920000000 1.0
C      1  0.3770760000000  0.4721910000000  0.5492640000000 1.0
C      1  0.4948440000000  0.5299220000000  0.5185590000000 1.0
C      1  0.4581390000000  0.3851050000000  0.4788160000000 1.0
C      1  0.3932230000000  0.5164720000000  0.5304650000000 1.0
C      1  0.5004480000000  0.4211140000000  0.5337830000000 1.0
C      1  0.6085070000000  0.5034200000000  0.4974070000000 1.0
C      1  0.4818470000000  0.5852850000000  0.4276860000000 1.0
C      1  0.5393950000000  0.5316610000000  0.5197580000000 1.0
C      1  0.4833290000000  0.4146880000000  0.4475050000000 1.0
C      1  0.5143620000000  0.4682190000000  0.4007450000000 1.0
C      1  0.5262180000000  0.4924130000000  0.4085680000000 1.0
C      1  0.3739720000000  0.4464050000000  0.5424430000000 1.0
C      1  0.4232600000000  0.4436490000000  0.4983510000000 1.0
C      1  0.4096840000000  0.5667060000000  0.4794150000000 1.0
C      1  0.3983990000000  0.5495190000000  0.5965640000000 1.0
C      1  0.4730730000000  0.4466700000000  0.3970640000000 1.0
C      1  0.4120520000000  0.4925170000000  0.5777540000000 1.0
C      1  0.5109350000000  0.4883450000000  0.5473550000000 1.0
C      1  0.5096570000000  0.3715020000000  0.4927440000000 1.0
C      1  0.5906980000000  0.5683650000000  0.5177840000000 1.0
C      1  0.5750400000000  0.4511230000000  0.5914500000000 1.0
C      1  0.5655780000000  0.5485770000000  0.4826950000000 1.0
C      1  0.5093360000000  0.5559160000000  0.3945130000000 1.0
END
