TITL C-247200-3482-302 6.40505334796721e-08 125000 -648.467211626834 0 0 107 (C1) n - 1
REM
REM in /home/nfs/bkarasulu/CARBON/AIRSS/Generating-Clusters/LCBOP/Only-C1/SD-CG/FIRE-HFTN
REM
REM
REM
REM
REM
REM ./C.cell (11c1c37f851c82e70ff6c80c92926a4b)
REM AIRSS Version 0.9.1 bugfix July 2018 build 013d7b7c2542+ Fri, 06 Jul 2018 19:26:36 +0100
REM compiler GCC version 9.2.1 20190827 (Red Hat 9.2.1-1)
REM options -cpp -mtune=generic -march=x86-64 -g -O0 -fpre-include=/usr/include/finclude/math-vector-fortran.h
REM seed 1854864884 -659448579 1385676364 -970538576 -467027958 908551727 -1706326153 1675929673 1228102377 -1904009941 576320646 -1093490683 1657613958 1494533774 273453661 -1288252378 -296131152 639067640 803745125 -1174965402 -342018760 -401787590 -75974815 827172734 -850563465 911789690 1757236385 547314066 1918990591 -1948686956 -1814347832 1362759333 -941331533
REM
CELL 1.54180   50.00000   50.00000   50.00000   90.00000   90.00000   90.00000
LATT -1
SFAC C  
C      1  0.4398040000000  0.5399050000000  0.5134910000000 1.0
C      1  0.4491120000000  0.5648000000000  0.4045780000000 1.0
C      1  0.4506180000000  0.4724710000000  0.6371450000000 1.0
C      1  0.5616790000000  0.4585730000000  0.5272400000000 1.0
C      1  0.5696060000000  0.5543240000000  0.5427310000000 1.0
C      1  0.4524950000000  0.4908220000000  0.4901990000000 1.0
C      1  0.4602850000000  0.4274150000000  0.4752980000000 1.0
C      1  0.4951050000000  0.5485290000000  0.5051720000000 1.0
C      1  0.4995230000000  0.4384510000000  0.4988900000000 1.0
C      1  0.3969150000000  0.5025630000000  0.5185380000000 1.0
C      1  0.5587770000000  0.5319160000000  0.4729000000000 1.0
C      1  0.5193270000000  0.4255140000000  0.5380800000000 1.0
C      1  0.5395420000000  0.5184490000000  0.5467470000000 1.0
C      1  0.5786070000000  0.4164490000000  0.5007590000000 1.0
C      1  0.4457240000000  0.4321190000000  0.4514560000000 1.0
C      1  0.4935490000000  0.4233520000000  0.5232930000000 1.0
C      1  0.5063860000000  0.5349400000000  0.3722330000000 1.0
C      1  0.4729360000000  0.6022570000000  0.4586020000000 1.0
C      1  0.5974630000000  0.5003840000000  0.5274710000000 1.0
C      1  0.5564030000000  0.4886830000000  0.5038870000000 1.0
C      1  0.4510640000000  0.5497300000000  0.5385160000000 1.0
C      1  0.4432260000000  0.4579220000000  0.6147190000000 1.0
C      1  0.5825790000000  0.5040690000000  0.5535340000000 1.0
C      1  0.5901200000000  0.5500880000000  0.5226730000000 1.0
C      1  0.5649250000000  0.5089830000000  0.4141410000000 1.0
C      1  0.4555310000000  0.4396270000000  0.5503830000000 1.0
C      1  0.6020330000000  0.4795920000000  0.5064420000000 1.0
C      1  0.5171500000000  0.4948600000000  0.4156170000000 1.0
C      1  0.4765730000000  0.4845590000000  0.4720760000000 1.0
C      1  0.5350670000000  0.4463290000000  0.5239100000000 1.0
C      1  0.4933160000000  0.5080550000000  0.4759210000000 1.0
C      1  0.4862900000000  0.4379210000000  0.4748780000000 1.0
C      1  0.5144480000000  0.4906040000000  0.5778560000000 1.0
C      1  0.5413110000000  0.5600380000000  0.5063240000000 1.0
C      1  0.5522230000000  0.4370010000000  0.5712500000000 1.0
C      1  0.5312090000000  0.4833500000000  0.4924540000000 1.0
C      1  0.4330200000000  0.5756230000000  0.4754220000000 1.0
C      1  0.4006920000000  0.4381210000000  0.4992040000000 1.0
C      1  0.5246940000000  0.5186900000000  0.5250190000000 1.0
C      1  0.3900160000000  0.5115700000000  0.4688220000000 1.0
C      1  0.4922440000000  0.4616520000000  0.4606490000000 1.0
C      1  0.5442400000000  0.5223650000000  0.5975930000000 1.0
C      1  0.4996450000000  0.6059610000000  0.4600560000000 1.0
C      1  0.4718180000000  0.4923790000000  0.6007320000000 1.0
C      1  0.5804050000000  0.4379990000000  0.5167850000000 1.0
C      1  0.5161420000000  0.5663090000000  0.5471230000000 1.0
C      1  0.5443810000000  0.5674350000000  0.5346250000000 1.0
C      1  0.3757450000000  0.4312730000000  0.4960820000000 1.0
C      1  0.5187130000000  0.4486050000000  0.3990660000000 1.0
C      1  0.5187340000000  0.4594510000000  0.4469940000000 1.0
C      1  0.5885440000000  0.5092580000000  0.4031400000000 1.0
C      1  0.5100010000000  0.5505470000000  0.5715980000000 1.0
C      1  0.5159030000000  0.4622480000000  0.5071480000000 1.0
C      1  0.4667580000000  0.5734610000000  0.5348870000000 1.0
C      1  0.5215160000000  0.5396990000000  0.5074120000000 1.0
C      1  0.5314200000000  0.4210700000000  0.5632630000000 1.0
C      1  0.5911380000000  0.4705990000000  0.4821360000000 1.0
C      1  0.5658690000000  0.4854000000000  0.5695170000000 1.0
C      1  0.4653660000000  0.5457830000000  0.3948480000000 1.0
C      1  0.4672740000000  0.4932450000000  0.6294720000000 1.0
C      1  0.4679520000000  0.4902430000000  0.4140100000000 1.0
C      1  0.4871000000000  0.5317790000000  0.5736100000000 1.0
C      1  0.4226920000000  0.4951700000000  0.4314480000000 1.0
C      1  0.4431860000000  0.4515710000000  0.4330050000000 1.0
C      1  0.4331880000000  0.4747780000000  0.5041140000000 1.0
C      1  0.5907110000000  0.5241480000000  0.5107630000000 1.0
C      1  0.4524990000000  0.5803470000000  0.4535170000000 1.0
C      1  0.5255570000000  0.5986860000000  0.4605610000000 1.0
C      1  0.4705720000000  0.5562930000000  0.4518180000000 1.0
C      1  0.5209280000000  0.5026030000000  0.4736970000000 1.0
C      1  0.5001840000000  0.4754730000000  0.5292560000000 1.0
C      1  0.5181410000000  0.4666720000000  0.4194190000000 1.0
C      1  0.4912980000000  0.5051710000000  0.4073220000000 1.0
C      1  0.5197910000000  0.5437330000000  0.4465990000000 1.0
C      1  0.5070880000000  0.4762700000000  0.5550850000000 1.0
C      1  0.4548510000000  0.4696260000000  0.5905610000000 1.0
C      1  0.4191640000000  0.4872400000000  0.5259970000000 1.0
C      1  0.4269160000000  0.4471200000000  0.5018450000000 1.0
C      1  0.5452090000000  0.4501210000000  0.4573880000000 1.0
C      1  0.5424110000000  0.4964870000000  0.5850120000000 1.0
C      1  0.4620980000000  0.5347580000000  0.5600090000000 1.0
C      1  0.4933670000000  0.5680520000000  0.5272140000000 1.0
C      1  0.4648050000000  0.4263960000000  0.5268600000000 1.0
C      1  0.4919910000000  0.5064150000000  0.5869360000000 1.0
C      1  0.5367130000000  0.5204560000000  0.4545350000000 1.0
C      1  0.5466200000000  0.5823820000000  0.4650940000000 1.0
C      1  0.4949100000000  0.5512030000000  0.4432340000000 1.0
C      1  0.4877830000000  0.5287710000000  0.3914170000000 1.0
C      1  0.5699920000000  0.4643700000000  0.4651170000000 1.0
C      1  0.5653520000000  0.5278470000000  0.5531410000000 1.0
C      1  0.4544090000000  0.5192890000000  0.4996680000000 1.0
C      1  0.4488290000000  0.4290580000000  0.5018380000000 1.0
C      1  0.5693510000000  0.5140670000000  0.4937750000000 1.0
C      1  0.4445490000000  0.4786900000000  0.4249030000000 1.0
C      1  0.4283890000000  0.4798400000000  0.5513300000000 1.0
C      1  0.4466050000000  0.4626810000000  0.5645030000000 1.0
C      1  0.5305990000000  0.5450820000000  0.5908790000000 1.0
C      1  0.5403160000000  0.5078320000000  0.4272420000000 1.0
C      1  0.5634020000000  0.4597710000000  0.5577650000000 1.0
C      1  0.5477880000000  0.4221540000000  0.4624390000000 1.0
C      1  0.4803850000000  0.5284580000000  0.4916190000000 1.0
C      1  0.4416210000000  0.5803520000000  0.4254750000000 1.0
C      1  0.4036940000000  0.5059960000000  0.4466400000000 1.0
C      1  0.4278440000000  0.5593640000000  0.4963450000000 1.0
C      1  0.5539000000000  0.5600460000000  0.4809390000000 1.0
C      1  0.3864640000000  0.5108430000000  0.4952780000000 1.0
C      1  0.5635880000000  0.4089060000000  0.4797840000000 1.0
END
