TITL C-247196-3112-429 0.096752734035884 125000 -490.397560469231 0 0 81 (C1) n - 1
REM
REM in /home/nfs/bkarasulu/CARBON/AIRSS/Generating-Clusters/LCBOP/Only-C1/SD-CG/FIRE-HFTN
REM
REM
REM
REM
REM
REM ./C.cell (11c1c37f851c82e70ff6c80c92926a4b)
REM AIRSS Version 0.9.1 bugfix July 2018 build 013d7b7c2542+ Fri, 06 Jul 2018 19:26:36 +0100
REM compiler GCC version 9.2.1 20190827 (Red Hat 9.2.1-1)
REM options -cpp -mtune=generic -march=x86-64 -g -O0 -fpre-include=/usr/include/finclude/math-vector-fortran.h
REM seed -1526176300 246306524 1376629988 978815317 398551543 -1376845310 -1096676481 -21160393 1056328151 1710894186 1636244865 -2099878765 1827124214 568898125 1122430373 1599367359 1694430910 -1029206138 -239902625 -375632004 398026213 -1796238171 558905891 779906262 398018612 703954595 1103950231 124054330 472619466 -469858685 136974727 2096732353 66721154
REM
CELL 1.54180   50.00000   50.00000   50.00000   90.00000   90.00000   90.00000
LATT -1
SFAC C  
C      1  0.4202900000000  0.6154940000000  0.4810060000000 1.0
C      1  0.5286280000000  0.5252090000000  0.4886320000000 1.0
C      1  0.4821670000000  0.5690870000000  0.4602780000000 1.0
C      1  0.5262100000000  0.5584680000000  0.4396270000000 1.0
C      1  0.5371290000000  0.5216630000000  0.5348970000000 1.0
C      1  0.5592060000000  0.5072970000000  0.5225070000000 1.0
C      1  0.5510410000000  0.4230510000000  0.4706320000000 1.0
C      1  0.5118060000000  0.4659590000000  0.4247550000000 1.0
C      1  0.5018240000000  0.5178230000000  0.4162770000000 1.0
C      1  0.4842700000000  0.5441340000000  0.4730320000000 1.0
C      1  0.5138460000000  0.5173160000000  0.5151270000000 1.0
C      1  0.4243730000000  0.4977810000000  0.5276240000000 1.0
C      1  0.5493650000000  0.5512520000000  0.5740930000000 1.0
C      1  0.4790540000000  0.4413280000000  0.4813420000000 1.0
C      1  0.4321510000000  0.5133480000000  0.4531100000000 1.0
C      1  0.5158110000000  0.5624810000000  0.5390790000000 1.0
C      1  0.4841590000000  0.4229400000000  0.5461280000000 1.0
C      1  0.4845000000000  0.5068420000000  0.5686340000000 1.0
C      1  0.4325950000000  0.5257150000000  0.5288390000000 1.0
C      1  0.5174900000000  0.4508490000000  0.4481520000000 1.0
C      1  0.5530910000000  0.5065820000000  0.4933620000000 1.0
C      1  0.5850140000000  0.5345310000000  0.4458130000000 1.0
C      1  0.5455240000000  0.4448300000000  0.4534290000000 1.0
C      1  0.4591620000000  0.4344550000000  0.5536140000000 1.0
C      1  0.5038110000000  0.4549570000000  0.4737500000000 1.0
C      1  0.4673210000000  0.4835550000000  0.5097130000000 1.0
C      1  0.5455500000000  0.5611470000000  0.4617730000000 1.0
C      1  0.5248900000000  0.5349510000000  0.4221730000000 1.0
C      1  0.5325650000000  0.4747320000000  0.5738380000000 1.0
C      1  0.5514440000000  0.4124250000000  0.5242580000000 1.0
C      1  0.4289250000000  0.4612240000000  0.4964460000000 1.0
C      1  0.4363030000000  0.4279030000000  0.5370470000000 1.0
C      1  0.4249630000000  0.5143650000000  0.4811840000000 1.0
C      1  0.5309800000000  0.5679810000000  0.5140500000000 1.0
C      1  0.4390440000000  0.5326650000000  0.5006380000000 1.0
C      1  0.5095230000000  0.4898720000000  0.4121920000000 1.0
C      1  0.5365480000000  0.5546500000000  0.4887400000000 1.0
C      1  0.5106940000000  0.5190230000000  0.5739020000000 1.0
C      1  0.4842850000000  0.4091540000000  0.5213650000000 1.0
C      1  0.5209160000000  0.4714130000000  0.4920280000000 1.0
C      1  0.4740880000000  0.5190020000000  0.4256570000000 1.0
C      1  0.5471390000000  0.4808590000000  0.4827150000000 1.0
C      1  0.5502500000000  0.4147490000000  0.4961310000000 1.0
C      1  0.5691880000000  0.5604850000000  0.5882410000000 1.0
C      1  0.4261320000000  0.4511290000000  0.5239040000000 1.0
C      1  0.5278890000000  0.5400130000000  0.5571770000000 1.0
C      1  0.4879660000000  0.4789010000000  0.5275550000000 1.0
C      1  0.5111930000000  0.4868480000000  0.5143400000000 1.0
C      1  0.5324180000000  0.4242350000000  0.5414480000000 1.0
C      1  0.4515090000000  0.4508500000000  0.4813960000000 1.0
C      1  0.4880090000000  0.5571680000000  0.5343970000000 1.0
C      1  0.5567050000000  0.4729430000000  0.5590090000000 1.0
C      1  0.4596830000000  0.5204630000000  0.5692410000000 1.0
C      1  0.5589850000000  0.4694800000000  0.4595590000000 1.0
C      1  0.5729300000000  0.5564460000000  0.4561320000000 1.0
C      1  0.5276710000000  0.4995880000000  0.5868020000000 1.0
C      1  0.4482290000000  0.5314690000000  0.4345430000000 1.0
C      1  0.5029680000000  0.5743350000000  0.4420710000000 1.0
C      1  0.5086130000000  0.4607540000000  0.5656640000000 1.0
C      1  0.4445960000000  0.4875850000000  0.4458080000000 1.0
C      1  0.4842170000000  0.4782030000000  0.5573360000000 1.0
C      1  0.4617680000000  0.5871550000000  0.4655860000000 1.0
C      1  0.4828320000000  0.4172260000000  0.4958270000000 1.0
C      1  0.4626370000000  0.5611870000000  0.5458120000000 1.0
C      1  0.4410130000000  0.6018520000000  0.4730030000000 1.0
C      1  0.4711900000000  0.5013250000000  0.4888550000000 1.0
C      1  0.5720470000000  0.3981200000000  0.5353760000000 1.0
C      1  0.5499230000000  0.5223180000000  0.4169240000000 1.0
C      1  0.5051690000000  0.5226120000000  0.4685300000000 1.0
C      1  0.5723860000000  0.4867570000000  0.4418790000000 1.0
C      1  0.4725510000000  0.4937150000000  0.4421370000000 1.0
C      1  0.4205080000000  0.4900060000000  0.4980140000000 1.0
C      1  0.4684100000000  0.5314910000000  0.4957240000000 1.0
C      1  0.4567450000000  0.4638370000000  0.5584160000000 1.0
C      1  0.4469110000000  0.5376670000000  0.5506170000000 1.0
C      1  0.4885420000000  0.5337000000000  0.5178570000000 1.0
C      1  0.5718670000000  0.5133280000000  0.4323870000000 1.0
C      1  0.4329460000000  0.4742980000000  0.5427720000000 1.0
C      1  0.4878090000000  0.4988570000000  0.4656210000000 1.0
C      1  0.5091970000000  0.4344920000000  0.5538550000000 1.0
C      1  0.5687020000000  0.4861050000000  0.5385930000000 1.0
END
