TITL C-247200-3482-652 4.86054425702526 125000 -427.664929666815 0 0 71 (C1) n - 1
REM
REM in /home/nfs/bkarasulu/CARBON/AIRSS/Generating-Clusters/LCBOP/Only-C1/SD-CG/FIRE-HFTN
REM
REM
REM
REM
REM
REM ./C.cell (11c1c37f851c82e70ff6c80c92926a4b)
REM AIRSS Version 0.9.1 bugfix July 2018 build 013d7b7c2542+ Fri, 06 Jul 2018 19:26:36 +0100
REM compiler GCC version 9.2.1 20190827 (Red Hat 9.2.1-1)
REM options -cpp -mtune=generic -march=x86-64 -g -O0 -fpre-include=/usr/include/finclude/math-vector-fortran.h
REM seed 278569376 1476101654 2124849746 -2046143547 1216757162 -10500951 509258547 899231493 -1567391700 1510508116 -1389434460 1036337551 1626488008 705603978 1101313003 -269797948 131247374 2094401888 -118392526 -737128588 -1908257487 2055389027 -1496435059 6952909 -1993355761 -1394830934 -1404071951 196403260 -19713371 -1479742498 367657079 1403180146 -1368291901
REM
CELL 1.54180   50.00000   50.00000   50.00000   90.00000   90.00000   90.00000
LATT -1
SFAC C  
C      1  0.5349010000000  0.5564430000000  0.4849270000000 1.0
C      1  0.4335090000000  0.5603170000000  0.4688460000000 1.0
C      1  0.5025240000000  0.5100940000000  0.4734910000000 1.0
C      1  0.5452030000000  0.5035660000000  0.4025100000000 1.0
C      1  0.5061440000000  0.4794080000000  0.5576650000000 1.0
C      1  0.5227180000000  0.4707500000000  0.5088390000000 1.0
C      1  0.5969000000000  0.5082860000000  0.4580380000000 1.0
C      1  0.4934190000000  0.4658890000000  0.5003560000000 1.0
C      1  0.5383020000000  0.5459470000000  0.4298480000000 1.0
C      1  0.4560040000000  0.4805880000000  0.5559020000000 1.0
C      1  0.5661910000000  0.4763370000000  0.4840120000000 1.0
C      1  0.5512340000000  0.5436950000000  0.5501580000000 1.0
C      1  0.5573710000000  0.4498980000000  0.4779950000000 1.0
C      1  0.4808440000000  0.5131810000000  0.4176100000000 1.0
C      1  0.4870720000000  0.4887430000000  0.4307190000000 1.0
C      1  0.4502130000000  0.3774100000000  0.5842790000000 1.0
C      1  0.4810350000000  0.4380220000000  0.5589590000000 1.0
C      1  0.4898860000000  0.4893300000000  0.4588590000000 1.0
C      1  0.4806500000000  0.4659790000000  0.5575580000000 1.0
C      1  0.5172360000000  0.5708130000000  0.5267640000000 1.0
C      1  0.5132860000000  0.5201070000000  0.5293290000000 1.0
C      1  0.5114980000000  0.5292210000000  0.6078950000000 1.0
C      1  0.5579470000000  0.5377650000000  0.4491590000000 1.0
C      1  0.4720680000000  0.3894170000000  0.5747490000000 1.0
C      1  0.5460720000000  0.5333510000000  0.4744490000000 1.0
C      1  0.4172070000000  0.4512060000000  0.5654710000000 1.0
C      1  0.5071050000000  0.5535090000000  0.6162810000000 1.0
C      1  0.5044380000000  0.4408660000000  0.4305880000000 1.0
C      1  0.4071810000000  0.4295880000000  0.5771730000000 1.0
C      1  0.4181820000000  0.5408070000000  0.4794340000000 1.0
C      1  0.5173450000000  0.4270570000000  0.4787610000000 1.0
C      1  0.5841500000000  0.5285530000000  0.4457940000000 1.0
C      1  0.5096610000000  0.5909900000000  0.5094900000000 1.0
C      1  0.5538670000000  0.4797570000000  0.4111020000000 1.0
C      1  0.5493670000000  0.4444120000000  0.4504420000000 1.0
C      1  0.4832370000000  0.5525530000000  0.4771830000000 1.0
C      1  0.4929460000000  0.4630870000000  0.4201600000000 1.0
C      1  0.4872970000000  0.5259240000000  0.5190570000000 1.0
C      1  0.4144690000000  0.4984290000000  0.5071040000000 1.0
C      1  0.4733530000000  0.5826730000000  0.4442560000000 1.0
C      1  0.4667680000000  0.5269520000000  0.5381450000000 1.0
C      1  0.5419490000000  0.4892900000000  0.4930120000000 1.0
C      1  0.4303400000000  0.4697480000000  0.5492930000000 1.0
C      1  0.5344460000000  0.4430520000000  0.4966510000000 1.0
C      1  0.4551520000000  0.5132680000000  0.4868640000000 1.0
C      1  0.4801220000000  0.5402310000000  0.4159090000000 1.0
C      1  0.4814790000000  0.4688050000000  0.4763290000000 1.0
C      1  0.5274400000000  0.5447950000000  0.5355470000000 1.0
C      1  0.4872900000000  0.6037920000000  0.4595930000000 1.0
C      1  0.4274800000000  0.5165750000000  0.4903450000000 1.0
C      1  0.5378480000000  0.5289840000000  0.4072950000000 1.0
C      1  0.5110690000000  0.5658860000000  0.4705530000000 1.0
C      1  0.5304740000000  0.5105040000000  0.4791510000000 1.0
C      1  0.5376180000000  0.4628540000000  0.5904860000000 1.0
C      1  0.5729680000000  0.5408490000000  0.5642510000000 1.0
C      1  0.5158610000000  0.5614950000000  0.4400390000000 1.0
C      1  0.5173530000000  0.4907050000000  0.5337890000000 1.0
C      1  0.4083980000000  0.4045000000000  0.5859990000000 1.0
C      1  0.4822840000000  0.5257630000000  0.4896650000000 1.0
C      1  0.5892270000000  0.4887380000000  0.4746930000000 1.0
C      1  0.4819260000000  0.4122740000000  0.5653310000000 1.0
C      1  0.5224950000000  0.4325030000000  0.4505600000000 1.0
C      1  0.4246010000000  0.3834840000000  0.5889700000000 1.0
C      1  0.4604530000000  0.5655020000000  0.4640200000000 1.0
C      1  0.4574180000000  0.5087280000000  0.5553270000000 1.0
C      1  0.5574650000000  0.4594990000000  0.4281940000000 1.0
C      1  0.5161360000000  0.5053310000000  0.5974240000000 1.0
C      1  0.5048160000000  0.5942120000000  0.4808820000000 1.0
C      1  0.4898060000000  0.5646080000000  0.4272820000000 1.0
C      1  0.4170450000000  0.4808350000000  0.5270170000000 1.0
C      1  0.5202440000000  0.4822690000000  0.5821710000000 1.0
END
