TITL C-247196-3112-677 159118.946774796 125000 -1056.77724909384 0 0 173 (C1) n - 1
REM
REM in /home/nfs/bkarasulu/CARBON/AIRSS/Generating-Clusters/LCBOP/Only-C1/SD-CG/FIRE-HFTN
REM
REM
REM
REM
REM
REM ./C.cell (11c1c37f851c82e70ff6c80c92926a4b)
REM AIRSS Version 0.9.1 bugfix July 2018 build 013d7b7c2542+ Fri, 06 Jul 2018 19:26:36 +0100
REM compiler GCC version 9.2.1 20190827 (Red Hat 9.2.1-1)
REM options -cpp -mtune=generic -march=x86-64 -g -O0 -fpre-include=/usr/include/finclude/math-vector-fortran.h
REM seed 1074813900 430463903 -219160653 120690523 1560572443 -1626500777 2077035804 -1851822347 -2112956618 2006008406 -758639420 1923972951 -641116191 1333376247 644941924 -120530965 1285708255 -178321793 -1227976557 -854005743 -710616443 1193863968 965427951 -2038026827 863367679 -538167424 1341287385 -1793972129 -511052792 -1486811631 -465919733 1769834603 1873940948
REM
CELL 1.54180   50.00000   50.00000   50.00000   90.00000   90.00000   90.00000
LATT -1
SFAC C  
C      1  0.4825610000000  0.5480210000000  0.5486090000000 1.0
C      1  0.5546540000000  0.5087460000000  0.6297520000000 1.0
C      1  0.5259460000000  0.4708200000000  0.5196330000000 1.0
C      1  0.4489700000000  0.5005690000000  0.5947310000000 1.0
C      1  0.5981360000000  0.5040570000000  0.4245280000000 1.0
C      1  0.5567570000000  0.4032270000000  0.4923860000000 1.0
C      1  0.4194940000000  0.5359790000000  0.5753410000000 1.0
C      1  0.4802600000000  0.5312620000000  0.4143560000000 1.0
C      1  0.4582050000000  0.4732570000000  0.5271340000000 1.0
C      1  0.4397460000000  0.5733450000000  0.5512720000000 1.0
C      1  0.5582360000000  0.4576900000000  0.4562240000000 1.0
C      1  0.4587230000000  0.5403990000000  0.3968100000000 1.0
C      1  0.4979800000000  0.6153660000000  0.4703610000000 1.0
C      1  0.5446150000000  0.3820100000000  0.5349130000000 1.0
C      1  0.4668320000000  0.5504520000000  0.4952520000000 1.0
C      1  0.4318210000000  0.3802390000000  0.5477340000000 1.0
C      1  0.5789010000000  0.4126980000000  0.5086950000000 1.0
C      1  0.3999150000000  0.4657960000000  0.4444120000000 1.0
C      1  0.4184510000000  0.4590400000000  0.4992290000000 1.0
C      1  0.3889500000000  0.3881090000000  0.3821320000000 1.0
C      1  0.5292640000000  0.4314160000000  0.5896250000000 1.0
C      1  0.5538260000000  0.6167180000000  0.5215330000000 1.0
C      1  0.4125030000000  0.4590030000000  0.5567240000000 1.0
C      1  0.5771040000000  0.5735230000000  0.4478860000000 1.0
C      1  0.5081740000000  0.5584210000000  0.5402740000000 1.0
C      1  0.6374850000000  0.4862850000000  0.5188970000000 1.0
C      1  0.5432150000000  0.4109360000000  0.5753320000000 1.0
C      1  0.5925840000000  0.5244780000000  0.4431860000000 1.0
C      1  0.4634950000000  0.3953610000000  0.5101250000000 1.0
C      1  0.4156390000000  0.5155670000000  0.5157260000000 1.0
C      1  0.3969640000000  0.5419710000000  0.4775280000000 1.0
C      1  0.4352260000000  0.4450930000000  0.4106650000000 1.0
C      1  0.4477760000000  0.4267550000000  0.5411680000000 1.0
C      1  0.5093840000000  0.4940460000000  0.5215930000000 1.0
C      1  0.3974010000000  0.4926510000000  0.5183270000000 1.0
C      1  0.4645840000000  0.4571740000000  0.4722630000000 1.0
C      1  0.5704160000000  0.4922670000000  0.6154070000000 1.0
C      1  0.4436480000000  0.5180000000000  0.4681280000000 1.0
C      1  0.4285070000000  0.3543240000000  0.5400420000000 1.0
C      1  0.5249980000000  0.5743990000000  0.5591590000000 1.0
C      1  0.4915550000000  0.5371650000000  0.5987540000000 1.0
C      1  0.4903740000000  0.4694210000000  0.4733560000000 1.0
C      1  0.5352040000000  0.6200580000000  0.3829500000000 1.0
C      1  0.4436930000000  0.4959110000000  0.4843440000000 1.0
C      1  0.5125850000000  0.4874260000000  0.6319170000000 1.0
C      1  0.4408730000000  0.4758660000000  0.5036150000000 1.0
C      1  0.5185520000000  0.5348570000000  0.6100150000000 1.0
C      1  0.4802200000000  0.5945000000000  0.5653200000000 1.0
C      1  0.5952480000000  0.4785560000000  0.5468460000000 1.0
C      1  0.5412340000000  0.5873380000000  0.4799850000000 1.0
C      1  0.3989570000000  0.4778300000000  0.5428940000000 1.0
C      1  0.5193930000000  0.5590110000000  0.4064620000000 1.0
C      1  0.5386130000000  0.5010800000000  0.4258490000000 1.0
C      1  0.4414820000000  0.5148530000000  0.4403070000000 1.0
C      1  0.4778380000000  0.6187650000000  0.4899130000000 1.0
C      1  0.5376040000000  0.4957220000000  0.3980730000000 1.0
C      1  0.5935700000000  0.5864620000000  0.4924520000000 1.0
C      1  0.4710930000000  0.4747390000000  0.5866920000000 1.0
C      1  0.5141970000000  0.4602860000000  0.6295310000000 1.0
C      1  0.4558580000000  0.4096030000000  0.4861570000000 1.0
C      1  0.5058960000000  0.4736190000000  0.5778210000000 1.0
C      1  0.5110060000000  0.3875360000000  0.5029960000000 1.0
C      1  0.4987840000000  0.6151270000000  0.4208340000000 1.0
C      1  0.4563440000000  0.4523200000000  0.5809440000000 1.0
C      1  0.5087940000000  0.4483830000000  0.4803000000000 1.0
C      1  0.4063640000000  0.5598530000000  0.5260010000000 1.0
C      1  0.4747060000000  0.5994850000000  0.5100490000000 1.0
C      1  0.4397930000000  0.6085020000000  0.4692880000000 1.0
C      1  0.4043270000000  0.5125480000000  0.5833450000000 1.0
C      1  0.3876640000000  0.4742510000000  0.4673890000000 1.0
C      1  0.5757930000000  0.4609630000000  0.4780110000000 1.0
C      1  0.6195550000000  0.4855940000000  0.5386600000000 1.0
C      1  0.4844010000000  0.4163550000000  0.4461800000000 1.0
C      1  0.5099700000000  0.6167140000000  0.5362700000000 1.0
C      1  0.6401180000000  0.4773250000000  0.4938010000000 1.0
C      1  0.4764490000000  0.5197430000000  0.5548070000000 1.0
C      1  0.4911280000000  0.4024320000000  0.5155460000000 1.0
C      1  0.4567150000000  0.6024430000000  0.4447420000000 1.0
C      1  0.5789450000000  0.4130940000000  0.5379010000000 1.0
C      1  0.5779960000000  0.5061190000000  0.4912640000000 1.0
C      1  0.5236980000000  0.6109640000000  0.4840590000000 1.0
C      1  0.4663050000000  0.4437290000000  0.5239540000000 1.0
C      1  0.5542270000000  0.4734030000000  0.5211930000000 1.0
C      1  0.4204890000000  0.4929570000000  0.5949450000000 1.0
C      1  0.4464880000000  0.3991830000000  0.5326440000000 1.0
C      1  0.5090760000000  0.5140720000000  0.4602720000000 1.0
C      1  0.5208560000000  0.4370920000000  0.6165270000000 1.0
C      1  0.5137360000000  0.4473400000000  0.5087020000000 1.0
C      1  0.5137490000000  0.5001940000000  0.5748300000000 1.0
C      1  0.5944000000000  0.4809610000000  0.4113630000000 1.0
C      1  0.5706220000000  0.5854380000000  0.4728630000000 1.0
C      1  0.5587930000000  0.3842060000000  0.4480290000000 1.0
C      1  0.4488560000000  0.5451020000000  0.4749880000000 1.0
C      1  0.4463590000000  0.4621970000000  0.4523110000000 1.0
C      1  0.4186790000000  0.4293280000000  0.3947870000000 1.0
C      1  0.5927090000000  0.5865770000000  0.5217770000000 1.0
C      1  0.4300280000000  0.6004510000000  0.4940270000000 1.0
C      1  0.5530340000000  0.4507900000000  0.4000820000000 1.0
C      1  0.5473330000000  0.5627030000000  0.5745890000000 1.0
C      1  0.5499960000000  0.5200890000000  0.5451520000000 1.0
C      1  0.5621360000000  0.5437650000000  0.5360880000000 1.0
C      1  0.4222910000000  0.5346420000000  0.4299430000000 1.0
C      1  0.5501510000000  0.4316880000000  0.4465890000000 1.0
C      1  0.4668340000000  0.5104200000000  0.4286920000000 1.0
C      1  0.6011860000000  0.4208040000000  0.5519230000000 1.0
C      1  0.6251110000000  0.4621470000000  0.4775830000000 1.0
C      1  0.4013650000000  0.5401370000000  0.4501310000000 1.0
C      1  0.5064890000000  0.4588580000000  0.3916290000000 1.0
C      1  0.4955030000000  0.4970880000000  0.4773920000000 1.0
C      1  0.4207610000000  0.3906400000000  0.5716040000000 1.0
C      1  0.5549040000000  0.4073850000000  0.4629550000000 1.0
C      1  0.5371420000000  0.5157700000000  0.5700780000000 1.0
C      1  0.4812060000000  0.6100080000000  0.5350840000000 1.0
C      1  0.4450370000000  0.5165150000000  0.5225450000000 1.0
C      1  0.5549120000000  0.6176190000000  0.3660580000000 1.0
C      1  0.5207930000000  0.5203280000000  0.4359350000000 1.0
C      1  0.5382650000000  0.3871630000000  0.5076220000000 1.0
C      1  0.5331650000000  0.4694880000000  0.3888960000000 1.0
C      1  0.5332360000000  0.5668160000000  0.4993490000000 1.0
C      1  0.5895750000000  0.5182210000000  0.4704930000000 1.0
C      1  0.3949220000000  0.4747720000000  0.4948430000000 1.0
C      1  0.5158900000000  0.6196170000000  0.4011060000000 1.0
C      1  0.5688100000000  0.4759830000000  0.5942400000000 1.0
C      1  0.4851020000000  0.6105140000000  0.4446820000000 1.0
C      1  0.4823350000000  0.5723860000000  0.5030090000000 1.0
C      1  0.5070180000000  0.5380130000000  0.4185660000000 1.0
C      1  0.4463650000000  0.5770110000000  0.4335640000000 1.0
C      1  0.6003090000000  0.4239810000000  0.4945100000000 1.0
C      1  0.4586540000000  0.4992990000000  0.5420020000000 1.0
C      1  0.4840030000000  0.4287920000000  0.4206650000000 1.0
C      1  0.5549400000000  0.4672400000000  0.5710400000000 1.0
C      1  0.5284270000000  0.4561110000000  0.5753200000000 1.0
C      1  0.5972160000000  0.5728800000000  0.5475270000000 1.0
C      1  0.5862890000000  0.5510760000000  0.4364800000000 1.0
C      1  0.4661580000000  0.5511650000000  0.5919910000000 1.0
C      1  0.4584370000000  0.4377740000000  0.4925110000000 1.0
C      1  0.4633030000000  0.4030780000000  0.4596800000000 1.0
C      1  0.4694340000000  0.5256920000000  0.5083240000000 1.0
C      1  0.5563620000000  0.4015240000000  0.5516460000000 1.0
C      1  0.5102410000000  0.4357710000000  0.4107350000000 1.0
C      1  0.5082340000000  0.5647200000000  0.5120210000000 1.0
C      1  0.4944900000000  0.4309330000000  0.5226920000000 1.0
C      1  0.5488720000000  0.4812780000000  0.4434110000000 1.0
C      1  0.5689120000000  0.4803730000000  0.4977360000000 1.0
C      1  0.5535820000000  0.5645660000000  0.5184870000000 1.0
C      1  0.5269100000000  0.6201000000000  0.5130560000000 1.0
C      1  0.4916190000000  0.5072300000000  0.5038480000000 1.0
C      1  0.4393750000000  0.5644250000000  0.4584530000000 1.0
C      1  0.5052800000000  0.4256560000000  0.4636700000000 1.0
C      1  0.4180430000000  0.5544920000000  0.5536340000000 1.0
C      1  0.5679140000000  0.4716590000000  0.5461260000000 1.0
C      1  0.5644750000000  0.5912800000000  0.5247150000000 1.0
C      1  0.5153080000000  0.6008740000000  0.5606660000000 1.0
C      1  0.4275280000000  0.5865630000000  0.5186260000000 1.0
C      1  0.5731090000000  0.5595210000000  0.5590470000000 1.0
C      1  0.4390590000000  0.5549930000000  0.4139150000000 1.0
C      1  0.5795220000000  0.4602810000000  0.4026580000000 1.0
C      1  0.5384820000000  0.4333060000000  0.4194480000000 1.0
C      1  0.4039090000000  0.5400410000000  0.5058380000000 1.0
C      1  0.6010350000000  0.4481200000000  0.4803820000000 1.0
C      1  0.4033030000000  0.4094770000000  0.3862870000000 1.0
C      1  0.5263700000000  0.5123730000000  0.6276320000000 1.0
C      1  0.4454020000000  0.5309450000000  0.5901420000000 1.0
C      1  0.4780330000000  0.4665370000000  0.3902710000000 1.0
C      1  0.4217200000000  0.4162700000000  0.5801690000000 1.0
C      1  0.4254650000000  0.4578800000000  0.4343660000000 1.0
C      1  0.4658030000000  0.4907090000000  0.3802150000000 1.0
C      1  0.4915320000000  0.5162190000000  0.5782390000000 1.0
C      1  0.4664670000000  0.5682590000000  0.5654500000000 1.0
C      1  0.4638300000000  0.4457350000000  0.4066980000000 1.0
C      1  0.4560260000000  0.5166950000000  0.3792960000000 1.0
C      1  0.5385420000000  0.5388550000000  0.5885240000000 1.0
C      1  0.4338980000000  0.4393550000000  0.5654860000000 1.0
END
