TITL C-247197-3123-553 8.13766357901952e-07 125000 -652.592678739325 0 0 106 (C1) n - 1
REM
REM in /home/nfs/bkarasulu/CARBON/AIRSS/Generating-Clusters/LCBOP/Only-C1/SD-CG/FIRE-HFTN
REM
REM
REM
REM
REM
REM ./C.cell (11c1c37f851c82e70ff6c80c92926a4b)
REM AIRSS Version 0.9.1 bugfix July 2018 build 013d7b7c2542+ Fri, 06 Jul 2018 19:26:36 +0100
REM compiler GCC version 9.2.1 20190827 (Red Hat 9.2.1-1)
REM options -cpp -mtune=generic -march=x86-64 -g -O0 -fpre-include=/usr/include/finclude/math-vector-fortran.h
REM seed 979163328 508043439 1031951419 351717164 -1423055480 1712129477 -339442830 1491362479 -23394111 -1448866873 -703544299 986268380 280416486 1591157552 105098859 -282427418 -1800517273 -2076171293 1412027476 1127173390 -97931831 -1940843011 374083182 631333893 1222524716 -1324587957 -1868704763 1027101838 -19477473 702322832 1954947875 -593134956 -1580405850
REM
CELL 1.54180   50.00000   50.00000   50.00000   90.00000   90.00000   90.00000
LATT -1
SFAC C  
C      1  0.5432270000000  0.5213240000000  0.5484320000000 1.0
C      1  0.5150630000000  0.4396860000000  0.4130140000000 1.0
C      1  0.4480080000000  0.5583160000000  0.4392130000000 1.0
C      1  0.5226960000000  0.5026980000000  0.5556530000000 1.0
C      1  0.4222870000000  0.4753650000000  0.5484000000000 1.0
C      1  0.4203260000000  0.5411860000000  0.4775750000000 1.0
C      1  0.4630430000000  0.4162420000000  0.4323220000000 1.0
C      1  0.5185140000000  0.6122530000000  0.5791150000000 1.0
C      1  0.5670190000000  0.4780930000000  0.4732880000000 1.0
C      1  0.4508400000000  0.4515910000000  0.4788040000000 1.0
C      1  0.5947320000000  0.4094590000000  0.5929400000000 1.0
C      1  0.5011450000000  0.5112370000000  0.4967900000000 1.0
C      1  0.4858480000000  0.4839200000000  0.5829600000000 1.0
C      1  0.4617210000000  0.5716670000000  0.5166450000000 1.0
C      1  0.4845390000000  0.5569380000000  0.5254030000000 1.0
C      1  0.5396380000000  0.5488940000000  0.5487380000000 1.0
C      1  0.5582450000000  0.4658060000000  0.4483860000000 1.0
C      1  0.5657250000000  0.4608890000000  0.4977040000000 1.0
C      1  0.4539290000000  0.4923490000000  0.5009150000000 1.0
C      1  0.5754070000000  0.4161980000000  0.6100020000000 1.0
C      1  0.5183510000000  0.5652570000000  0.5601610000000 1.0
C      1  0.5341430000000  0.5727100000000  0.4838660000000 1.0
C      1  0.5713200000000  0.4821960000000  0.5418200000000 1.0
C      1  0.4240800000000  0.4070120000000  0.5266970000000 1.0
C      1  0.4929830000000  0.4975680000000  0.4723530000000 1.0
C      1  0.4586380000000  0.5270180000000  0.5781340000000 1.0
C      1  0.4922030000000  0.5943160000000  0.4381040000000 1.0
C      1  0.4277530000000  0.4124090000000  0.5526850000000 1.0
C      1  0.4451400000000  0.4857990000000  0.4461870000000 1.0
C      1  0.4377820000000  0.5866120000000  0.4784130000000 1.0
C      1  0.4981390000000  0.4683900000000  0.4739400000000 1.0
C      1  0.6003480000000  0.4448100000000  0.5292840000000 1.0
C      1  0.5900400000000  0.4024400000000  0.4623560000000 1.0
C      1  0.5427780000000  0.6251620000000  0.4769700000000 1.0
C      1  0.5189090000000  0.4921000000000  0.5076730000000 1.0
C      1  0.5266370000000  0.4393860000000  0.5253140000000 1.0
C      1  0.4742030000000  0.5709910000000  0.4314190000000 1.0
C      1  0.6091960000000  0.4266540000000  0.5466220000000 1.0
C      1  0.4692770000000  0.4662300000000  0.5659940000000 1.0
C      1  0.4582480000000  0.4680590000000  0.4264970000000 1.0
C      1  0.5282140000000  0.5925300000000  0.5633440000000 1.0
C      1  0.4130310000000  0.5146870000000  0.4667760000000 1.0
C      1  0.4918720000000  0.5589500000000  0.5530910000000 1.0
C      1  0.5210140000000  0.4684270000000  0.4906050000000 1.0
C      1  0.5177730000000  0.4851180000000  0.5343550000000 1.0
C      1  0.5169970000000  0.5520950000000  0.4090760000000 1.0
C      1  0.5386910000000  0.4721020000000  0.5862360000000 1.0
C      1  0.4789650000000  0.4470360000000  0.4757650000000 1.0
C      1  0.5151460000000  0.4879100000000  0.5796710000000 1.0
C      1  0.4396260000000  0.5323040000000  0.4290680000000 1.0
C      1  0.5690040000000  0.5151180000000  0.5049820000000 1.0
C      1  0.5630370000000  0.5281550000000  0.4564890000000 1.0
C      1  0.4942570000000  0.5509360000000  0.4261500000000 1.0
C      1  0.5672830000000  0.5075950000000  0.4771600000000 1.0
C      1  0.4806620000000  0.4613300000000  0.5402510000000 1.0
C      1  0.5718680000000  0.4189070000000  0.4535390000000 1.0
C      1  0.5161940000000  0.5547980000000  0.4709460000000 1.0
C      1  0.5809640000000  0.4635690000000  0.5219290000000 1.0
C      1  0.5087750000000  0.4577760000000  0.5380450000000 1.0
C      1  0.4498320000000  0.4802150000000  0.4740860000000 1.0
C      1  0.5078400000000  0.4661200000000  0.4076670000000 1.0
C      1  0.5606680000000  0.4739630000000  0.5672510000000 1.0
C      1  0.4259180000000  0.4436700000000  0.4902090000000 1.0
C      1  0.4932040000000  0.5347880000000  0.5097930000000 1.0
C      1  0.4843180000000  0.4031720000000  0.4423110000000 1.0
C      1  0.5273420000000  0.4271110000000  0.4352200000000 1.0
C      1  0.4297200000000  0.5077430000000  0.5117500000000 1.0
C      1  0.4374910000000  0.5575800000000  0.5210820000000 1.0
C      1  0.5510010000000  0.5931870000000  0.5455170000000 1.0
C      1  0.4784330000000  0.6089840000000  0.4854830000000 1.0
C      1  0.4714740000000  0.5064440000000  0.5925990000000 1.0
C      1  0.5019220000000  0.5396710000000  0.4517050000000 1.0
C      1  0.4859720000000  0.6113260000000  0.4597420000000 1.0
C      1  0.4277900000000  0.5026620000000  0.5416900000000 1.0
C      1  0.5372790000000  0.5663860000000  0.4244020000000 1.0
C      1  0.4048860000000  0.4636970000000  0.5288460000000 1.0
C      1  0.4230730000000  0.4184820000000  0.5024990000000 1.0
C      1  0.4872520000000  0.5041880000000  0.4244180000000 1.0
C      1  0.5309060000000  0.4830530000000  0.4082690000000 1.0
C      1  0.5545320000000  0.5678110000000  0.5320200000000 1.0
C      1  0.4292380000000  0.5091130000000  0.4429150000000 1.0
C      1  0.4084910000000  0.4657360000000  0.5000110000000 1.0
C      1  0.4830030000000  0.4780890000000  0.4155360000000 1.0
C      1  0.4272330000000  0.5370970000000  0.5051860000000 1.0
C      1  0.4369240000000  0.5201070000000  0.5616440000000 1.0
C      1  0.4940800000000  0.5130610000000  0.4498190000000 1.0
C      1  0.5107500000000  0.4071180000000  0.4463970000000 1.0
C      1  0.5641900000000  0.5087630000000  0.5324940000000 1.0
C      1  0.5213080000000  0.5906440000000  0.4317380000000 1.0
C      1  0.4594710000000  0.5914620000000  0.4962530000000 1.0
C      1  0.4089320000000  0.4948300000000  0.4903900000000 1.0
C      1  0.4533310000000  0.4403100000000  0.4254100000000 1.0
C      1  0.4682410000000  0.4761180000000  0.5194470000000 1.0
C      1  0.5356220000000  0.6000830000000  0.4778500000000 1.0
C      1  0.4334590000000  0.4329020000000  0.5690830000000 1.0
C      1  0.5408860000000  0.4535070000000  0.6069280000000 1.0
C      1  0.5553450000000  0.5489570000000  0.4397860000000 1.0
C      1  0.4405830000000  0.4600940000000  0.5654970000000 1.0
C      1  0.5550590000000  0.4325560000000  0.6154040000000 1.0
C      1  0.5515430000000  0.5649240000000  0.5044760000000 1.0
C      1  0.6070990000000  0.4135780000000  0.5697170000000 1.0
C      1  0.5521150000000  0.4373280000000  0.4460540000000 1.0
C      1  0.4734360000000  0.5500020000000  0.5721530000000 1.0
C      1  0.5512260000000  0.4817320000000  0.4260320000000 1.0
C      1  0.4327970000000  0.5634040000000  0.4634840000000 1.0
C      1  0.5392910000000  0.4496530000000  0.5014760000000 1.0
END
