TITL C-247200-3482-518 0.00228072261899967 125000 -429.178163880637 0 0 71 (C1) n - 1
REM
REM in /home/nfs/bkarasulu/CARBON/AIRSS/Generating-Clusters/LCBOP/Only-C1/SD-CG/FIRE-HFTN
REM
REM
REM
REM
REM
REM ./C.cell (11c1c37f851c82e70ff6c80c92926a4b)
REM AIRSS Version 0.9.1 bugfix July 2018 build 013d7b7c2542+ Fri, 06 Jul 2018 19:26:36 +0100
REM compiler GCC version 9.2.1 20190827 (Red Hat 9.2.1-1)
REM options -cpp -mtune=generic -march=x86-64 -g -O0 -fpre-include=/usr/include/finclude/math-vector-fortran.h
REM seed -567976747 -118706243 611339719 -672947909 79014935 88971359 -1927334855 1727936553 -922619412 788281190 -1574805377 -1580301441 -1959316907 -1278197325 -1168603673 -172125028 243210042 -1103155901 -1727721954 1630178723 158063210 -619465373 -987704849 -1906986123 -945797867 586654235 -228361584 27273568 -987438533 1425568213 162473014 -150803658 1449922645
REM
CELL 1.54180   50.00000   50.00000   50.00000   90.00000   90.00000   90.00000
LATT -1
SFAC C  
C      1  0.5266860000000  0.4567040000000  0.4217440000000 1.0
C      1  0.4130980000000  0.5241170000000  0.4501120000000 1.0
C      1  0.5022670000000  0.5208790000000  0.4673400000000 1.0
C      1  0.5352470000000  0.5233310000000  0.4241160000000 1.0
C      1  0.4799230000000  0.4964080000000  0.5227990000000 1.0
C      1  0.5509120000000  0.5054570000000  0.4663640000000 1.0
C      1  0.4859490000000  0.4716500000000  0.4424150000000 1.0
C      1  0.4693030000000  0.4757990000000  0.5670780000000 1.0
C      1  0.5361720000000  0.4396070000000  0.4418690000000 1.0
C      1  0.4234080000000  0.5144260000000  0.4726200000000 1.0
C      1  0.5307190000000  0.4583460000000  0.4850090000000 1.0
C      1  0.4399100000000  0.4264770000000  0.5489960000000 1.0
C      1  0.4239200000000  0.5666410000000  0.6455530000000 1.0
C      1  0.4919240000000  0.4349020000000  0.4997940000000 1.0
C      1  0.5237750000000  0.5043570000000  0.4744770000000 1.0
C      1  0.3809270000000  0.5549210000000  0.3925410000000 1.0
C      1  0.4342360000000  0.4327730000000  0.5236720000000 1.0
C      1  0.4692520000000  0.4978900000000  0.5503490000000 1.0
C      1  0.4684060000000  0.4457560000000  0.4872280000000 1.0
C      1  0.4406190000000  0.5462340000000  0.6000680000000 1.0
C      1  0.5167110000000  0.5176240000000  0.5611250000000 1.0
C      1  0.5455780000000  0.5321500000000  0.5257880000000 1.0
C      1  0.5169120000000  0.5019660000000  0.5829630000000 1.0
C      1  0.4999050000000  0.5694090000000  0.5121370000000 1.0
C      1  0.5229690000000  0.5666460000000  0.4963750000000 1.0
C      1  0.5085680000000  0.4780600000000  0.4255890000000 1.0
C      1  0.5823610000000  0.5523960000000  0.4671270000000 1.0
C      1  0.4782280000000  0.4491530000000  0.5666230000000 1.0
C      1  0.5689930000000  0.4826970000000  0.5659030000000 1.0
C      1  0.4431460000000  0.5108760000000  0.4899810000000 1.0
C      1  0.5137770000000  0.5049550000000  0.4163480000000 1.0
C      1  0.5081850000000  0.4959330000000  0.5179140000000 1.0
C      1  0.5243370000000  0.5698260000000  0.4430490000000 1.0
C      1  0.5138670000000  0.4345690000000  0.4828180000000 1.0
C      1  0.4440930000000  0.4413180000000  0.5003460000000 1.0
C      1  0.5530680000000  0.4636010000000  0.5514850000000 1.0
C      1  0.4987990000000  0.4334210000000  0.5270400000000 1.0
C      1  0.4822660000000  0.5308130000000  0.4525160000000 1.0
C      1  0.5183040000000  0.4227390000000  0.4571970000000 1.0
C      1  0.4464350000000  0.5382710000000  0.4194980000000 1.0
C      1  0.5223820000000  0.5748790000000  0.4692840000000 1.0
C      1  0.5696860000000  0.4953530000000  0.4852080000000 1.0
C      1  0.5781220000000  0.5372670000000  0.4450860000000 1.0
C      1  0.5700470000000  0.5565040000000  0.4906760000000 1.0
C      1  0.5760800000000  0.5079660000000  0.5594430000000 1.0
C      1  0.3994140000000  0.5459360000000  0.4085640000000 1.0
C      1  0.4321990000000  0.5565220000000  0.6229990000000 1.0
C      1  0.5211030000000  0.4753440000000  0.5847190000000 1.0
C      1  0.4768550000000  0.5607690000000  0.5225180000000 1.0
C      1  0.5620360000000  0.4619950000000  0.5248010000000 1.0
C      1  0.4615270000000  0.5380750000000  0.5280420000000 1.0
C      1  0.4586760000000  0.4119780000000  0.5914150000000 1.0
C      1  0.4900950000000  0.5184930000000  0.4077140000000 1.0
C      1  0.4491470000000  0.5359100000000  0.5772170000000 1.0
C      1  0.5229150000000  0.5160680000000  0.5333700000000 1.0
C      1  0.5285070000000  0.5512030000000  0.4240540000000 1.0
C      1  0.4627310000000  0.5157420000000  0.5088960000000 1.0
C      1  0.4590950000000  0.5248310000000  0.5539480000000 1.0
C      1  0.4191600000000  0.5363440000000  0.4256410000000 1.0
C      1  0.4723840000000  0.5307630000000  0.4260090000000 1.0
C      1  0.5196910000000  0.4840410000000  0.4941400000000 1.0
C      1  0.5684120000000  0.5270000000000  0.5419750000000 1.0
C      1  0.5572020000000  0.5182750000000  0.4420030000000 1.0
C      1  0.4722270000000  0.4603900000000  0.4628870000000 1.0
C      1  0.5462190000000  0.5523680000000  0.5055410000000 1.0
C      1  0.5512460000000  0.4529020000000  0.4634250000000 1.0
C      1  0.5268800000000  0.4577250000000  0.5627900000000 1.0
C      1  0.4588340000000  0.4285370000000  0.5697540000000 1.0
C      1  0.5784520000000  0.4511200000000  0.4634360000000 1.0
C      1  0.5031280000000  0.4443550000000  0.5525980000000 1.0
C      1  0.5723870000000  0.4782480000000  0.5058760000000 1.0
END
