TITL C-247196-3112-682 -801.495699426924 125000 -791.820773825092 0 0 130 (C1) n - 1
REM
REM in /home/nfs/bkarasulu/CARBON/AIRSS/Generating-Clusters/LCBOP/Only-C1/SD-CG/FIRE-HFTN
REM
REM
REM
REM
REM
REM ./C.cell (11c1c37f851c82e70ff6c80c92926a4b)
REM AIRSS Version 0.9.1 bugfix July 2018 build 013d7b7c2542+ Fri, 06 Jul 2018 19:26:36 +0100
REM compiler GCC version 9.2.1 20190827 (Red Hat 9.2.1-1)
REM options -cpp -mtune=generic -march=x86-64 -g -O0 -fpre-include=/usr/include/finclude/math-vector-fortran.h
REM seed 611217384 718170016 -538939936 -912134108 -463505738 -1945931769 36281958 1310727704 -301042972 819493029 2129792741 1399135591 -2000606732 1001667098 -259931131 -286143608 666988067 1702108135 1429005460 -1827414376 724305423 59786388 23405285 -386003026 1029908536 -252489747 696057756 -973367658 -1771050882 475234422 450390773 -852839180 -1192895946
REM
CELL 1.54180   50.00000   50.00000   50.00000   90.00000   90.00000   90.00000
LATT -1
SFAC C  
C      1  0.5157080000000  0.5245840000000  0.4040070000000 1.0
C      1  0.5112000000000  0.4957500000000  0.4035550000000 1.0
C      1  0.5052720000000  0.6620650000000  0.5237960000000 1.0
C      1  0.4725090000000  0.4676620000000  0.4092890000000 1.0
C      1  0.4885320000000  0.6286980000000  0.4932850000000 1.0
C      1  0.4916190000000  0.4861530000000  0.5316780000000 1.0
C      1  0.4760720000000  0.4627020000000  0.4919910000000 1.0
C      1  0.5583880000000  0.5615120000000  0.4594210000000 1.0
C      1  0.4275640000000  0.4669010000000  0.5585820000000 1.0
C      1  0.5218040000000  0.4052260000000  0.5532750000000 1.0
C      1  0.5013470000000  0.3753320000000  0.5208810000000 1.0
C      1  0.5660680000000  0.6020880000000  0.5278150000000 1.0
C      1  0.4325080000000  0.5039770000000  0.5269250000000 1.0
C      1  0.5243760000000  0.4606400000000  0.5996220000000 1.0
C      1  0.4042100000000  0.5491690000000  0.5175040000000 1.0
C      1  0.5430100000000  0.4408040000000  0.4451840000000 1.0
C      1  0.4909280000000  0.4628980000000  0.4678700000000 1.0
C      1  0.5848010000000  0.4409470000000  0.4766700000000 1.0
C      1  0.5443110000000  0.4596580000000  0.4237130000000 1.0
C      1  0.4282850000000  0.5716520000000  0.4648120000000 1.0
C      1  0.4377150000000  0.4733910000000  0.4487830000000 1.0
C      1  0.5114080000000  0.4725140000000  0.5446800000000 1.0
C      1  0.4772060000000  0.6752290000000  0.4875630000000 1.0
C      1  0.5361260000000  0.5606870000000  0.5143090000000 1.0
C      1  0.5489800000000  0.5395490000000  0.4434310000000 1.0
C      1  0.4502060000000  0.4656710000000  0.4262860000000 1.0
C      1  0.5281740000000  0.4344340000000  0.5958960000000 1.0
C      1  0.5576640000000  0.4650550000000  0.5391330000000 1.0
C      1  0.5789390000000  0.5555030000000  0.4787390000000 1.0
C      1  0.5018440000000  0.5441370000000  0.5726850000000 1.0
C      1  0.4903600000000  0.6558020000000  0.5016920000000 1.0
C      1  0.5710890000000  0.4687210000000  0.4202150000000 1.0
C      1  0.4780740000000  0.5306670000000  0.5231220000000 1.0
C      1  0.4543200000000  0.5560630000000  0.5723190000000 1.0
C      1  0.4997460000000  0.5173120000000  0.4854640000000 1.0
C      1  0.5935500000000  0.4307010000000  0.5011750000000 1.0
C      1  0.4025810000000  0.5323100000000  0.4712610000000 1.0
C      1  0.5452000000000  0.4976950000000  0.4694640000000 1.0
C      1  0.4278150000000  0.5489080000000  0.5623640000000 1.0
C      1  0.6082870000000  0.4851190000000  0.4808160000000 1.0
C      1  0.5915990000000  0.4869200000000  0.5842380000000 1.0
C      1  0.5782080000000  0.5956940000000  0.5511220000000 1.0
C      1  0.4033570000000  0.4522520000000  0.4968260000000 1.0
C      1  0.5076930000000  0.6183400000000  0.4756090000000 1.0
C      1  0.5175310000000  0.4261730000000  0.5338860000000 1.0
C      1  0.5150230000000  0.4852790000000  0.5893140000000 1.0
C      1  0.3789050000000  0.4377040000000  0.5382130000000 1.0
C      1  0.4748540000000  0.4416000000000  0.5111150000000 1.0
C      1  0.4285620000000  0.4132490000000  0.4729130000000 1.0
C      1  0.4608650000000  0.5784130000000  0.5542760000000 1.0
C      1  0.4515510000000  0.3999810000000  0.4754020000000 1.0
C      1  0.5840150000000  0.4527370000000  0.5464370000000 1.0
C      1  0.5533820000000  0.4871000000000  0.5600950000000 1.0
C      1  0.4100730000000  0.4317190000000  0.4786090000000 1.0
C      1  0.4505260000000  0.5728170000000  0.4822460000000 1.0
C      1  0.4429620000000  0.5331130000000  0.4408420000000 1.0
C      1  0.5233010000000  0.3571170000000  0.4222970000000 1.0
C      1  0.5925160000000  0.4673950000000  0.4369370000000 1.0
C      1  0.5418070000000  0.5356690000000  0.5274460000000 1.0
C      1  0.5502300000000  0.5643890000000  0.5743270000000 1.0
C      1  0.5274700000000  0.4132770000000  0.5795140000000 1.0
C      1  0.5314600000000  0.5440700000000  0.5828400000000 1.0
C      1  0.4913870000000  0.5380770000000  0.3954360000000 1.0
C      1  0.3859390000000  0.4537670000000  0.5832720000000 1.0
C      1  0.5872640000000  0.5140030000000  0.4526340000000 1.0
C      1  0.4872350000000  0.5118790000000  0.4601520000000 1.0
C      1  0.5070270000000  0.3667850000000  0.4408500000000 1.0
C      1  0.4966850000000  0.4513510000000  0.4097310000000 1.0
C      1  0.4691360000000  0.5519090000000  0.4778140000000 1.0
C      1  0.4746110000000  0.5388300000000  0.5823260000000 1.0
C      1  0.4576270000000  0.5091610000000  0.5124590000000 1.0
C      1  0.4810710000000  0.4935620000000  0.4003880000000 1.0
C      1  0.5670990000000  0.5010380000000  0.5808630000000 1.0
C      1  0.4986960000000  0.5331810000000  0.5449880000000 1.0
C      1  0.4209390000000  0.5459350000000  0.4544920000000 1.0
C      1  0.4729630000000  0.5095520000000  0.5811180000000 1.0
C      1  0.5338830000000  0.5384900000000  0.4200200000000 1.0
C      1  0.4515190000000  0.4385170000000  0.5268450000000 1.0
C      1  0.5394210000000  0.3482050000000  0.4038490000000 1.0
C      1  0.5601500000000  0.4335080000000  0.4647410000000 1.0
C      1  0.4271400000000  0.4467130000000  0.5382340000000 1.0
C      1  0.4011710000000  0.5275790000000  0.4992940000000 1.0
C      1  0.4677720000000  0.6125420000000  0.5029410000000 1.0
C      1  0.3715250000000  0.4417460000000  0.5638390000000 1.0
C      1  0.4917970000000  0.4852950000000  0.4523960000000 1.0
C      1  0.5947510000000  0.4351150000000  0.5275020000000 1.0
C      1  0.5748660000000  0.5692070000000  0.5608170000000 1.0
C      1  0.4970770000000  0.4241930000000  0.4078470000000 1.0
C      1  0.5205840000000  0.4689240000000  0.4107960000000 1.0
C      1  0.4676070000000  0.4953490000000  0.5563680000000 1.0
C      1  0.4023020000000  0.4440320000000  0.5240110000000 1.0
C      1  0.5238470000000  0.5192840000000  0.5425820000000 1.0
C      1  0.6008620000000  0.5124990000000  0.4778010000000 1.0
C      1  0.5499700000000  0.5220220000000  0.5916510000000 1.0
C      1  0.5591920000000  0.5147110000000  0.4521850000000 1.0
C      1  0.4915250000000  0.3960370000000  0.5041730000000 1.0
C      1  0.5561160000000  0.4780360000000  0.5120730000000 1.0
C      1  0.4113590000000  0.4793140000000  0.4914100000000 1.0
C      1  0.4584230000000  0.4857530000000  0.4929490000000 1.0
C      1  0.4463680000000  0.5267080000000  0.4136910000000 1.0
C      1  0.4894550000000  0.5429890000000  0.4976930000000 1.0
C      1  0.5151360000000  0.3794810000000  0.5438700000000 1.0
C      1  0.5891960000000  0.5494490000000  0.5458330000000 1.0
C      1  0.4352900000000  0.4813280000000  0.4757020000000 1.0
C      1  0.5272530000000  0.6049220000000  0.4635820000000 1.0
C      1  0.4896730000000  0.5638650000000  0.3855630000000 1.0
C      1  0.5247430000000  0.4936430000000  0.5611500000000 1.0
C      1  0.5942200000000  0.5357870000000  0.4937550000000 1.0
C      1  0.5983240000000  0.4633490000000  0.4647300000000 1.0
C      1  0.4915480000000  0.3781750000000  0.4590780000000 1.0
C      1  0.5366870000000  0.4893150000000  0.4951070000000 1.0
C      1  0.5505930000000  0.5846880000000  0.5144950000000 1.0
C      1  0.4438930000000  0.5793310000000  0.5304950000000 1.0
C      1  0.4779730000000  0.3913590000000  0.4796680000000 1.0
C      1  0.5455070000000  0.5863070000000  0.4582340000000 1.0
C      1  0.5294650000000  0.4510410000000  0.5390360000000 1.0
C      1  0.5963310000000  0.5391570000000  0.5218450000000 1.0
C      1  0.5098920000000  0.4973320000000  0.5027010000000 1.0
C      1  0.4880660000000  0.5885960000000  0.3775090000000 1.0
C      1  0.4106070000000  0.4644380000000  0.5808490000000 1.0
C      1  0.4218400000000  0.5604880000000  0.5361290000000 1.0
C      1  0.4692160000000  0.5196720000000  0.3989330000000 1.0
C      1  0.4907810000000  0.4961770000000  0.5982890000000 1.0
C      1  0.5973030000000  0.4650360000000  0.5686510000000 1.0
C      1  0.4959210000000  0.4225770000000  0.5146950000000 1.0
C      1  0.4098210000000  0.5020950000000  0.5092590000000 1.0
C      1  0.4404220000000  0.4904820000000  0.5505040000000 1.0
C      1  0.4669090000000  0.5321050000000  0.4565360000000 1.0
C      1  0.5108090000000  0.5619550000000  0.5024270000000 1.0
C      1  0.4525330000000  0.5891570000000  0.5053760000000 1.0
END
