TITL C-247201-3759-327 59.6386502679439 125000 -795.714148193361 0 0 132 (C1) n - 1
REM
REM in /home/nfs/bkarasulu/CARBON/AIRSS/Generating-Clusters/LCBOP/Only-C1/SD-CG/FIRE-HFTN
REM
REM
REM
REM
REM
REM ./C.cell (11c1c37f851c82e70ff6c80c92926a4b)
REM AIRSS Version 0.9.1 bugfix July 2018 build 013d7b7c2542+ Fri, 06 Jul 2018 19:26:36 +0100
REM compiler GCC version 9.2.1 20190827 (Red Hat 9.2.1-1)
REM options -cpp -mtune=generic -march=x86-64 -g -O0 -fpre-include=/usr/include/finclude/math-vector-fortran.h
REM seed -402651408 -1298757878 321383224 1986667417 -1735946578 -1069732338 200108664 588253843 1492139459 -1721901294 1937837986 -142215968 -67353313 -2064958899 -400983753 -1556868919 -142803402 163093120 89883156 219145886 -446783544 -1818699013 -595250024 1149038447 449111994 -102156187 1191247642 -1003365576 560465007 1500989594 -328776789 508327706 -94850483
REM
CELL 1.54180   50.00000   50.00000   50.00000   90.00000   90.00000   90.00000
LATT -1
SFAC C  
C      1  0.5146330000000  0.4804800000000  0.4327140000000 1.0
C      1  0.4843970000000  0.4411490000000  0.5675310000000 1.0
C      1  0.5072880000000  0.5871770000000  0.4593250000000 1.0
C      1  0.6120300000000  0.4877690000000  0.4220570000000 1.0
C      1  0.5852980000000  0.4178490000000  0.5922010000000 1.0
C      1  0.4414630000000  0.4115310000000  0.4319030000000 1.0
C      1  0.3779730000000  0.5569620000000  0.5239820000000 1.0
C      1  0.5767380000000  0.5997670000000  0.5409270000000 1.0
C      1  0.4771180000000  0.4477590000000  0.4993730000000 1.0
C      1  0.4927260000000  0.4888680000000  0.4751720000000 1.0
C      1  0.5015850000000  0.4288430000000  0.5482090000000 1.0
C      1  0.5041940000000  0.4986650000000  0.5677840000000 1.0
C      1  0.4405830000000  0.5907470000000  0.5581490000000 1.0
C      1  0.5604190000000  0.6159110000000  0.4590440000000 1.0
C      1  0.5930190000000  0.4803250000000  0.5757380000000 1.0
C      1  0.5213480000000  0.4467250000000  0.4841890000000 1.0
C      1  0.4268040000000  0.5682740000000  0.5541500000000 1.0
C      1  0.4425240000000  0.4974420000000  0.5330870000000 1.0
C      1  0.4578480000000  0.5693950000000  0.4176330000000 1.0
C      1  0.4446130000000  0.5263630000000  0.5373600000000 1.0
C      1  0.5338100000000  0.4684720000000  0.5335790000000 1.0
C      1  0.5847250000000  0.4121540000000  0.5390320000000 1.0
C      1  0.4225670000000  0.5447520000000  0.5391860000000 1.0
C      1  0.5185240000000  0.4758050000000  0.4886660000000 1.0
C      1  0.5904730000000  0.5063530000000  0.5132930000000 1.0
C      1  0.4887000000000  0.4829010000000  0.6580290000000 1.0
C      1  0.4018690000000  0.5444140000000  0.5198110000000 1.0
C      1  0.4694140000000  0.5400000000000  0.5372330000000 1.0
C      1  0.5517140000000  0.6340590000000  0.4765830000000 1.0
C      1  0.4610770000000  0.4543060000000  0.5569700000000 1.0
C      1  0.3954010000000  0.4587700000000  0.5508140000000 1.0
C      1  0.5393830000000  0.4897180000000  0.4452700000000 1.0
C      1  0.4582720000000  0.5798250000000  0.4948010000000 1.0
C      1  0.5644690000000  0.4906450000000  0.4324190000000 1.0
C      1  0.4450430000000  0.5245270000000  0.3723220000000 1.0
C      1  0.4114470000000  0.4461620000000  0.4315180000000 1.0
C      1  0.4421810000000  0.4179800000000  0.5090140000000 1.0
C      1  0.4837920000000  0.5699260000000  0.5013890000000 1.0
C      1  0.5989230000000  0.6112570000000  0.5335160000000 1.0
C      1  0.4892820000000  0.6000300000000  0.4421880000000 1.0
C      1  0.4702370000000  0.4230720000000  0.5104960000000 1.0
C      1  0.6074740000000  0.4818990000000  0.5978830000000 1.0
C      1  0.4145060000000  0.5403480000000  0.4709390000000 1.0
C      1  0.5898930000000  0.4331270000000  0.4691660000000 1.0
C      1  0.5325720000000  0.4966870000000  0.5703340000000 1.0
C      1  0.5289300000000  0.6032210000000  0.5476990000000 1.0
C      1  0.4496770000000  0.4802290000000  0.3922650000000 1.0
C      1  0.5953800000000  0.4838850000000  0.4678900000000 1.0
C      1  0.4275760000000  0.4363480000000  0.5260490000000 1.0
C      1  0.4605880000000  0.5232910000000  0.6254480000000 1.0
C      1  0.4894870000000  0.4571700000000  0.6172370000000 1.0
C      1  0.5048090000000  0.4334140000000  0.4402210000000 1.0
C      1  0.5095670000000  0.6204320000000  0.5370400000000 1.0
C      1  0.4249020000000  0.4535740000000  0.4775390000000 1.0
C      1  0.5149990000000  0.5396370000000  0.5240240000000 1.0
C      1  0.5538840000000  0.5431030000000  0.4066900000000 1.0
C      1  0.4882570000000  0.4125550000000  0.5292650000000 1.0
C      1  0.5250350000000  0.4422420000000  0.5400600000000 1.0
C      1  0.6215870000000  0.4828900000000  0.6197790000000 1.0
C      1  0.5964620000000  0.4589030000000  0.4808000000000 1.0
C      1  0.4370560000000  0.4393880000000  0.5545590000000 1.0
C      1  0.4644170000000  0.4801330000000  0.5435570000000 1.0
C      1  0.4190930000000  0.4867130000000  0.5178580000000 1.0
C      1  0.5914840000000  0.4873160000000  0.4399270000000 1.0
C      1  0.4474610000000  0.5465800000000  0.4309470000000 1.0
C      1  0.5434480000000  0.4442780000000  0.4154490000000 1.0
C      1  0.4496890000000  0.5088970000000  0.3942550000000 1.0
C      1  0.5136250000000  0.4866430000000  0.5187660000000 1.0
C      1  0.4448600000000  0.5751000000000  0.4719080000000 1.0
C      1  0.4142880000000  0.4358790000000  0.4584450000000 1.0
C      1  0.5151410000000  0.5161050000000  0.4096980000000 1.0
C      1  0.5577620000000  0.5113150000000  0.4851870000000 1.0
C      1  0.5118090000000  0.4292500000000  0.4659880000000 1.0
C      1  0.4709630000000  0.4710870000000  0.4855270000000 1.0
C      1  0.4127560000000  0.4465940000000  0.5688050000000 1.0
C      1  0.4437650000000  0.5414620000000  0.6335720000000 1.0
C      1  0.5399690000000  0.4926440000000  0.4740410000000 1.0
C      1  0.5495830000000  0.4821230000000  0.5531070000000 1.0
C      1  0.5509040000000  0.5598900000000  0.5516840000000 1.0
C      1  0.4056820000000  0.5017560000000  0.4970570000000 1.0
C      1  0.4920970000000  0.4886770000000  0.5428410000000 1.0
C      1  0.4897660000000  0.4899440000000  0.4449090000000 1.0
C      1  0.4720360000000  0.5913690000000  0.4235280000000 1.0
C      1  0.5540410000000  0.5927290000000  0.4472300000000 1.0
C      1  0.4405270000000  0.4895980000000  0.4525460000000 1.0
C      1  0.5316540000000  0.5762210000000  0.4473890000000 1.0
C      1  0.5862960000000  0.5042200000000  0.4847010000000 1.0
C      1  0.4457000000000  0.4721870000000  0.4739850000000 1.0
C      1  0.5104340000000  0.5158590000000  0.5097520000000 1.0
C      1  0.4903530000000  0.5542630000000  0.5246350000000 1.0
C      1  0.4017690000000  0.4724760000000  0.4278180000000 1.0
C      1  0.4993940000000  0.5179310000000  0.4828440000000 1.0
C      1  0.5791090000000  0.3885380000000  0.4990980000000 1.0
C      1  0.3969410000000  0.4919150000000  0.4719260000000 1.0
C      1  0.5315200000000  0.5352000000000  0.4205570000000 1.0
C      1  0.4548550000000  0.5203300000000  0.4202420000000 1.0
C      1  0.4899270000000  0.4429700000000  0.5947740000000 1.0
C      1  0.5178320000000  0.6367950000000  0.5158040000000 1.0
C      1  0.4089760000000  0.4604890000000  0.5248200000000 1.0
C      1  0.5906280000000  0.4814440000000  0.5267890000000 1.0
C      1  0.4344990000000  0.4032170000000  0.4855760000000 1.0
C      1  0.5580640000000  0.5499170000000  0.5761520000000 1.0
C      1  0.5778760000000  0.4807680000000  0.5523620000000 1.0
C      1  0.5859290000000  0.4170610000000  0.5661570000000 1.0
C      1  0.4888940000000  0.5067230000000  0.5896800000000 1.0
C      1  0.4464260000000  0.4542360000000  0.3991010000000 1.0
C      1  0.5177230000000  0.4528010000000  0.4240110000000 1.0
C      1  0.4782810000000  0.5041790000000  0.6154640000000 1.0
C      1  0.5881770000000  0.4267250000000  0.4416070000000 1.0
C      1  0.4601820000000  0.6083830000000  0.5543920000000 1.0
C      1  0.4292040000000  0.4107700000000  0.4587150000000 1.0
C      1  0.4630020000000  0.5002810000000  0.4386320000000 1.0
C      1  0.5346760000000  0.6414630000000  0.4956890000000 1.0
C      1  0.4995920000000  0.5668460000000  0.4782400000000 1.0
C      1  0.5423330000000  0.5426640000000  0.5309560000000 1.0
C      1  0.5071940000000  0.5405600000000  0.4675520000000 1.0
C      1  0.4119030000000  0.4901840000000  0.4476180000000 1.0
C      1  0.5889090000000  0.4304020000000  0.5169390000000 1.0
C      1  0.5597100000000  0.5254190000000  0.5176560000000 1.0
C      1  0.4854570000000  0.4812990000000  0.6309440000000 1.0
C      1  0.6086370000000  0.4124870000000  0.4301260000000 1.0
C      1  0.4069590000000  0.5300440000000  0.4961450000000 1.0
C      1  0.3845370000000  0.4799300000000  0.4081500000000 1.0
C      1  0.5943990000000  0.4579030000000  0.5105890000000 1.0
C      1  0.5522160000000  0.5878340000000  0.5469690000000 1.0
C      1  0.4831450000000  0.6189960000000  0.5461120000000 1.0
C      1  0.5257510000000  0.5475550000000  0.4453960000000 1.0
C      1  0.4338490000000  0.4352840000000  0.4159080000000 1.0
C      1  0.5786600000000  0.3866160000000  0.5266910000000 1.0
C      1  0.5854610000000  0.4152450000000  0.4909510000000 1.0
C      1  0.4348510000000  0.5532900000000  0.4566230000000 1.0
C      1  0.5664060000000  0.4345260000000  0.4253860000000 1.0
END
