TITL C-247196-3112-173 0.0167328719567575 125000 -965.309542766036 0 0 154 (C1) n - 1
REM
REM in /home/nfs/bkarasulu/CARBON/AIRSS/Generating-Clusters/LCBOP/Only-C1/SD-CG/FIRE-HFTN
REM
REM
REM
REM
REM
REM ./C.cell (11c1c37f851c82e70ff6c80c92926a4b)
REM AIRSS Version 0.9.1 bugfix July 2018 build 013d7b7c2542+ Fri, 06 Jul 2018 19:26:36 +0100
REM compiler GCC version 9.2.1 20190827 (Red Hat 9.2.1-1)
REM options -cpp -mtune=generic -march=x86-64 -g -O0 -fpre-include=/usr/include/finclude/math-vector-fortran.h
REM seed -1069742071 827325455 961585428 -932858389 842338986 -1805124513 -93295398 -1985642198 1341386978 -1923737890 -1149421738 1541775701 -460888793 -1416445191 -1997926834 1553404319 -1768317460 -1174790336 2012758025 1960121497 1367640504 189561124 940495898 556017858 1840246325 317716482 1635945635 539349872 537143137 -433642827 1420945710 -1459983889 447915699
REM
CELL 1.54180   50.00000   50.00000   50.00000   90.00000   90.00000   90.00000
LATT -1
SFAC C  
C      1  0.4266380000000  0.3997260000000  0.4315260000000 1.0
C      1  0.4505620000000  0.5527750000000  0.4236340000000 1.0
C      1  0.5855730000000  0.5423470000000  0.4975900000000 1.0
C      1  0.4336030000000  0.5220940000000  0.4581590000000 1.0
C      1  0.4893780000000  0.5149070000000  0.5631060000000 1.0
C      1  0.4264290000000  0.4712940000000  0.5804110000000 1.0
C      1  0.5772510000000  0.5507490000000  0.4708570000000 1.0
C      1  0.6010660000000  0.4992410000000  0.4146210000000 1.0
C      1  0.3891300000000  0.5148300000000  0.5470520000000 1.0
C      1  0.4985880000000  0.3890230000000  0.4932020000000 1.0
C      1  0.5024380000000  0.6012060000000  0.4479840000000 1.0
C      1  0.4477990000000  0.5119260000000  0.5936920000000 1.0
C      1  0.4696020000000  0.5731340000000  0.3836600000000 1.0
C      1  0.5268260000000  0.5315060000000  0.6168060000000 1.0
C      1  0.5113790000000  0.4830050000000  0.4364990000000 1.0
C      1  0.4525890000000  0.5419260000000  0.5284740000000 1.0
C      1  0.5075050000000  0.5717840000000  0.4471740000000 1.0
C      1  0.5353710000000  0.4808060000000  0.6277530000000 1.0
C      1  0.5027700000000  0.3917370000000  0.4644860000000 1.0
C      1  0.5271740000000  0.5488590000000  0.5060300000000 1.0
C      1  0.5669080000000  0.5317280000000  0.4229180000000 1.0
C      1  0.4895290000000  0.4138890000000  0.5400720000000 1.0
C      1  0.4901950000000  0.4716850000000  0.5855450000000 1.0
C      1  0.4836270000000  0.6193850000000  0.3688620000000 1.0
C      1  0.5076550000000  0.6283150000000  0.4537040000000 1.0
C      1  0.5875300000000  0.5276190000000  0.5426590000000 1.0
C      1  0.5785800000000  0.4366570000000  0.5116020000000 1.0
C      1  0.5583130000000  0.4256260000000  0.5291400000000 1.0
C      1  0.5136240000000  0.5382220000000  0.4841090000000 1.0
C      1  0.5128400000000  0.5257320000000  0.5522860000000 1.0
C      1  0.5378970000000  0.4408600000000  0.4500650000000 1.0
C      1  0.3876480000000  0.5193190000000  0.5192870000000 1.0
C      1  0.5799670000000  0.5311120000000  0.4490360000000 1.0
C      1  0.5026040000000  0.5781240000000  0.5574980000000 1.0
C      1  0.5386920000000  0.5661280000000  0.4451290000000 1.0
C      1  0.5130820000000  0.4698940000000  0.3812730000000 1.0
C      1  0.5724290000000  0.4537210000000  0.5704960000000 1.0
C      1  0.5065270000000  0.4543070000000  0.5306830000000 1.0
C      1  0.5203830000000  0.6568380000000  0.4922880000000 1.0
C      1  0.4984100000000  0.6473550000000  0.4091960000000 1.0
C      1  0.4892350000000  0.4866440000000  0.5613620000000 1.0
C      1  0.4774270000000  0.4132430000000  0.4238440000000 1.0
C      1  0.5851570000000  0.5040870000000  0.4577390000000 1.0
C      1  0.3977270000000  0.3942900000000  0.5299530000000 1.0
C      1  0.4698610000000  0.4513840000000  0.5903660000000 1.0
C      1  0.5655290000000  0.5224430000000  0.5870890000000 1.0
C      1  0.5596030000000  0.4877390000000  0.3945360000000 1.0
C      1  0.4762110000000  0.5997300000000  0.5926000000000 1.0
C      1  0.5648530000000  0.5243130000000  0.5588960000000 1.0
C      1  0.4188180000000  0.3967280000000  0.4581810000000 1.0
C      1  0.4145050000000  0.4099780000000  0.5467390000000 1.0
C      1  0.5201650000000  0.3752920000000  0.4512270000000 1.0
C      1  0.5568010000000  0.5705160000000  0.4668020000000 1.0
C      1  0.5205480000000  0.5468040000000  0.4072680000000 1.0
C      1  0.4300810000000  0.4734160000000  0.5330410000000 1.0
C      1  0.4120390000000  0.5223110000000  0.5047950000000 1.0
C      1  0.4544950000000  0.4188360000000  0.4832580000000 1.0
C      1  0.5065080000000  0.4344350000000  0.5524780000000 1.0
C      1  0.4903250000000  0.4766840000000  0.5350350000000 1.0
C      1  0.4884630000000  0.5746100000000  0.5329770000000 1.0
C      1  0.5975360000000  0.4538020000000  0.5235790000000 1.0
C      1  0.5880210000000  0.5517770000000  0.5257690000000 1.0
C      1  0.5306600000000  0.5071310000000  0.6304480000000 1.0
C      1  0.4964990000000  0.5574170000000  0.4718500000000 1.0
C      1  0.5427600000000  0.4990250000000  0.4806100000000 1.0
C      1  0.4868620000000  0.5770950000000  0.5815850000000 1.0
C      1  0.4757700000000  0.4303150000000  0.4688900000000 1.0
C      1  0.5248820000000  0.4600170000000  0.4371120000000 1.0
C      1  0.4981710000000  0.5592290000000  0.4203360000000 1.0
C      1  0.5545830000000  0.4318740000000  0.4686580000000 1.0
C      1  0.5486810000000  0.5792900000000  0.5372100000000 1.0
C      1  0.4462350000000  0.4651320000000  0.6006710000000 1.0
C      1  0.5482440000000  0.5875860000000  0.4880680000000 1.0
C      1  0.5075630000000  0.4101820000000  0.5126350000000 1.0
C      1  0.4743950000000  0.4932390000000  0.4654860000000 1.0
C      1  0.3966690000000  0.3991100000000  0.4776040000000 1.0
C      1  0.4852610000000  0.6719280000000  0.4487100000000 1.0
C      1  0.4425350000000  0.5473560000000  0.4496540000000 1.0
C      1  0.5188090000000  0.5126540000000  0.4735070000000 1.0
C      1  0.5295860000000  0.4411090000000  0.5966960000000 1.0
C      1  0.5061980000000  0.4407590000000  0.5044450000000 1.0
C      1  0.4878830000000  0.4122630000000  0.4506560000000 1.0
C      1  0.5749670000000  0.4974790000000  0.5962050000000 1.0
C      1  0.4336700000000  0.3783090000000  0.4988560000000 1.0
C      1  0.4496730000000  0.5650790000000  0.4704660000000 1.0
C      1  0.4312540000000  0.4753490000000  0.4498260000000 1.0
C      1  0.4075820000000  0.5200160000000  0.5673440000000 1.0
C      1  0.4234050000000  0.5006780000000  0.5806650000000 1.0
C      1  0.5848380000000  0.4485530000000  0.4188770000000 1.0
C      1  0.4670980000000  0.5308350000000  0.5771650000000 1.0
C      1  0.5385850000000  0.5740230000000  0.5112240000000 1.0
C      1  0.5752150000000  0.5095190000000  0.4056910000000 1.0
C      1  0.5550300000000  0.4362610000000  0.5559760000000 1.0
C      1  0.6010200000000  0.4435970000000  0.4663560000000 1.0
C      1  0.4212040000000  0.5450600000000  0.5653350000000 1.0
C      1  0.5338120000000  0.4868210000000  0.3835090000000 1.0
C      1  0.4725570000000  0.5610650000000  0.4086700000000 1.0
C      1  0.5291510000000  0.4336470000000  0.5691930000000 1.0
C      1  0.5051910000000  0.6789990000000  0.4915650000000 1.0
C      1  0.5970410000000  0.4588750000000  0.4423830000000 1.0
C      1  0.4992670000000  0.4481420000000  0.3885180000000 1.0
C      1  0.5243720000000  0.6339310000000  0.4765010000000 1.0
C      1  0.5709210000000  0.4617840000000  0.3998280000000 1.0
C      1  0.4506010000000  0.4046100000000  0.4201220000000 1.0
C      1  0.4479090000000  0.4975130000000  0.4553290000000 1.0
C      1  0.5001410000000  0.5003790000000  0.4554090000000 1.0
C      1  0.3821450000000  0.4230360000000  0.4748590000000 1.0
C      1  0.5389860000000  0.5227690000000  0.5480110000000 1.0
C      1  0.4484670000000  0.5443420000000  0.5569320000000 1.0
C      1  0.6263010000000  0.4353600000000  0.4730590000000 1.0
C      1  0.5430810000000  0.6146150000000  0.4841200000000 1.0
C      1  0.3634060000000  0.5208210000000  0.5067330000000 1.0
C      1  0.4893590000000  0.4502600000000  0.4837710000000 1.0
C      1  0.4608160000000  0.4212780000000  0.5371620000000 1.0
C      1  0.5422710000000  0.5653290000000  0.5842930000000 1.0
C      1  0.5709670000000  0.4987900000000  0.4814740000000 1.0
C      1  0.4931270000000  0.6384840000000  0.3847490000000 1.0
C      1  0.5767340000000  0.5748560000000  0.5375410000000 1.0
C      1  0.4723760000000  0.4843330000000  0.5143310000000 1.0
C      1  0.4378440000000  0.5198560000000  0.5171410000000 1.0
C      1  0.4773630000000  0.4758410000000  0.4877820000000 1.0
C      1  0.4969190000000  0.6490690000000  0.4370320000000 1.0
C      1  0.3734230000000  0.3857440000000  0.5392290000000 1.0
C      1  0.5444000000000  0.4621940000000  0.6086890000000 1.0
C      1  0.5375450000000  0.4082280000000  0.5196810000000 1.0
C      1  0.5446930000000  0.5489250000000  0.4219940000000 1.0
C      1  0.4534830000000  0.4258240000000  0.5100260000000 1.0
C      1  0.4816950000000  0.3687520000000  0.5037950000000 1.0
C      1  0.4084620000000  0.4621320000000  0.4540550000000 1.0
C      1  0.4060630000000  0.3873320000000  0.5035830000000 1.0
C      1  0.4725260000000  0.5633280000000  0.4867060000000 1.0
C      1  0.5850560000000  0.5129110000000  0.5011910000000 1.0
C      1  0.4741460000000  0.5945080000000  0.3684870000000 1.0
C      1  0.5945230000000  0.5048360000000  0.5267050000000 1.0
C      1  0.4286860000000  0.4565360000000  0.5557570000000 1.0
C      1  0.4124940000000  0.5224630000000  0.4768030000000 1.0
C      1  0.4868010000000  0.4879970000000  0.6097690000000 1.0
C      1  0.4464800000000  0.4930060000000  0.5212220000000 1.0
C      1  0.4409870000000  0.3952850000000  0.4763100000000 1.0
C      1  0.4885560000000  0.6858560000000  0.4714770000000 1.0
C      1  0.5784270000000  0.4360180000000  0.4827550000000 1.0
C      1  0.5009470000000  0.5423280000000  0.6132470000000 1.0
C      1  0.5672440000000  0.4704810000000  0.5929930000000 1.0
C      1  0.4708220000000  0.5603700000000  0.5155020000000 1.0
C      1  0.4581250000000  0.4912750000000  0.6114300000000 1.0
C      1  0.4900790000000  0.4280070000000  0.4035040000000 1.0
C      1  0.5315610000000  0.5767420000000  0.5602040000000 1.0
C      1  0.6029500000000  0.4788730000000  0.5309200000000 1.0
C      1  0.5473790000000  0.5413010000000  0.5992690000000 1.0
C      1  0.4827570000000  0.5512880000000  0.5934950000000 1.0
C      1  0.3893670000000  0.4468460000000  0.4647350000000 1.0
C      1  0.4358620000000  0.4283280000000  0.5516390000000 1.0
C      1  0.5999790000000  0.4873100000000  0.4408020000000 1.0
C      1  0.4555600000000  0.3642500000000  0.5090930000000 1.0
END
