TITL C-247198-3593-140 904053.571678697 125000 -973.490813576069 0 0 163 (C1) n - 1
REM
REM in /home/nfs/bkarasulu/CARBON/AIRSS/Generating-Clusters/LCBOP/Only-C1/SD-CG/FIRE-HFTN
REM
REM
REM
REM
REM
REM ./C.cell (11c1c37f851c82e70ff6c80c92926a4b)
REM AIRSS Version 0.9.1 bugfix July 2018 build 013d7b7c2542+ Fri, 06 Jul 2018 19:26:36 +0100
REM compiler GCC version 9.2.1 20190827 (Red Hat 9.2.1-1)
REM options -cpp -mtune=generic -march=x86-64 -g -O0 -fpre-include=/usr/include/finclude/math-vector-fortran.h
REM seed 475084608 -1788031121 1575715513 455953225 -1570472537 -676239135 2005171315 -1765129931 921342798 1331992237 -1484794678 758357063 -2075341848 2064209318 -1004879715 -1917363977 1730568476 1921959046 -2099268803 -1711355442 -432803820 1626990366 939701048 -1853390280 -1948816981 2074980787 1112845973 1722327966 -109993647 470980899 813173382 -665183558 -1729717631
REM
CELL 1.54180   50.00000   50.00000   50.00000   90.00000   90.00000   90.00000
LATT -1
SFAC C  
C      1  0.4757790000000  0.4164830000000  0.6094600000000 1.0
C      1  0.4312110000000  0.5588570000000  0.4318630000000 1.0
C      1  0.4677340000000  0.5083220000000  0.4177400000000 1.0
C      1  0.5018400000000  0.4186900000000  0.5257720000000 1.0
C      1  0.4666610000000  0.5295390000000  0.4740440000000 1.0
C      1  0.3881350000000  0.4432880000000  0.5065970000000 1.0
C      1  0.4907120000000  0.5361080000000  0.5609810000000 1.0
C      1  0.5860290000000  0.5780160000000  0.4513450000000 1.0
C      1  0.4792790000000  0.3796030000000  0.5798560000000 1.0
C      1  0.5505680000000  0.5397740000000  0.4691640000000 1.0
C      1  0.4251350000000  0.5062500000000  0.4418600000000 1.0
C      1  0.5137760000000  0.5241330000000  0.5010170000000 1.0
C      1  0.4591070000000  0.4107020000000  0.4451030000000 1.0
C      1  0.5159840000000  0.5431210000000  0.5209050000000 1.0
C      1  0.4638320000000  0.6229110000000  0.5290620000000 1.0
C      1  0.4250360000000  0.5401850000000  0.5552860000000 1.0
C      1  0.4614510000000  0.4751950000000  0.5948890000000 1.0
C      1  0.5705570000000  0.4466390000000  0.4794610000000 1.0
C      1  0.6181480000000  0.4583290000000  0.5328650000000 1.0
C      1  0.4773260000000  0.4781160000000  0.6183330000000 1.0
C      1  0.4715110000000  0.4722340000000  0.4757920000000 1.0
C      1  0.4632360000000  0.3612550000000  0.4660970000000 1.0
C      1  0.5097950000000  0.4600190000000  0.5021760000000 1.0
C      1  0.5503970000000  0.4207620000000  0.5178230000000 1.0
C      1  0.5582170000000  0.5239350000000  0.5328510000000 1.0
C      1  0.4791380000000  0.5717150000000  0.4179760000000 1.0
C      1  0.3866800000000  0.4860130000000  0.5524120000000 1.0
C      1  0.4747720000000  0.5406090000000  0.4503680000000 1.0
C      1  0.4938100000000  0.6230850000000  0.4893600000000 1.0
C      1  0.5271540000000  0.5013950000000  0.4915260000000 1.0
C      1  0.4504530000000  0.4945620000000  0.4354880000000 1.0
C      1  0.4128320000000  0.4384920000000  0.4401570000000 1.0
C      1  0.4885900000000  0.4951680000000  0.5226100000000 1.0
C      1  0.5773210000000  0.4884230000000  0.4184300000000 1.0
C      1  0.5523730000000  0.5644990000000  0.4825330000000 1.0
C      1  0.3955490000000  0.5326710000000  0.5568290000000 1.0
C      1  0.6315010000000  0.4404300000000  0.4760050000000 1.0
C      1  0.5757820000000  0.4634780000000  0.5614300000000 1.0
C      1  0.4446400000000  0.4398740000000  0.5273470000000 1.0
C      1  0.4626830000000  0.4717960000000  0.4481790000000 1.0
C      1  0.4396090000000  0.5820890000000  0.4831750000000 1.0
C      1  0.5142740000000  0.5436950000000  0.6061030000000 1.0
C      1  0.4119100000000  0.4869890000000  0.3892560000000 1.0
C      1  0.5510970000000  0.5783770000000  0.5070680000000 1.0
C      1  0.5315230000000  0.4879850000000  0.5606260000000 1.0
C      1  0.3968150000000  0.4865110000000  0.5260840000000 1.0
C      1  0.6123650000000  0.5046290000000  0.5132750000000 1.0
C      1  0.5578300000000  0.4704100000000  0.5180020000000 1.0
C      1  0.5443330000000  0.4614650000000  0.5644340000000 1.0
C      1  0.5371120000000  0.5558460000000  0.5640290000000 1.0
C      1  0.3990560000000  0.4131010000000  0.5475590000000 1.0
C      1  0.4762650000000  0.4816980000000  0.5687160000000 1.0
C      1  0.4727160000000  0.5690450000000  0.4468800000000 1.0
C      1  0.5617270000000  0.5643810000000  0.5512930000000 1.0
C      1  0.4514280000000  0.5643410000000  0.4080270000000 1.0
C      1  0.4445700000000  0.5751460000000  0.4545160000000 1.0
C      1  0.5538470000000  0.3978920000000  0.5006120000000 1.0
C      1  0.5507930000000  0.5600320000000  0.4130660000000 1.0
C      1  0.5032610000000  0.5671840000000  0.5138540000000 1.0
C      1  0.5508550000000  0.4455380000000  0.4231500000000 1.0
C      1  0.5155350000000  0.4919830000000  0.4662130000000 1.0
C      1  0.4875940000000  0.5215180000000  0.4331010000000 1.0
C      1  0.4383880000000  0.4047080000000  0.5815530000000 1.0
C      1  0.3993860000000  0.4725020000000  0.4080740000000 1.0
C      1  0.5840380000000  0.4716930000000  0.5890540000000 1.0
C      1  0.4767830000000  0.5615240000000  0.5662830000000 1.0
C      1  0.5682070000000  0.4654910000000  0.4324430000000 1.0
C      1  0.5092040000000  0.4175150000000  0.4424920000000 1.0
C      1  0.6086380000000  0.5311420000000  0.5816790000000 1.0
C      1  0.4704580000000  0.6150030000000  0.5028610000000 1.0
C      1  0.3949530000000  0.4700920000000  0.5023780000000 1.0
C      1  0.5148020000000  0.6043090000000  0.4862220000000 1.0
C      1  0.5275910000000  0.5382700000000  0.4533950000000 1.0
C      1  0.5288310000000  0.4209740000000  0.5376190000000 1.0
C      1  0.4331920000000  0.4214640000000  0.4426720000000 1.0
C      1  0.4321050000000  0.5309410000000  0.5840890000000 1.0
C      1  0.5656710000000  0.5205400000000  0.5083380000000 1.0
C      1  0.5274200000000  0.4942440000000  0.3880970000000 1.0
C      1  0.5754760000000  0.4826480000000  0.5375640000000 1.0
C      1  0.5177220000000  0.6053790000000  0.5383340000000 1.0
C      1  0.4177560000000  0.5437060000000  0.4898660000000 1.0
C      1  0.4998940000000  0.4692400000000  0.4766860000000 1.0
C      1  0.4889960000000  0.5133790000000  0.5776000000000 1.0
C      1  0.6095380000000  0.5292700000000  0.4957200000000 1.0
C      1  0.6112690000000  0.5251020000000  0.4663380000000 1.0
C      1  0.3940350000000  0.5065100000000  0.5706290000000 1.0
C      1  0.4019150000000  0.5410380000000  0.4663180000000 1.0
C      1  0.5167590000000  0.3999280000000  0.4630970000000 1.0
C      1  0.5154920000000  0.4913150000000  0.5359210000000 1.0
C      1  0.5421050000000  0.5162330000000  0.3918780000000 1.0
C      1  0.6007490000000  0.4476930000000  0.5515810000000 1.0
C      1  0.4120570000000  0.4819370000000  0.4816040000000 1.0
C      1  0.3748370000000  0.5440260000000  0.4657480000000 1.0
C      1  0.5169170000000  0.5880150000000  0.4630510000000 1.0
C      1  0.6322850000000  0.4647410000000  0.4872280000000 1.0
C      1  0.4969920000000  0.4558140000000  0.5533020000000 1.0
C      1  0.3896110000000  0.4239530000000  0.5250640000000 1.0
C      1  0.5178280000000  0.5647790000000  0.4468400000000 1.0
C      1  0.4602220000000  0.4817890000000  0.5029990000000 1.0
C      1  0.5963280000000  0.5733950000000  0.4764710000000 1.0
C      1  0.5169680000000  0.5404620000000  0.5485840000000 1.0
C      1  0.5801510000000  0.3900840000000  0.4943600000000 1.0
C      1  0.4177250000000  0.5052770000000  0.5888180000000 1.0
C      1  0.4494980000000  0.4674190000000  0.5276580000000 1.0
C      1  0.5588880000000  0.5325000000000  0.4079000000000 1.0
C      1  0.4782610000000  0.4538160000000  0.4308560000000 1.0
C      1  0.4322470000000  0.5662550000000  0.5389720000000 1.0
C      1  0.4609740000000  0.5050730000000  0.3901070000000 1.0
C      1  0.4817850000000  0.4939120000000  0.3749050000000 1.0
C      1  0.4618650000000  0.3844350000000  0.4542540000000 1.0
C      1  0.4888100000000  0.5245660000000  0.4894660000000 1.0
C      1  0.4087300000000  0.4853050000000  0.4536130000000 1.0
C      1  0.4692300000000  0.6047830000000  0.5499490000000 1.0
C      1  0.4029340000000  0.4642740000000  0.4349500000000 1.0
C      1  0.4343300000000  0.4984970000000  0.4958460000000 1.0
C      1  0.5961210000000  0.5029370000000  0.5373840000000 1.0
C      1  0.4973870000000  0.6023160000000  0.5585490000000 1.0
C      1  0.5716750000000  0.4674790000000  0.4606120000000 1.0
C      1  0.4954280000000  0.4474270000000  0.5238190000000 1.0
C      1  0.5648010000000  0.5184980000000  0.4805980000000 1.0
C      1  0.5718420000000  0.5692590000000  0.5245540000000 1.0
C      1  0.5125320000000  0.5139940000000  0.4465690000000 1.0
C      1  0.5242160000000  0.4419930000000  0.5592670000000 1.0
C      1  0.5996980000000  0.5248890000000  0.4414470000000 1.0
C      1  0.4785660000000  0.4033110000000  0.5234010000000 1.0
C      1  0.4160410000000  0.4078210000000  0.5674270000000 1.0
C      1  0.4338340000000  0.4830450000000  0.5958180000000 1.0
C      1  0.4566270000000  0.5370170000000  0.5179400000000 1.0
C      1  0.4939600000000  0.4632310000000  0.4090400000000 1.0
C      1  0.4985460000000  0.5798270000000  0.5770770000000 1.0
C      1  0.6233650000000  0.4770790000000  0.5108530000000 1.0
C      1  0.5210480000000  0.5645710000000  0.5870520000000 1.0
C      1  0.4631480000000  0.5880700000000  0.4977340000000 1.0
C      1  0.4996340000000  0.5189240000000  0.6039750000000 1.0
C      1  0.5876250000000  0.4750490000000  0.6146380000000 1.0
C      1  0.4410060000000  0.5173960000000  0.5393910000000 1.0
C      1  0.5028450000000  0.4808410000000  0.3886480000000 1.0
C      1  0.4340850000000  0.5006890000000  0.3829750000000 1.0
C      1  0.5328030000000  0.3919740000000  0.4828760000000 1.0
C      1  0.4176920000000  0.5347380000000  0.4426620000000 1.0
C      1  0.5800760000000  0.5170220000000  0.4216810000000 1.0
C      1  0.6216010000000  0.4156270000000  0.4764410000000 1.0
C      1  0.4558510000000  0.5784320000000  0.5522840000000 1.0
C      1  0.4233450000000  0.5679050000000  0.5041660000000 1.0
C      1  0.4543120000000  0.4891820000000  0.5485690000000 1.0
C      1  0.5309290000000  0.4801010000000  0.5119720000000 1.0
C      1  0.5969110000000  0.5572340000000  0.5016110000000 1.0
C      1  0.5157180000000  0.5678490000000  0.4193370000000 1.0
C      1  0.6032360000000  0.5177620000000  0.5599720000000 1.0
C      1  0.4188470000000  0.5043540000000  0.5220920000000 1.0
C      1  0.5235190000000  0.5908810000000  0.5121180000000 1.0
C      1  0.6038350000000  0.3973490000000  0.4843610000000 1.0
C      1  0.4821130000000  0.4265920000000  0.4391610000000 1.0
C      1  0.5696200000000  0.5749040000000  0.4295590000000 1.0
C      1  0.5401080000000  0.5067970000000  0.5786070000000 1.0
C      1  0.4646870000000  0.4002770000000  0.5903800000000 1.0
C      1  0.4540210000000  0.4148620000000  0.5237410000000 1.0
C      1  0.4428480000000  0.5267540000000  0.4902560000000 1.0
C      1  0.4751360000000  0.5653030000000  0.5109400000000 1.0
C      1  0.4938110000000  0.4991270000000  0.6230960000000 1.0
C      1  0.5722790000000  0.4938840000000  0.4699310000000 1.0
C      1  0.5623850000000  0.4447950000000  0.5065780000000 1.0
C      1  0.5301860000000  0.4291430000000  0.4274900000000 1.0
END
