TITL C-247196-3112-46 0.00234527989589583 125000 -840.70440188065 0 0 137 (C1) n - 1
REM
REM in /home/nfs/bkarasulu/CARBON/AIRSS/Generating-Clusters/LCBOP/Only-C1/SD-CG/FIRE-HFTN
REM
REM
REM
REM
REM
REM ./C.cell (11c1c37f851c82e70ff6c80c92926a4b)
REM AIRSS Version 0.9.1 bugfix July 2018 build 013d7b7c2542+ Fri, 06 Jul 2018 19:26:36 +0100
REM compiler GCC version 9.2.1 20190827 (Red Hat 9.2.1-1)
REM options -cpp -mtune=generic -march=x86-64 -g -O0 -fpre-include=/usr/include/finclude/math-vector-fortran.h
REM seed -676018489 -286970425 -1661747011 1482943221 -2146353577 -804972320 2040323014 -930057298 1375998194 -15998015 -1465263306 24444040 495960383 -1251155778 1960546999 -249585509 2031661979 -1529302544 1735328895 -1272715414 -1729734874 1578269738 967203585 910118671 284071013 286493842 -342846607 -1947363931 757587407 -837216470 -2028082188 -220561793 1561140455
REM
CELL 1.54180   50.00000   50.00000   50.00000   90.00000   90.00000   90.00000
LATT -1
SFAC C  
C      1  0.4624810000000  0.5577650000000  0.3945830000000 1.0
C      1  0.5733510000000  0.4599220000000  0.5035930000000 1.0
C      1  0.5490710000000  0.5326260000000  0.4732110000000 1.0
C      1  0.4769480000000  0.5892540000000  0.5259180000000 1.0
C      1  0.5031780000000  0.4745040000000  0.5078800000000 1.0
C      1  0.5632640000000  0.5791440000000  0.5263770000000 1.0
C      1  0.4318790000000  0.5751020000000  0.5235720000000 1.0
C      1  0.5155520000000  0.4195820000000  0.4432680000000 1.0
C      1  0.4035750000000  0.5513560000000  0.4628210000000 1.0
C      1  0.4091970000000  0.5100160000000  0.5310450000000 1.0
C      1  0.4428630000000  0.4210370000000  0.5138240000000 1.0
C      1  0.4139810000000  0.5118470000000  0.5593970000000 1.0
C      1  0.5206370000000  0.5491540000000  0.5039370000000 1.0
C      1  0.4718550000000  0.4862140000000  0.4735190000000 1.0
C      1  0.5919380000000  0.4181760000000  0.5197290000000 1.0
C      1  0.4924520000000  0.5661110000000  0.4713770000000 1.0
C      1  0.3920350000000  0.4874570000000  0.5231820000000 1.0
C      1  0.5084950000000  0.4626160000000  0.5963100000000 1.0
C      1  0.5602930000000  0.4978850000000  0.3889770000000 1.0
C      1  0.6113930000000  0.4959500000000  0.5417150000000 1.0
C      1  0.4892790000000  0.5555260000000  0.3898990000000 1.0
C      1  0.5393440000000  0.5596940000000  0.4847490000000 1.0
C      1  0.4811690000000  0.4188140000000  0.4800450000000 1.0
C      1  0.5709870000000  0.3988210000000  0.5225390000000 1.0
C      1  0.4363620000000  0.5316960000000  0.4981930000000 1.0
C      1  0.4964850000000  0.5917260000000  0.4201010000000 1.0
C      1  0.5562650000000  0.5171480000000  0.5827830000000 1.0
C      1  0.5952620000000  0.4726910000000  0.3581590000000 1.0
C      1  0.5561480000000  0.4575670000000  0.5911050000000 1.0
C      1  0.4619280000000  0.4433490000000  0.5758320000000 1.0
C      1  0.5214190000000  0.5141550000000  0.5338410000000 1.0
C      1  0.5211200000000  0.5798650000000  0.4717710000000 1.0
C      1  0.4461290000000  0.5547430000000  0.5688570000000 1.0
C      1  0.5356450000000  0.5031160000000  0.5979700000000 1.0
C      1  0.4482850000000  0.4464900000000  0.4275310000000 1.0
C      1  0.5532310000000  0.5450160000000  0.5713800000000 1.0
C      1  0.4574060000000  0.4771900000000  0.5382010000000 1.0
C      1  0.5506960000000  0.3994580000000  0.5024440000000 1.0
C      1  0.5248930000000  0.4366280000000  0.4906260000000 1.0
C      1  0.4522110000000  0.4519560000000  0.5503850000000 1.0
C      1  0.5338490000000  0.5579560000000  0.4119560000000 1.0
C      1  0.5678690000000  0.5068260000000  0.5394730000000 1.0
C      1  0.5721890000000  0.5561290000000  0.5429130000000 1.0
C      1  0.4063840000000  0.4433860000000  0.5410970000000 1.0
C      1  0.5857000000000  0.5509410000000  0.4930130000000 1.0
C      1  0.4188900000000  0.4793560000000  0.5942720000000 1.0
C      1  0.4898500000000  0.4939140000000  0.4934090000000 1.0
C      1  0.5518130000000  0.4186260000000  0.5630890000000 1.0
C      1  0.5497780000000  0.4749300000000  0.5116440000000 1.0
C      1  0.5334770000000  0.5104680000000  0.4649980000000 1.0
C      1  0.5217040000000  0.3937390000000  0.5047450000000 1.0
C      1  0.4418430000000  0.4499460000000  0.4756700000000 1.0
C      1  0.4215290000000  0.5693830000000  0.4773940000000 1.0
C      1  0.5903750000000  0.5412880000000  0.5213840000000 1.0
C      1  0.4452440000000  0.4850450000000  0.5133130000000 1.0
C      1  0.3976440000000  0.4956130000000  0.4686440000000 1.0
C      1  0.5126930000000  0.5140860000000  0.6104720000000 1.0
C      1  0.4919600000000  0.5155370000000  0.5359560000000 1.0
C      1  0.4316840000000  0.5303570000000  0.5715790000000 1.0
C      1  0.4309360000000  0.4561890000000  0.4493620000000 1.0
C      1  0.4829430000000  0.4649580000000  0.3939140000000 1.0
C      1  0.4160930000000  0.4821060000000  0.4489760000000 1.0
C      1  0.4318880000000  0.5100620000000  0.5145170000000 1.0
C      1  0.4324600000000  0.5728010000000  0.5513950000000 1.0
C      1  0.5672840000000  0.4415850000000  0.5706070000000 1.0
C      1  0.4867030000000  0.5105320000000  0.6165260000000 1.0
C      1  0.5628100000000  0.3964590000000  0.5495190000000 1.0
C      1  0.4533020000000  0.5897220000000  0.5093910000000 1.0
C      1  0.5419170000000  0.5101810000000  0.4064380000000 1.0
C      1  0.4504020000000  0.4739800000000  0.4877350000000 1.0
C      1  0.5509040000000  0.5357080000000  0.4182040000000 1.0
C      1  0.5673860000000  0.4458650000000  0.4770690000000 1.0
C      1  0.3946910000000  0.5250180000000  0.4640640000000 1.0
C      1  0.4355490000000  0.4034640000000  0.6010860000000 1.0
C      1  0.4923790000000  0.5507180000000  0.4982330000000 1.0
C      1  0.4812900000000  0.5409100000000  0.5240390000000 1.0
C      1  0.5510270000000  0.4233880000000  0.4861410000000 1.0
C      1  0.3891370000000  0.4853150000000  0.4945280000000 1.0
C      1  0.5938320000000  0.5142580000000  0.5278480000000 1.0
C      1  0.4303690000000  0.5024710000000  0.4344820000000 1.0
C      1  0.4867410000000  0.5657560000000  0.5429000000000 1.0
C      1  0.5261700000000  0.3943830000000  0.4391920000000 1.0
C      1  0.4477390000000  0.5291440000000  0.4724130000000 1.0
C      1  0.4843120000000  0.4546690000000  0.5884990000000 1.0
C      1  0.5280500000000  0.6062760000000  0.4664030000000 1.0
C      1  0.4541780000000  0.4268180000000  0.4883430000000 1.0
C      1  0.4332330000000  0.4355370000000  0.5362060000000 1.0
C      1  0.4584710000000  0.4602640000000  0.4047440000000 1.0
C      1  0.5271290000000  0.5420770000000  0.5294370000000 1.0
C      1  0.4471750000000  0.5859980000000  0.4795010000000 1.0
C      1  0.4067900000000  0.4852700000000  0.5695460000000 1.0
C      1  0.5160780000000  0.4963940000000  0.4102320000000 1.0
C      1  0.4527220000000  0.5730070000000  0.4150340000000 1.0
C      1  0.5877960000000  0.4460340000000  0.5248580000000 1.0
C      1  0.5638820000000  0.5712870000000  0.4983990000000 1.0
C      1  0.5168670000000  0.5613720000000  0.5474480000000 1.0
C      1  0.3960880000000  0.4693370000000  0.5465210000000 1.0
C      1  0.5958160000000  0.4804970000000  0.5616740000000 1.0
C      1  0.4620080000000  0.5000390000000  0.6165530000000 1.0
C      1  0.5097310000000  0.6161400000000  0.4239410000000 1.0
C      1  0.5280040000000  0.4511080000000  0.4096140000000 1.0
C      1  0.4487680000000  0.4223140000000  0.5888780000000 1.0
C      1  0.5327600000000  0.4422590000000  0.4362690000000 1.0
C      1  0.4657400000000  0.4251680000000  0.4348690000000 1.0
C      1  0.5779090000000  0.4856040000000  0.3734770000000 1.0
C      1  0.5047080000000  0.4160960000000  0.4957820000000 1.0
C      1  0.5500980000000  0.4584610000000  0.4546730000000 1.0
C      1  0.6122990000000  0.4599350000000  0.3431030000000 1.0
C      1  0.5109230000000  0.5195970000000  0.4503150000000 1.0
C      1  0.4693590000000  0.5825930000000  0.4614310000000 1.0
C      1  0.4443580000000  0.5221660000000  0.4466430000000 1.0
C      1  0.4392420000000  0.4874280000000  0.6099750000000 1.0
C      1  0.4230610000000  0.5563680000000  0.5041230000000 1.0
C      1  0.5257450000000  0.5573750000000  0.5745160000000 1.0
C      1  0.4999370000000  0.5009730000000  0.4331470000000 1.0
C      1  0.4977300000000  0.5436340000000  0.4524290000000 1.0
C      1  0.5769090000000  0.5381340000000  0.4663720000000 1.0
C      1  0.5443520000000  0.4973160000000  0.5282990000000 1.0
C      1  0.4755360000000  0.4963850000000  0.5480270000000 1.0
C      1  0.5103990000000  0.4706070000000  0.3992680000000 1.0
C      1  0.4989970000000  0.4579920000000  0.5300200000000 1.0
C      1  0.5734510000000  0.4999290000000  0.5670870000000 1.0
C      1  0.5068990000000  0.4380100000000  0.5457030000000 1.0
C      1  0.5742640000000  0.5383670000000  0.4367990000000 1.0
C      1  0.5361880000000  0.4812870000000  0.4678180000000 1.0
C      1  0.4993210000000  0.5580920000000  0.5881920000000 1.0
C      1  0.5240990000000  0.6228320000000  0.4456740000000 1.0
C      1  0.5865190000000  0.4543370000000  0.5530880000000 1.0
C      1  0.5243830000000  0.4231420000000  0.5590970000000 1.0
C      1  0.4800800000000  0.4859760000000  0.4465210000000 1.0
C      1  0.5342230000000  0.4742720000000  0.5962250000000 1.0
C      1  0.4748370000000  0.5598780000000  0.5709900000000 1.0
C      1  0.4705470000000  0.5864210000000  0.4328380000000 1.0
C      1  0.5272230000000  0.4668770000000  0.4937900000000 1.0
C      1  0.5573940000000  0.6039960000000  0.5357470000000 1.0
C      1  0.4877050000000  0.4207860000000  0.4518070000000 1.0
C      1  0.5085800000000  0.5694090000000  0.4058110000000 1.0
END
