TITL C-247198-3593-347 3.33927463599219e-09 125000 -163.009814886291 0 0 28 (C1) n - 1
REM
REM in /home/nfs/bkarasulu/CARBON/AIRSS/Generating-Clusters/LCBOP/Only-C1/SD-CG/FIRE-HFTN
REM
REM
REM
REM
REM
REM ./C.cell (11c1c37f851c82e70ff6c80c92926a4b)
REM AIRSS Version 0.9.1 bugfix July 2018 build 013d7b7c2542+ Fri, 06 Jul 2018 19:26:36 +0100
REM compiler GCC version 9.2.1 20190827 (Red Hat 9.2.1-1)
REM options -cpp -mtune=generic -march=x86-64 -g -O0 -fpre-include=/usr/include/finclude/math-vector-fortran.h
REM seed 106777293 -1849017465 -767060809 1704424515 -574943396 -1776997152 1704136274 1797841830 -1751339887 -1216506001 -1792193014 -1262357450 -1277029998 -1319640997 977150461 80440477 -223798644 -2024133815 1785759252 -656506254 -1963146770 -855124000 1075531814 1843204253 -211302546 -1901427912 -744165397 1491813280 -1431667415 1434832915 -1436705547 -2031388956 472687370
REM
CELL 1.54180   50.00000   50.00000   50.00000   90.00000   90.00000   90.00000
LATT -1
SFAC C  
C      1  0.5248070000000  0.5279690000000  0.4629750000000 1.0
C      1  0.4723940000000  0.5254740000000  0.5401550000000 1.0
C      1  0.5124720000000  0.5282220000000  0.4394190000000 1.0
C      1  0.5019020000000  0.5620530000000  0.5476810000000 1.0
C      1  0.5198630000000  0.5630090000000  0.5279900000000 1.0
C      1  0.4967110000000  0.4494610000000  0.5312240000000 1.0
C      1  0.4882760000000  0.4650450000000  0.5086020000000 1.0
C      1  0.4895620000000  0.5269030000000  0.4258760000000 1.0
C      1  0.4446250000000  0.5200930000000  0.4475480000000 1.0
C      1  0.4802490000000  0.5466740000000  0.5567950000000 1.0
C      1  0.5401430000000  0.4573560000000  0.5098010000000 1.0
C      1  0.4632080000000  0.5239120000000  0.4287890000000 1.0
C      1  0.5367570000000  0.4454110000000  0.4842800000000 1.0
C      1  0.4799420000000  0.4396990000000  0.5502480000000 1.0
C      1  0.5114400000000  0.4309510000000  0.4449700000000 1.0
C      1  0.5253210000000  0.5267060000000  0.4908770000000 1.0
C      1  0.5433650000000  0.4857130000000  0.5110270000000 1.0
C      1  0.4722540000000  0.5107700000000  0.5163690000000 1.0
C      1  0.4936350000000  0.4931700000000  0.5098830000000 1.0
C      1  0.5282620000000  0.5498030000000  0.5064360000000 1.0
C      1  0.4897820000000  0.4523370000000  0.4832820000000 1.0
C      1  0.5205690000000  0.5019530000000  0.5042730000000 1.0
C      1  0.4676220000000  0.5520000000000  0.5803660000000 1.0
C      1  0.5671170000000  0.4968050000000  0.5188090000000 1.0
C      1  0.5248820000000  0.4457890000000  0.5309510000000 1.0
C      1  0.5125970000000  0.4423240000000  0.4696670000000 1.0
C      1  0.4409300000000  0.5165980000000  0.4736960000000 1.0
C      1  0.4513140000000  0.5138010000000  0.4980090000000 1.0
END
