TITL C-247200-3482-471 -2.08349285456061e-06 125000 -1101.69496710328 0 0 180 (C1) n - 1
REM
REM in /home/nfs/bkarasulu/CARBON/AIRSS/Generating-Clusters/LCBOP/Only-C1/SD-CG/FIRE-HFTN
REM
REM
REM
REM
REM
REM ./C.cell (11c1c37f851c82e70ff6c80c92926a4b)
REM AIRSS Version 0.9.1 bugfix July 2018 build 013d7b7c2542+ Fri, 06 Jul 2018 19:26:36 +0100
REM compiler GCC version 9.2.1 20190827 (Red Hat 9.2.1-1)
REM options -cpp -mtune=generic -march=x86-64 -g -O0 -fpre-include=/usr/include/finclude/math-vector-fortran.h
REM seed 2056337156 2082954517 512025978 -1477483414 -985566049 -221665704 1854640044 -279592899 1668544405 -152811415 -2065495368 -1851808465 -1142133523 -142210531 919393980 -750255091 -1717564238 -1090385098 1075776981 -1958576042 1951350657 -1460024135 -1601845948 1476633080 16923890 -173886025 -225278575 888614555 822833343 -1776275482 1556418443 -1939313850 -965023141
REM
CELL 1.54180   50.00000   50.00000   50.00000   90.00000   90.00000   90.00000
LATT -1
SFAC C  
C      1  0.4987890000000  0.3845020000000  0.5246510000000 1.0
C      1  0.4812640000000  0.5566890000000  0.4047630000000 1.0
C      1  0.3998000000000  0.5575850000000  0.4875040000000 1.0
C      1  0.4512610000000  0.6052290000000  0.4863550000000 1.0
C      1  0.4470020000000  0.5648810000000  0.5159440000000 1.0
C      1  0.5482240000000  0.6003310000000  0.5547270000000 1.0
C      1  0.5486120000000  0.4058100000000  0.5173260000000 1.0
C      1  0.5790740000000  0.6047940000000  0.5986140000000 1.0
C      1  0.5648120000000  0.6024120000000  0.5769320000000 1.0
C      1  0.5388610000000  0.4329860000000  0.4529980000000 1.0
C      1  0.5229150000000  0.5223050000000  0.4654610000000 1.0
C      1  0.5313170000000  0.5488620000000  0.4634090000000 1.0
C      1  0.5282780000000  0.5532850000000  0.5396580000000 1.0
C      1  0.5199750000000  0.4609250000000  0.4929230000000 1.0
C      1  0.5661800000000  0.5017480000000  0.4579510000000 1.0
C      1  0.4045840000000  0.4687290000000  0.4977660000000 1.0
C      1  0.5947440000000  0.4585470000000  0.4836090000000 1.0
C      1  0.5957470000000  0.5339790000000  0.4943480000000 1.0
C      1  0.3793650000000  0.5387850000000  0.4930760000000 1.0
C      1  0.4054140000000  0.4584060000000  0.4712210000000 1.0
C      1  0.5795780000000  0.4048210000000  0.4530480000000 1.0
C      1  0.5245950000000  0.5037880000000  0.3655650000000 1.0
C      1  0.5213930000000  0.4594860000000  0.3965890000000 1.0
C      1  0.4251070000000  0.4863710000000  0.4285020000000 1.0
C      1  0.4549010000000  0.4720460000000  0.5368810000000 1.0
C      1  0.4432040000000  0.4045360000000  0.5621070000000 1.0
C      1  0.4581870000000  0.4731510000000  0.6310970000000 1.0
C      1  0.5725130000000  0.4707340000000  0.5245830000000 1.0
C      1  0.5842950000000  0.4858290000000  0.5812660000000 1.0
C      1  0.5068450000000  0.4641260000000  0.6315150000000 1.0
C      1  0.6034940000000  0.5428010000000  0.5482220000000 1.0
C      1  0.4392300000000  0.5357210000000  0.4160120000000 1.0
C      1  0.5029180000000  0.4915000000000  0.5539980000000 1.0
C      1  0.5085140000000  0.4290720000000  0.5245790000000 1.0
C      1  0.4346940000000  0.4215100000000  0.5810610000000 1.0
C      1  0.3986360000000  0.5255440000000  0.4394950000000 1.0
C      1  0.5754390000000  0.4881650000000  0.3623070000000 1.0
C      1  0.4633740000000  0.5366830000000  0.4018510000000 1.0
C      1  0.5009500000000  0.5824060000000  0.5674550000000 1.0
C      1  0.5364800000000  0.5599450000000  0.4885630000000 1.0
C      1  0.4561740000000  0.4964730000000  0.5220150000000 1.0
C      1  0.4781680000000  0.5778140000000  0.4229770000000 1.0
C      1  0.5745390000000  0.4443330000000  0.5348090000000 1.0
C      1  0.5489060000000  0.4914560000000  0.3725490000000 1.0
C      1  0.4913230000000  0.5803300000000  0.5092510000000 1.0
C      1  0.5575540000000  0.5982590000000  0.5259680000000 1.0
C      1  0.4733800000000  0.6079670000000  0.5984050000000 1.0
C      1  0.5786870000000  0.5774840000000  0.5213470000000 1.0
C      1  0.5123220000000  0.5087950000000  0.5752190000000 1.0
C      1  0.4130020000000  0.4905260000000  0.5932980000000 1.0
C      1  0.5244380000000  0.6185880000000  0.4830060000000 1.0
C      1  0.5605650000000  0.4199710000000  0.4391180000000 1.0
C      1  0.4062310000000  0.4793290000000  0.4511010000000 1.0
C      1  0.4288640000000  0.5640300000000  0.5716240000000 1.0
C      1  0.5182010000000  0.4880920000000  0.6196020000000 1.0
C      1  0.4350510000000  0.5871430000000  0.5020660000000 1.0
C      1  0.5144980000000  0.4390330000000  0.6209800000000 1.0
C      1  0.4271940000000  0.4455720000000  0.5936790000000 1.0
C      1  0.6207030000000  0.5104590000000  0.4106050000000 1.0
C      1  0.4642430000000  0.4053410000000  0.4636850000000 1.0
C      1  0.5967010000000  0.4607720000000  0.4545200000000 1.0
C      1  0.5349800000000  0.6135640000000  0.5106100000000 1.0
C      1  0.5046040000000  0.5571440000000  0.5541390000000 1.0
C      1  0.4969260000000  0.4758640000000  0.3942320000000 1.0
C      1  0.5906700000000  0.5135250000000  0.4503670000000 1.0
C      1  0.5980390000000  0.5098000000000  0.5119100000000 1.0
C      1  0.5348860000000  0.5639480000000  0.4398010000000 1.0
C      1  0.4772290000000  0.5181720000000  0.6114190000000 1.0
C      1  0.5635140000000  0.5493790000000  0.3968480000000 1.0
C      1  0.4767600000000  0.5847010000000  0.5839610000000 1.0
C      1  0.4415990000000  0.4553300000000  0.6165190000000 1.0
C      1  0.5992710000000  0.4970550000000  0.5618920000000 1.0
C      1  0.4815280000000  0.4638030000000  0.6437480000000 1.0
C      1  0.5186210000000  0.4325010000000  0.3894490000000 1.0
C      1  0.4759620000000  0.4872410000000  0.4796160000000 1.0
C      1  0.4912070000000  0.4346170000000  0.4402590000000 1.0
C      1  0.5373350000000  0.4565770000000  0.4693990000000 1.0
C      1  0.5381430000000  0.5181590000000  0.5687370000000 1.0
C      1  0.4100580000000  0.4292730000000  0.4706660000000 1.0
C      1  0.3915740000000  0.5048680000000  0.4593240000000 1.0
C      1  0.5111310000000  0.4295060000000  0.5946780000000 1.0
C      1  0.4456830000000  0.3954860000000  0.5350070000000 1.0
C      1  0.5766110000000  0.4671620000000  0.4046390000000 1.0
C      1  0.4626790000000  0.5365960000000  0.5953200000000 1.0
C      1  0.5300660000000  0.5092690000000  0.4894730000000 1.0
C      1  0.3949300000000  0.4944940000000  0.5398050000000 1.0
C      1  0.5002890000000  0.4970210000000  0.3757250000000 1.0
C      1  0.4051160000000  0.5184670000000  0.5556960000000 1.0
C      1  0.4478960000000  0.4751690000000  0.4154430000000 1.0
C      1  0.3919630000000  0.4924630000000  0.5089280000000 1.0
C      1  0.4472150000000  0.4524600000000  0.5182280000000 1.0
C      1  0.4011910000000  0.4160000000000  0.5338200000000 1.0
C      1  0.4035570000000  0.5544300000000  0.4375250000000 1.0
C      1  0.4686160000000  0.4176540000000  0.4388090000000 1.0
C      1  0.4224650000000  0.5441560000000  0.4765300000000 1.0
C      1  0.4562390000000  0.6006720000000  0.4578250000000 1.0
C      1  0.5484180000000  0.5542900000000  0.4175090000000 1.0
C      1  0.4955140000000  0.6241700000000  0.4768260000000 1.0
C      1  0.3979480000000  0.4665380000000  0.5548520000000 1.0
C      1  0.4191000000000  0.4533930000000  0.5158800000000 1.0
C      1  0.4482200000000  0.4151770000000  0.4198180000000 1.0
C      1  0.6025560000000  0.5155440000000  0.5405540000000 1.0
C      1  0.6370580000000  0.5214520000000  0.3935490000000 1.0
C      1  0.4496570000000  0.5210110000000  0.5745260000000 1.0
C      1  0.5125340000000  0.6150850000000  0.5305600000000 1.0
C      1  0.3836640000000  0.5109000000000  0.4875610000000 1.0
C      1  0.4224170000000  0.4036520000000  0.5182390000000 1.0
C      1  0.5514350000000  0.4794400000000  0.4603290000000 1.0
C      1  0.4888250000000  0.6070810000000  0.5180160000000 1.0
C      1  0.4502250000000  0.4791400000000  0.4742920000000 1.0
C      1  0.5190600000000  0.6028670000000  0.5562120000000 1.0
C      1  0.4550320000000  0.4184570000000  0.4862440000000 1.0
C      1  0.4957080000000  0.4655860000000  0.5637280000000 1.0
C      1  0.5160320000000  0.3664540000000  0.4530040000000 1.0
C      1  0.5162950000000  0.4495230000000  0.5751550000000 1.0
C      1  0.4922480000000  0.4844600000000  0.4565110000000 1.0
C      1  0.4683770000000  0.4620640000000  0.5593750000000 1.0
C      1  0.6062280000000  0.5290390000000  0.4679460000000 1.0
C      1  0.6025010000000  0.4998100000000  0.4285690000000 1.0
C      1  0.5895760000000  0.5786950000000  0.4742170000000 1.0
C      1  0.5597240000000  0.4763980000000  0.5915680000000 1.0
C      1  0.4969870000000  0.4446760000000  0.5038050000000 1.0
C      1  0.6312640000000  0.5380050000000  0.4614290000000 1.0
C      1  0.5067590000000  0.5071830000000  0.4487000000000 1.0
C      1  0.5204310000000  0.4035870000000  0.5231360000000 1.0
C      1  0.4977100000000  0.5955350000000  0.4344970000000 1.0
C      1  0.5367880000000  0.5542900000000  0.5145360000000 1.0
C      1  0.4063400000000  0.4168060000000  0.4455020000000 1.0
C      1  0.4516110000000  0.5801750000000  0.4370750000000 1.0
C      1  0.4714410000000  0.3849030000000  0.5273190000000 1.0
C      1  0.5137390000000  0.3922810000000  0.4503380000000 1.0
C      1  0.4368030000000  0.5404860000000  0.5304800000000 1.0
C      1  0.5463450000000  0.4871970000000  0.6142310000000 1.0
C      1  0.4877140000000  0.4627860000000  0.4384260000000 1.0
C      1  0.4600980000000  0.5008720000000  0.6262740000000 1.0
C      1  0.4996160000000  0.3775910000000  0.5885360000000 1.0
C      1  0.5915510000000  0.4805400000000  0.5045370000000 1.0
C      1  0.4267220000000  0.4148550000000  0.4912060000000 1.0
C      1  0.5027650000000  0.5068030000000  0.6028280000000 1.0
C      1  0.5512600000000  0.5082390000000  0.5473490000000 1.0
C      1  0.5704050000000  0.4247420000000  0.5146380000000 1.0
C      1  0.4216430000000  0.4131890000000  0.4236910000000 1.0
C      1  0.4745270000000  0.6202730000000  0.4974350000000 1.0
C      1  0.5860170000000  0.4368290000000  0.5583740000000 1.0
C      1  0.4750310000000  0.5606380000000  0.5179680000000 1.0
C      1  0.4356310000000  0.5230010000000  0.4859530000000 1.0
C      1  0.5880370000000  0.4307800000000  0.4925560000000 1.0
C      1  0.4211670000000  0.5145610000000  0.4229880000000 1.0
C      1  0.5429330000000  0.4593910000000  0.5761050000000 1.0
C      1  0.5274680000000  0.4868800000000  0.5092320000000 1.0
C      1  0.5964870000000  0.5930090000000  0.4530120000000 1.0
C      1  0.5473960000000  0.4724840000000  0.3960090000000 1.0
C      1  0.5867110000000  0.5626250000000  0.4973640000000 1.0
C      1  0.4383760000000  0.5165440000000  0.5129990000000 1.0
C      1  0.5906620000000  0.4724680000000  0.3792200000000 1.0
C      1  0.4820620000000  0.5462690000000  0.5415210000000 1.0
C      1  0.5250150000000  0.5905280000000  0.4407940000000 1.0
C      1  0.4232570000000  0.5106450000000  0.5772420000000 1.0
C      1  0.5924010000000  0.5668560000000  0.5439110000000 1.0
C      1  0.5117100000000  0.4094410000000  0.3794200000000 1.0
C      1  0.4310910000000  0.5611490000000  0.4296750000000 1.0
C      1  0.5937920000000  0.4096560000000  0.4750790000000 1.0
C      1  0.4762000000000  0.4715750000000  0.4135440000000 1.0
C      1  0.5142940000000  0.4202890000000  0.4480740000000 1.0
C      1  0.4804410000000  0.4959520000000  0.5070810000000 1.0
C      1  0.5927470000000  0.4725450000000  0.4282370000000 1.0
C      1  0.5028600000000  0.4941450000000  0.5247460000000 1.0
C      1  0.6028230000000  0.6055460000000  0.4310530000000 1.0
C      1  0.4150740000000  0.5460450000000  0.5506110000000 1.0
C      1  0.4836450000000  0.6125810000000  0.4529370000000 1.0
C      1  0.5616170000000  0.4181580000000  0.4118260000000 1.0
C      1  0.5372220000000  0.6082030000000  0.4596940000000 1.0
C      1  0.4072070000000  0.5831280000000  0.4968910000000 1.0
C      1  0.4594550000000  0.5320140000000  0.5502560000000 1.0
C      1  0.5044470000000  0.4031990000000  0.5890190000000 1.0
C      1  0.4557990000000  0.5641860000000  0.5865050000000 1.0
C      1  0.4674560000000  0.4394670000000  0.5015090000000 1.0
C      1  0.5504440000000  0.4875300000000  0.5281530000000 1.0
C      1  0.4028880000000  0.4441520000000  0.5375660000000 1.0
C      1  0.4094030000000  0.4649740000000  0.5817660000000 1.0
END
