TITL C-247202-1916-108 7745.40278572348 125000 -627.472516531824 0 0 103 (C1) n - 1
REM
REM in /home/nfs/bkarasulu/CARBON/AIRSS/Generating-Clusters/LCBOP/Only-C1/SD-CG/FIRE-HFTN
REM
REM
REM
REM
REM
REM ./C.cell (11c1c37f851c82e70ff6c80c92926a4b)
REM AIRSS Version 0.9.1 bugfix July 2018 build 013d7b7c2542+ Fri, 06 Jul 2018 19:26:36 +0100
REM compiler GCC version 9.2.1 20190827 (Red Hat 9.2.1-1)
REM options -cpp -mtune=generic -march=x86-64 -g -O0 -fpre-include=/usr/include/finclude/math-vector-fortran.h
REM seed -6648292 -784970778 973236559 1994587445 -1270683758 410852868 2109858520 -1447842676 443668905 -707327784 1637100859 -1313297376 -512974792 1592179038 1619158703 1970784909 -1053463891 1699384655 -7703678 5260652 -163480802 -196268232 2139322484 1098940322 1656812624 1534520299 -265612280 -497287752 -70936170 435588870 -334810160 1094209034 -753894220
REM
CELL 1.54180   50.00000   50.00000   50.00000   90.00000   90.00000   90.00000
LATT -1
SFAC C  
C      1  0.4503420000000  0.5698060000000  0.4399420000000 1.0
C      1  0.5100560000000  0.5399500000000  0.4311450000000 1.0
C      1  0.5222430000000  0.5553550000000  0.4770140000000 1.0
C      1  0.4643880000000  0.4922010000000  0.4352420000000 1.0
C      1  0.4400000000000  0.5903630000000  0.5288400000000 1.0
C      1  0.5694860000000  0.5496920000000  0.4820310000000 1.0
C      1  0.4950890000000  0.5615920000000  0.4198710000000 1.0
C      1  0.4480120000000  0.4265880000000  0.5637490000000 1.0
C      1  0.5697750000000  0.5246180000000  0.4951500000000 1.0
C      1  0.4945630000000  0.4249500000000  0.5803710000000 1.0
C      1  0.4431410000000  0.4339430000000  0.4754940000000 1.0
C      1  0.5860680000000  0.4011530000000  0.6056600000000 1.0
C      1  0.5423230000000  0.3801760000000  0.4913840000000 1.0
C      1  0.4735790000000  0.4685950000000  0.5796190000000 1.0
C      1  0.5181750000000  0.4096250000000  0.5812800000000 1.0
C      1  0.5255200000000  0.4841380000000  0.5399770000000 1.0
C      1  0.4665700000000  0.5611090000000  0.4184400000000 1.0
C      1  0.5135920000000  0.6057180000000  0.4621750000000 1.0
C      1  0.5240260000000  0.5332130000000  0.5676830000000 1.0
C      1  0.4994660000000  0.5676220000000  0.4939720000000 1.0
C      1  0.5355510000000  0.4910530000000  0.4236760000000 1.0
C      1  0.5772870000000  0.5784050000000  0.5325070000000 1.0
C      1  0.4212270000000  0.5459090000000  0.5281750000000 1.0
C      1  0.4961220000000  0.4711400000000  0.4768190000000 1.0
C      1  0.5267430000000  0.5943530000000  0.4395160000000 1.0
C      1  0.4989110000000  0.5953030000000  0.4826210000000 1.0
C      1  0.4463800000000  0.5206840000000  0.5670990000000 1.0
C      1  0.5438620000000  0.5116260000000  0.4975360000000 1.0
C      1  0.6067430000000  0.4004010000000  0.6222300000000 1.0
C      1  0.4315040000000  0.5412660000000  0.5543380000000 1.0
C      1  0.4204170000000  0.5076330000000  0.3381970000000 1.0
C      1  0.5040850000000  0.4265530000000  0.4380560000000 1.0
C      1  0.5090130000000  0.4620290000000  0.5312440000000 1.0
C      1  0.5579430000000  0.5363900000000  0.4102800000000 1.0
C      1  0.4775410000000  0.4143360000000  0.5068600000000 1.0
C      1  0.5654530000000  0.4022720000000  0.5890680000000 1.0
C      1  0.5313560000000  0.5593520000000  0.5304770000000 1.0
C      1  0.4727700000000  0.4833140000000  0.5547430000000 1.0
C      1  0.5119390000000  0.4756590000000  0.4179200000000 1.0
C      1  0.5122010000000  0.5316160000000  0.4600970000000 1.0
C      1  0.4776830000000  0.5473630000000  0.4884380000000 1.0
C      1  0.5482190000000  0.5112370000000  0.4082660000000 1.0
C      1  0.6270790000000  0.3997850000000  0.6385310000000 1.0
C      1  0.4090820000000  0.4924340000000  0.3203050000000 1.0
C      1  0.5246080000000  0.4007750000000  0.4992690000000 1.0
C      1  0.5110160000000  0.4476890000000  0.4229450000000 1.0
C      1  0.5657030000000  0.3816370000000  0.5324340000000 1.0
C      1  0.5413050000000  0.4928590000000  0.4513320000000 1.0
C      1  0.4646130000000  0.5104130000000  0.4575350000000 1.0
C      1  0.5486980000000  0.4017090000000  0.5432320000000 1.0
C      1  0.5440290000000  0.4043420000000  0.5712540000000 1.0
C      1  0.5047600000000  0.5133750000000  0.5727200000000 1.0
C      1  0.4644040000000  0.5951450000000  0.5383350000000 1.0
C      1  0.4254870000000  0.5709270000000  0.5146690000000 1.0
C      1  0.5594850000000  0.5602810000000  0.4227830000000 1.0
C      1  0.4243790000000  0.4720050000000  0.5743460000000 1.0
C      1  0.4669480000000  0.5334060000000  0.5106180000000 1.0
C      1  0.4543910000000  0.5509960000000  0.3954030000000 1.0
C      1  0.4302760000000  0.4462110000000  0.5690830000000 1.0
C      1  0.6144450000000  0.5022210000000  0.5151930000000 1.0
C      1  0.4204160000000  0.5223980000000  0.5116950000000 1.0
C      1  0.5497920000000  0.5805530000000  0.5357720000000 1.0
C      1  0.4318710000000  0.5229620000000  0.3565390000000 1.0
C      1  0.4870670000000  0.4189780000000  0.5336280000000 1.0
C      1  0.4580170000000  0.4338160000000  0.4996230000000 1.0
C      1  0.4763040000000  0.5142280000000  0.5582830000000 1.0
C      1  0.4803970000000  0.4686000000000  0.5319830000000 1.0
C      1  0.5930460000000  0.5129070000000  0.5048490000000 1.0
C      1  0.5126160000000  0.4337260000000  0.5318020000000 1.0
C      1  0.4710490000000  0.4765910000000  0.4880230000000 1.0
C      1  0.4548060000000  0.4983250000000  0.4817500000000 1.0
C      1  0.4649770000000  0.4601100000000  0.5096870000000 1.0
C      1  0.4978130000000  0.4126110000000  0.4601650000000 1.0
C      1  0.5192930000000  0.4674360000000  0.5872250000000 1.0
C      1  0.4470450000000  0.4695870000000  0.4378560000000 1.0
C      1  0.5377920000000  0.6037420000000  0.5465750000000 1.0
C      1  0.4869330000000  0.4891150000000  0.4185220000000 1.0
C      1  0.4809920000000  0.5355770000000  0.5334780000000 1.0
C      1  0.4952570000000  0.4523960000000  0.5883520000000 1.0
C      1  0.5304090000000  0.5095720000000  0.4714120000000 1.0
C      1  0.4829570000000  0.5304360000000  0.4661420000000 1.0
C      1  0.3976410000000  0.5086660000000  0.5060320000000 1.0
C      1  0.4348410000000  0.5728520000000  0.4615730000000 1.0
C      1  0.4247880000000  0.5729230000000  0.4864230000000 1.0
C      1  0.4431560000000  0.5377790000000  0.3753880000000 1.0
C      1  0.5622200000000  0.3712110000000  0.5075780000000 1.0
C      1  0.5321440000000  0.4150230000000  0.5237580000000 1.0
C      1  0.4916640000000  0.5892550000000  0.5388150000000 1.0
C      1  0.5203960000000  0.4886960000000  0.5686090000000 1.0
C      1  0.5345940000000  0.5335210000000  0.5412020000000 1.0
C      1  0.5027220000000  0.5654950000000  0.5243000000000 1.0
C      1  0.6033370000000  0.5777350000000  0.5319600000000 1.0
C      1  0.4751130000000  0.4193010000000  0.5595080000000 1.0
C      1  0.4986630000000  0.4066490000000  0.4878690000000 1.0
C      1  0.5092350000000  0.5860850000000  0.4187290000000 1.0
C      1  0.5492270000000  0.5763970000000  0.4439630000000 1.0
C      1  0.4462000000000  0.5154180000000  0.5025560000000 1.0
C      1  0.4401770000000  0.4482500000000  0.4528120000000 1.0
C      1  0.5486150000000  0.5639130000000  0.4697750000000 1.0
C      1  0.5193670000000  0.4592360000000  0.4779970000000 1.0
C      1  0.5346890000000  0.5083920000000  0.5251950000000 1.0
C      1  0.4311690000000  0.4980560000000  0.5763130000000 1.0
C      1  0.5111200000000  0.6069720000000  0.5490940000000 1.0
END
