TITL C-247197-3123-229 0.188058985217993 125000 -555.560080177964 0 0 92 (C1) n - 1
REM
REM in /home/nfs/bkarasulu/CARBON/AIRSS/Generating-Clusters/LCBOP/Only-C1/SD-CG/FIRE-HFTN
REM
REM
REM
REM
REM
REM ./C.cell (11c1c37f851c82e70ff6c80c92926a4b)
REM AIRSS Version 0.9.1 bugfix July 2018 build 013d7b7c2542+ Fri, 06 Jul 2018 19:26:36 +0100
REM compiler GCC version 9.2.1 20190827 (Red Hat 9.2.1-1)
REM options -cpp -mtune=generic -march=x86-64 -g -O0 -fpre-include=/usr/include/finclude/math-vector-fortran.h
REM seed -509749214 704696208 -1165784103 -596247922 621429079 1486899049 737954840 -1273654354 -265306193 1784573165 1467985107 2047679528 828078904 -505790695 1245813281 -315499317 -800613833 -621251024 -267433537 -474246196 1498928488 2100069193 -729732025 905559152 -124720273 -1066190822 -561621779 326155291 -1754791625 -1595817701 1998079409 -1002040666 633009646
REM
CELL 1.54180   50.00000   50.00000   50.00000   90.00000   90.00000   90.00000
LATT -1
SFAC C  
C      1  0.4230100000000  0.5111560000000  0.4670350000000 1.0
C      1  0.5565820000000  0.5189980000000  0.4131600000000 1.0
C      1  0.5022930000000  0.4398740000000  0.4526560000000 1.0
C      1  0.3977060000000  0.4641760000000  0.5001760000000 1.0
C      1  0.5407060000000  0.5593740000000  0.5275890000000 1.0
C      1  0.4361970000000  0.5921640000000  0.5496490000000 1.0
C      1  0.4545460000000  0.4410760000000  0.4626640000000 1.0
C      1  0.5035490000000  0.5277640000000  0.4514990000000 1.0
C      1  0.4717210000000  0.5684790000000  0.4613540000000 1.0
C      1  0.4389070000000  0.4899860000000  0.4560270000000 1.0
C      1  0.5566730000000  0.5562980000000  0.5038140000000 1.0
C      1  0.5069930000000  0.4606490000000  0.4714660000000 1.0
C      1  0.5806190000000  0.4687160000000  0.5188810000000 1.0
C      1  0.4131010000000  0.5937550000000  0.5367390000000 1.0
C      1  0.5496750000000  0.5371810000000  0.4579930000000 1.0
C      1  0.5391000000000  0.4059870000000  0.4711330000000 1.0
C      1  0.4703250000000  0.4534520000000  0.5033410000000 1.0
C      1  0.5831680000000  0.4415220000000  0.5129180000000 1.0
C      1  0.5497060000000  0.5347510000000  0.4864570000000 1.0
C      1  0.5069460000000  0.3899000000000  0.5096250000000 1.0
C      1  0.5259400000000  0.4889170000000  0.5647080000000 1.0
C      1  0.4871670000000  0.4583310000000  0.6154740000000 1.0
C      1  0.5937690000000  0.4951810000000  0.4741400000000 1.0
C      1  0.4611590000000  0.5007520000000  0.4413700000000 1.0
C      1  0.4442200000000  0.4512540000000  0.5421230000000 1.0
C      1  0.4932330000000  0.5757230000000  0.4797430000000 1.0
C      1  0.4816660000000  0.3853320000000  0.4961540000000 1.0
C      1  0.5900620000000  0.4860970000000  0.4988500000000 1.0
C      1  0.5107600000000  0.6096100000000  0.6075670000000 1.0
C      1  0.5031710000000  0.5360150000000  0.5671150000000 1.0
C      1  0.4751950000000  0.5736890000000  0.4326930000000 1.0
C      1  0.4870080000000  0.4478830000000  0.5916010000000 1.0
C      1  0.4625850000000  0.5222860000000  0.5287650000000 1.0
C      1  0.5006750000000  0.4063010000000  0.5329800000000 1.0
C      1  0.4334700000000  0.5356820000000  0.4724390000000 1.0
C      1  0.5806300000000  0.5026350000000  0.5536450000000 1.0
C      1  0.6242830000000  0.5458410000000  0.5239690000000 1.0
C      1  0.5429460000000  0.4698920000000  0.5524340000000 1.0
C      1  0.5659070000000  0.4136110000000  0.4737670000000 1.0
C      1  0.4255730000000  0.4643090000000  0.4952090000000 1.0
C      1  0.5003470000000  0.5613220000000  0.5550460000000 1.0
C      1  0.4960060000000  0.5745500000000  0.5078550000000 1.0
C      1  0.4380250000000  0.5268280000000  0.5376620000000 1.0
C      1  0.4630350000000  0.4059070000000  0.5034500000000 1.0
C      1  0.3922410000000  0.5059230000000  0.5310220000000 1.0
C      1  0.5211460000000  0.4188310000000  0.4534140000000 1.0
C      1  0.4703540000000  0.4109840000000  0.5316300000000 1.0
C      1  0.5654200000000  0.5256810000000  0.5591100000000 1.0
C      1  0.5812590000000  0.4240150000000  0.4929390000000 1.0
C      1  0.4457010000000  0.4615770000000  0.5157960000000 1.0
C      1  0.4683700000000  0.5229420000000  0.3964140000000 1.0
C      1  0.5528460000000  0.5475210000000  0.5503090000000 1.0
C      1  0.4762430000000  0.5213560000000  0.4550400000000 1.0
C      1  0.3869980000000  0.4843850000000  0.5163000000000 1.0
C      1  0.5650490000000  0.5215590000000  0.4399130000000 1.0
C      1  0.4119670000000  0.5218510000000  0.5391150000000 1.0
C      1  0.5326150000000  0.4436010000000  0.5498070000000 1.0
C      1  0.4604740000000  0.5036720000000  0.4133870000000 1.0
C      1  0.3814580000000  0.4442110000000  0.4894660000000 1.0
C      1  0.5183200000000  0.5733100000000  0.4669560000000 1.0
C      1  0.5855640000000  0.5063270000000  0.4513720000000 1.0
C      1  0.4626670000000  0.4314490000000  0.5507370000000 1.0
C      1  0.4599490000000  0.5879810000000  0.5606010000000 1.0
C      1  0.4851650000000  0.5135840000000  0.5179320000000 1.0
C      1  0.4369210000000  0.4641180000000  0.4677760000000 1.0
C      1  0.5384850000000  0.5215540000000  0.3935530000000 1.0
C      1  0.5683660000000  0.4790770000000  0.5425240000000 1.0
C      1  0.6084570000000  0.5067470000000  0.5516610000000 1.0
C      1  0.4898760000000  0.5409140000000  0.3944570000000 1.0
C      1  0.4942930000000  0.4648560000000  0.4948720000000 1.0
C      1  0.5119860000000  0.5110000000000  0.5700760000000 1.0
C      1  0.4599150000000  0.5429530000000  0.4659220000000 1.0
C      1  0.5289510000000  0.3911350000000  0.4927970000000 1.0
C      1  0.5099700000000  0.5098940000000  0.5092120000000 1.0
C      1  0.3672430000000  0.4251030000000  0.4788840000000 1.0
C      1  0.4861460000000  0.5820400000000  0.5682230000000 1.0
C      1  0.5204910000000  0.5633540000000  0.4222460000000 1.0
C      1  0.5334810000000  0.5147680000000  0.4978000000000 1.0
C      1  0.4694630000000  0.4343030000000  0.4162800000000 1.0
C      1  0.5126620000000  0.5663790000000  0.5294990000000 1.0
C      1  0.5144560000000  0.5299400000000  0.3848840000000 1.0
C      1  0.5099400000000  0.4269560000000  0.5513990000000 1.0
C      1  0.3906770000000  0.5936920000000  0.5234450000000 1.0
C      1  0.6080020000000  0.5619970000000  0.5102790000000 1.0
C      1  0.5827410000000  0.5666270000000  0.5029490000000 1.0
C      1  0.4865780000000  0.4368160000000  0.5662150000000 1.0
C      1  0.5247850000000  0.5503840000000  0.4487460000000 1.0
C      1  0.4933470000000  0.5628630000000  0.4129240000000 1.0
C      1  0.4621170000000  0.4294380000000  0.4880210000000 1.0
C      1  0.4985290000000  0.5965170000000  0.5886430000000 1.0
C      1  0.6248530000000  0.5243220000000  0.5398280000000 1.0
C      1  0.4751110000000  0.4382840000000  0.4426870000000 1.0
END
