TITL C-247195-3186-631 2.6840375870738 125000 -316.142239822927 0 0 55 (C1) n - 1
REM
REM in /home/nfs/bkarasulu/CARBON/AIRSS/Generating-Clusters/LCBOP/Only-C1/SD-CG/FIRE-HFTN
REM
REM
REM
REM
REM
REM ./C.cell (11c1c37f851c82e70ff6c80c92926a4b)
REM AIRSS Version 0.9.1 bugfix July 2018 build 013d7b7c2542+ Fri, 06 Jul 2018 19:26:36 +0100
REM compiler GCC version 9.2.1 20190827 (Red Hat 9.2.1-1)
REM options -cpp -mtune=generic -march=x86-64 -g -O0 -fpre-include=/usr/include/finclude/math-vector-fortran.h
REM seed 864240152 1997347149 1235112831 -180482721 1216233805 -1216580161 -1230067866 -1196666721 -455526833 -883089042 -490287428 1656465805 638589534 -1477185451 -624560029 -1938309503 224976618 21186446 683941876 762613370 -1447371917 -1140838987 10231375 -905492880 593961245 1632848986 -1483494185 -1229337518 1533868740 -362471079 1795928772 -1380728273 -1999712318
REM
CELL 1.54180   50.00000   50.00000   50.00000   90.00000   90.00000   90.00000
LATT -1
SFAC C  
C      1  0.5256440000000  0.6110330000000  0.5501820000000 1.0
C      1  0.4522720000000  0.5324320000000  0.5710560000000 1.0
C      1  0.4816930000000  0.4994050000000  0.4931770000000 1.0
C      1  0.5009890000000  0.4564880000000  0.4457510000000 1.0
C      1  0.5909240000000  0.4255380000000  0.5238480000000 1.0
C      1  0.5038150000000  0.5359700000000  0.5597320000000 1.0
C      1  0.4672550000000  0.5276120000000  0.5283390000000 1.0
C      1  0.4252860000000  0.3449060000000  0.4656190000000 1.0
C      1  0.6756650000000  0.4568000000000  0.5231540000000 1.0
C      1  0.4969840000000  0.4491140000000  0.4745830000000 1.0
C      1  0.6309490000000  0.4817060000000  0.5111470000000 1.0
C      1  0.4857740000000  0.5271520000000  0.5051560000000 1.0
C      1  0.4597130000000  0.5073220000000  0.4382560000000 1.0
C      1  0.4790940000000  0.5517510000000  0.4887480000000 1.0
C      1  0.5046910000000  0.5250330000000  0.4421680000000 1.0
C      1  0.5196060000000  0.5429650000000  0.5830080000000 1.0
C      1  0.5162730000000  0.6025910000000  0.5268700000000 1.0
C      1  0.5245610000000  0.5198240000000  0.4618410000000 1.0
C      1  0.5837790000000  0.5029430000000  0.4997270000000 1.0
C      1  0.4765690000000  0.5326110000000  0.5555840000000 1.0
C      1  0.5595160000000  0.5121690000000  0.4944680000000 1.0
C      1  0.5464340000000  0.5447760000000  0.5761190000000 1.0
C      1  0.4675300000000  0.5463320000000  0.4627710000000 1.0
C      1  0.4776730000000  0.4266910000000  0.4768440000000 1.0
C      1  0.5385290000000  0.6070160000000  0.4318340000000 1.0
C      1  0.5689260000000  0.4316810000000  0.5112790000000 1.0
C      1  0.4876420000000  0.5036410000000  0.4327720000000 1.0
C      1  0.4302360000000  0.5276300000000  0.5548920000000 1.0
C      1  0.4975100000000  0.4776440000000  0.4297720000000 1.0
C      1  0.4859430000000  0.4736680000000  0.4881590000000 1.0
C      1  0.4217530000000  0.5176960000000  0.5048520000000 1.0
C      1  0.3959220000000  0.5095110000000  0.5091780000000 1.0
C      1  0.5070560000000  0.5907990000000  0.5050160000000 1.0
C      1  0.4603550000000  0.4067630000000  0.4788220000000 1.0
C      1  0.5461840000000  0.4370780000000  0.4987800000000 1.0
C      1  0.6535780000000  0.4692890000000  0.5171700000000 1.0
C      1  0.5222300000000  0.5906470000000  0.4438960000000 1.0
C      1  0.4055400000000  0.3666900000000  0.5035530000000 1.0
C      1  0.5234650000000  0.5333670000000  0.5371770000000 1.0
C      1  0.5332670000000  0.5200470000000  0.4889140000000 1.0
C      1  0.5349220000000  0.6179770000000  0.5735340000000 1.0
C      1  0.4310390000000  0.5193070000000  0.4781880000000 1.0
C      1  0.4381000000000  0.5240570000000  0.5270810000000 1.0
C      1  0.3875480000000  0.3676490000000  0.5229800000000 1.0
C      1  0.5053830000000  0.5731690000000  0.4570910000000 1.0
C      1  0.4913900000000  0.5503350000000  0.4455000000000 1.0
C      1  0.5229770000000  0.4416630000000  0.4868880000000 1.0
C      1  0.4979700000000  0.5736900000000  0.4853350000000 1.0
C      1  0.3698540000000  0.3686130000000  0.5421010000000 1.0
C      1  0.5157440000000  0.5271860000000  0.5107510000000 1.0
C      1  0.6076710000000  0.4929640000000  0.5053520000000 1.0
C      1  0.4495970000000  0.5251140000000  0.4579580000000 1.0
C      1  0.4246250000000  0.3659050000000  0.4831330000000 1.0
C      1  0.4430260000000  0.3868310000000  0.4808200000000 1.0
C      1  0.5493310000000  0.5392080000000  0.5490710000000 1.0
END
