TITL C-247198-3593-290 0.386680448000732 125000 -365.340865753656 0 0 62 (C1) n - 1
REM
REM in /home/nfs/bkarasulu/CARBON/AIRSS/Generating-Clusters/LCBOP/Only-C1/SD-CG/FIRE-HFTN
REM
REM
REM
REM
REM
REM ./C.cell (11c1c37f851c82e70ff6c80c92926a4b)
REM AIRSS Version 0.9.1 bugfix July 2018 build 013d7b7c2542+ Fri, 06 Jul 2018 19:26:36 +0100
REM compiler GCC version 9.2.1 20190827 (Red Hat 9.2.1-1)
REM options -cpp -mtune=generic -march=x86-64 -g -O0 -fpre-include=/usr/include/finclude/math-vector-fortran.h
REM seed -1212573651 1725078679 1664000606 1806921848 -1195873970 -1629549795 -2040906220 -1569669244 354014646 -1831121468 659270893 1951099968 1010211830 1143901100 -2054770948 1802656950 -1484180280 564142785 411231771 1902376505 363280512 -1234207719 -417832296 -196993309 -1874498559 1223665298 -611077433 -173024337 -64594126 458034215 -872669049 844309688 1619509333
REM
CELL 1.54180   50.00000   50.00000   50.00000   90.00000   90.00000   90.00000
LATT -1
SFAC C  
C      1  0.5425060000000  0.4786150000000  0.4448360000000 1.0
C      1  0.4703310000000  0.4265840000000  0.4978130000000 1.0
C      1  0.4735120000000  0.4955350000000  0.3777050000000 1.0
C      1  0.5088940000000  0.6132860000000  0.5500500000000 1.0
C      1  0.4748410000000  0.4955410000000  0.5044520000000 1.0
C      1  0.5759860000000  0.3966830000000  0.5377970000000 1.0
C      1  0.4372820000000  0.5330700000000  0.5032840000000 1.0
C      1  0.4537810000000  0.5509680000000  0.4616500000000 1.0
C      1  0.5083230000000  0.5112770000000  0.5996160000000 1.0
C      1  0.5657060000000  0.5183560000000  0.4955860000000 1.0
C      1  0.5423050000000  0.5182060000000  0.5109350000000 1.0
C      1  0.4338950000000  0.4626380000000  0.4864930000000 1.0
C      1  0.5629590000000  0.4469960000000  0.5229790000000 1.0
C      1  0.4837910000000  0.4362280000000  0.5204530000000 1.0
C      1  0.4370160000000  0.4760590000000  0.5316810000000 1.0
C      1  0.4622710000000  0.5354310000000  0.5490680000000 1.0
C      1  0.5427410000000  0.4420640000000  0.4764550000000 1.0
C      1  0.5802780000000  0.4726080000000  0.4854820000000 1.0
C      1  0.4807860000000  0.5569880000000  0.5000940000000 1.0
C      1  0.5494820000000  0.5547330000000  0.5428200000000 1.0
C      1  0.5700990000000  0.4211230000000  0.5309300000000 1.0
C      1  0.5120120000000  0.4025280000000  0.4803390000000 1.0
C      1  0.5011890000000  0.4538510000000  0.4469840000000 1.0
C      1  0.4937240000000  0.5404600000000  0.4326370000000 1.0
C      1  0.5284580000000  0.4579010000000  0.4565820000000 1.0
C      1  0.4654360000000  0.4830140000000  0.4250630000000 1.0
C      1  0.5083190000000  0.5047420000000  0.6248440000000 1.0
C      1  0.5358600000000  0.4148400000000  0.4790490000000 1.0
C      1  0.5007190000000  0.5949520000000  0.5327540000000 1.0
C      1  0.4858050000000  0.5309120000000  0.5615500000000 1.0
C      1  0.4582490000000  0.4951320000000  0.4002050000000 1.0
C      1  0.5180290000000  0.4746480000000  0.5149330000000 1.0
C      1  0.5622830000000  0.4530050000000  0.4946910000000 1.0
C      1  0.4966390000000  0.5107440000000  0.4942790000000 1.0
C      1  0.4469680000000  0.5231960000000  0.5286460000000 1.0
C      1  0.4230700000000  0.4629940000000  0.5125930000000 1.0
C      1  0.4346170000000  0.4872620000000  0.4716610000000 1.0
C      1  0.5060530000000  0.4710990000000  0.4009350000000 1.0
C      1  0.5346230000000  0.6666050000000  0.6024720000000 1.0
C      1  0.5319090000000  0.5112180000000  0.5570980000000 1.0
C      1  0.4551370000000  0.4962520000000  0.5246900000000 1.0
C      1  0.4535370000000  0.4429070000000  0.4823940000000 1.0
C      1  0.4839170000000  0.4342560000000  0.4570160000000 1.0
C      1  0.4529760000000  0.5553150000000  0.4917100000000 1.0
C      1  0.5261230000000  0.6490400000000  0.5851840000000 1.0
C      1  0.4927480000000  0.5755670000000  0.5165590000000 1.0
C      1  0.5817960000000  0.4993430000000  0.4857330000000 1.0
C      1  0.5209970000000  0.5006810000000  0.5041430000000 1.0
C      1  0.4811710000000  0.5420170000000  0.4566560000000 1.0
C      1  0.5571620000000  0.4662400000000  0.5431560000000 1.0
C      1  0.5174830000000  0.6311800000000  0.5676060000000 1.0
C      1  0.4286410000000  0.5147860000000  0.4798600000000 1.0
C      1  0.5034150000000  0.4541550000000  0.5241060000000 1.0
C      1  0.5450990000000  0.4859780000000  0.5569910000000 1.0
C      1  0.4978420000000  0.4833520000000  0.3780930000000 1.0
C      1  0.4479050000000  0.4848110000000  0.4466790000000 1.0
C      1  0.4931490000000  0.5364880000000  0.4828450000000 1.0
C      1  0.4912870000000  0.4695870000000  0.4253560000000 1.0
C      1  0.4315360000000  0.5334660000000  0.4572010000000 1.0
C      1  0.5085920000000  0.5178530000000  0.5723950000000 1.0
C      1  0.5412450000000  0.5293970000000  0.5370730000000 1.0
C      1  0.4874980000000  0.4152370000000  0.4770610000000 1.0
END
