TITL C-247201-3759-441 -6.69040660175914e-07 125000 -431.816720071659 0 0 71 (C1) n - 1
REM
REM in /home/nfs/bkarasulu/CARBON/AIRSS/Generating-Clusters/LCBOP/Only-C1/SD-CG/FIRE-HFTN
REM
REM
REM
REM
REM
REM ./C.cell (11c1c37f851c82e70ff6c80c92926a4b)
REM AIRSS Version 0.9.1 bugfix July 2018 build 013d7b7c2542+ Fri, 06 Jul 2018 19:26:36 +0100
REM compiler GCC version 9.2.1 20190827 (Red Hat 9.2.1-1)
REM options -cpp -mtune=generic -march=x86-64 -g -O0 -fpre-include=/usr/include/finclude/math-vector-fortran.h
REM seed -2098801289 1597355696 1547059290 -288521290 169015187 515014342 -740676159 -1318703910 859591013 -1599038941 871943644 -648741613 -311600572 -1575524174 1666395928 -1689506691 297078610 -1644025573 -1538286951 -356344518 -1501917572 349090188 -1891470274 1471303781 128361386 1610299232 -1022870692 -1877190762 -228197803 -1545175366 623403873 1350630680 -1159695661
REM
CELL 1.54180   50.00000   50.00000   50.00000   90.00000   90.00000   90.00000
LATT -1
SFAC C  
C      1  0.4802540000000  0.4200880000000  0.4993950000000 1.0
C      1  0.4306830000000  0.4665350000000  0.4668000000000 1.0
C      1  0.4696670000000  0.5686620000000  0.4979410000000 1.0
C      1  0.5574300000000  0.5541330000000  0.4596640000000 1.0
C      1  0.4144210000000  0.4965040000000  0.4320250000000 1.0
C      1  0.4791590000000  0.4795560000000  0.5582070000000 1.0
C      1  0.5249770000000  0.4248830000000  0.5235740000000 1.0
C      1  0.5214930000000  0.4297420000000  0.4738510000000 1.0
C      1  0.4613660000000  0.5504750000000  0.5704450000000 1.0
C      1  0.4591410000000  0.5561070000000  0.5221180000000 1.0
C      1  0.4419000000000  0.5413710000000  0.5863030000000 1.0
C      1  0.5549430000000  0.4571520000000  0.4495150000000 1.0
C      1  0.4734520000000  0.5468670000000  0.5453310000000 1.0
C      1  0.4737780000000  0.4725000000000  0.5329530000000 1.0
C      1  0.5613180000000  0.4894530000000  0.4919390000000 1.0
C      1  0.4587630000000  0.4719440000000  0.4591160000000 1.0
C      1  0.5192810000000  0.4956830000000  0.5161480000000 1.0
C      1  0.5140060000000  0.4508120000000  0.5701000000000 1.0
C      1  0.5519230000000  0.4804520000000  0.5531990000000 1.0
C      1  0.5732560000000  0.5150390000000  0.4867670000000 1.0
C      1  0.5754890000000  0.4674840000000  0.5028800000000 1.0
C      1  0.4550770000000  0.5586590000000  0.4745500000000 1.0
C      1  0.5328380000000  0.4908190000000  0.4921350000000 1.0
C      1  0.4687870000000  0.4640990000000  0.4339520000000 1.0
C      1  0.5170020000000  0.4326590000000  0.5498980000000 1.0
C      1  0.5202890000000  0.5006150000000  0.4683780000000 1.0
C      1  0.5425230000000  0.5064070000000  0.4504760000000 1.0
C      1  0.4286750000000  0.5148080000000  0.4765270000000 1.0
C      1  0.5056960000000  0.4314930000000  0.4504980000000 1.0
C      1  0.4882170000000  0.5639190000000  0.4343280000000 1.0
C      1  0.4325850000000  0.5477430000000  0.5128040000000 1.0
C      1  0.5529690000000  0.4822390000000  0.4391900000000 1.0
C      1  0.5721150000000  0.5204480000000  0.5376100000000 1.0
C      1  0.4875700000000  0.5891900000000  0.4975680000000 1.0
C      1  0.4346460000000  0.4443570000000  0.4853890000000 1.0
C      1  0.4307780000000  0.4882060000000  0.4120430000000 1.0
C      1  0.4226510000000  0.5228110000000  0.5852820000000 1.0
C      1  0.4972890000000  0.5310660000000  0.5439240000000 1.0
C      1  0.5396910000000  0.5632840000000  0.4399580000000 1.0
C      1  0.4342350000000  0.4963300000000  0.5206340000000 1.0
C      1  0.5146120000000  0.5657120000000  0.4313070000000 1.0
C      1  0.5758990000000  0.4925580000000  0.5448170000000 1.0
C      1  0.4540810000000  0.4743690000000  0.4121030000000 1.0
C      1  0.5472950000000  0.5355300000000  0.5448780000000 1.0
C      1  0.5173170000000  0.5026020000000  0.5775640000000 1.0
C      1  0.5407170000000  0.5539870000000  0.5222980000000 1.0
C      1  0.5057750000000  0.5209980000000  0.5180390000000 1.0
C      1  0.5483100000000  0.4407650000000  0.4719410000000 1.0
C      1  0.4606790000000  0.4405140000000  0.4983190000000 1.0
C      1  0.4180470000000  0.4929820000000  0.4600140000000 1.0
C      1  0.4197570000000  0.4957900000000  0.5429250000000 1.0
C      1  0.4925310000000  0.5017780000000  0.4712880000000 1.0
C      1  0.5218350000000  0.5259160000000  0.5604170000000 1.0
C      1  0.5574730000000  0.5715820000000  0.5080010000000 1.0
C      1  0.4699490000000  0.4867900000000  0.4838230000000 1.0
C      1  0.5612660000000  0.5260080000000  0.4626160000000 1.0
C      1  0.4320110000000  0.5425990000000  0.4833440000000 1.0
C      1  0.5298690000000  0.4814470000000  0.5376700000000 1.0
C      1  0.4142770000000  0.5047730000000  0.5674110000000 1.0
C      1  0.4663080000000  0.5608270000000  0.4491660000000 1.0
C      1  0.5635240000000  0.4423450000000  0.4966170000000 1.0
C      1  0.5087760000000  0.4227220000000  0.4994140000000 1.0
C      1  0.4461750000000  0.5018290000000  0.4957000000000 1.0
C      1  0.5826190000000  0.5267580000000  0.5110920000000 1.0
C      1  0.5528440000000  0.4266560000000  0.5176440000000 1.0
C      1  0.4725990000000  0.4658280000000  0.5057150000000 1.0
C      1  0.5637250000000  0.5708550000000  0.4816900000000 1.0
C      1  0.4893020000000  0.4451100000000  0.4343660000000 1.0
C      1  0.5030300000000  0.4773460000000  0.5734210000000 1.0
C      1  0.5193140000000  0.5432650000000  0.5065230000000 1.0
C      1  0.5897560000000  0.4751620000000  0.5264640000000 1.0
END
