TITL C-247197-3123-651 6.18628303434222e-07 125000 -220.880652346695 0 0 36 (C1) n - 1
REM
REM in /home/nfs/bkarasulu/CARBON/AIRSS/Generating-Clusters/LCBOP/Only-C1/SD-CG/FIRE-HFTN
REM
REM
REM
REM
REM
REM ./C.cell (11c1c37f851c82e70ff6c80c92926a4b)
REM AIRSS Version 0.9.1 bugfix July 2018 build 013d7b7c2542+ Fri, 06 Jul 2018 19:26:36 +0100
REM compiler GCC version 9.2.1 20190827 (Red Hat 9.2.1-1)
REM options -cpp -mtune=generic -march=x86-64 -g -O0 -fpre-include=/usr/include/finclude/math-vector-fortran.h
REM seed 1594810031 -1603729722 901272282 88876668 2078659479 1695464667 -707103993 1874374836 -811479935 1764383720 -2113735638 517412787 2006616152 -580656000 2059359846 1058776176 -357316471 -1537336032 244181590 1904326777 1076028601 1348529979 -315398477 -269033843 -81120496 -1930271895 867592140 1684928775 -802255167 917134727 93074982 -1736971283 -293133651
REM
CELL 1.54180   50.00000   50.00000   50.00000   90.00000   90.00000   90.00000
LATT -1
SFAC C  
C      1  0.5312240000000  0.5730670000000  0.4355520000000 1.0
C      1  0.4705300000000  0.4292790000000  0.5201360000000 1.0
C      1  0.4115880000000  0.5012910000000  0.5398360000000 1.0
C      1  0.4388530000000  0.4903610000000  0.5010250000000 1.0
C      1  0.5355200000000  0.4707360000000  0.4947280000000 1.0
C      1  0.5137300000000  0.4389690000000  0.4558020000000 1.0
C      1  0.4826730000000  0.4255100000000  0.4962470000000 1.0
C      1  0.5075750000000  0.4654260000000  0.4939580000000 1.0
C      1  0.4620050000000  0.4492270000000  0.5384760000000 1.0
C      1  0.5464950000000  0.4732150000000  0.4688740000000 1.0
C      1  0.4253950000000  0.4823540000000  0.5245840000000 1.0
C      1  0.4998990000000  0.4413990000000  0.4806150000000 1.0
C      1  0.4931620000000  0.4888090000000  0.5326930000000 1.0
C      1  0.5451420000000  0.5016310000000  0.4315160000000 1.0
C      1  0.5281240000000  0.5828500000000  0.4601810000000 1.0
C      1  0.5454520000000  0.4850520000000  0.5168320000000 1.0
C      1  0.5289770000000  0.5772500000000  0.4862830000000 1.0
C      1  0.5522360000000  0.5002160000000  0.4597010000000 1.0
C      1  0.5336840000000  0.4574030000000  0.4471910000000 1.0
C      1  0.4146500000000  0.5222100000000  0.5560830000000 1.0
C      1  0.5356590000000  0.4751770000000  0.4244060000000 1.0
C      1  0.4315860000000  0.5388010000000  0.5682410000000 1.0
C      1  0.5340460000000  0.5575220000000  0.5036140000000 1.0
C      1  0.5365880000000  0.5519120000000  0.4202330000000 1.0
C      1  0.4353690000000  0.4587150000000  0.5366000000000 1.0
C      1  0.5351340000000  0.5109070000000  0.5231710000000 1.0
C      1  0.4809900000000  0.4684570000000  0.5482610000000 1.0
C      1  0.4646070000000  0.4911530000000  0.4933650000000 1.0
C      1  0.5416400000000  0.5305950000000  0.5033340000000 1.0
C      1  0.5028210000000  0.5302560000000  0.5565020000000 1.0
C      1  0.4828100000000  0.5431440000000  0.5684290000000 1.0
C      1  0.5527020000000  0.5206940000000  0.4788880000000 1.0
C      1  0.4892750000000  0.4839170000000  0.5046120000000 1.0
C      1  0.5111220000000  0.5102670000000  0.5389290000000 1.0
C      1  0.5420100000000  0.5258770000000  0.4183780000000 1.0
C      1  0.4567290000000  0.5463530000000  0.5727260000000 1.0
END
