TITL C-247199-3331-3 -5.01300448987433e-07 125000 -473.820381306677 0 0 79 (C1) n - 1
REM
REM in /home/nfs/bkarasulu/CARBON/AIRSS/Generating-Clusters/LCBOP/Only-C1/SD-CG/FIRE-HFTN
REM
REM
REM
REM
REM
REM ./C.cell (11c1c37f851c82e70ff6c80c92926a4b)
REM AIRSS Version 0.9.1 bugfix July 2018 build 013d7b7c2542+ Fri, 06 Jul 2018 19:26:36 +0100
REM compiler GCC version 9.2.1 20190827 (Red Hat 9.2.1-1)
REM options -cpp -mtune=generic -march=x86-64 -g -O0 -fpre-include=/usr/include/finclude/math-vector-fortran.h
REM seed 1311497486 -1707698926 -1262819865 914875259 -1158146091 -607922870 -782396412 -800458470 1701578900 1753246578 2038223831 -1434234215 248255613 -544588736 821825370 544228643 -463310525 1824580021 -483220972 -1306988851 -143721863 -615438725 -1934699734 1358101780 697388481 -198733687 575782740 693333981 1598833838 1901168028 -1455378421 1798323606 1214986193
REM
CELL 1.54180   50.00000   50.00000   50.00000   90.00000   90.00000   90.00000
LATT -1
SFAC C  
C      1  0.5507060000000  0.5738200000000  0.4954330000000 1.0
C      1  0.4732330000000  0.5308040000000  0.4680000000000 1.0
C      1  0.4061530000000  0.4915080000000  0.5137950000000 1.0
C      1  0.4447010000000  0.5308290000000  0.4731380000000 1.0
C      1  0.4244150000000  0.4879910000000  0.4932010000000 1.0
C      1  0.4864680000000  0.4820780000000  0.4802770000000 1.0
C      1  0.4839530000000  0.4308820000000  0.5418340000000 1.0
C      1  0.5337800000000  0.5064470000000  0.5078780000000 1.0
C      1  0.5864340000000  0.5384890000000  0.4844870000000 1.0
C      1  0.6047670000000  0.4889560000000  0.5007480000000 1.0
C      1  0.4368880000000  0.4616350000000  0.4904060000000 1.0
C      1  0.5397240000000  0.4679390000000  0.4508790000000 1.0
C      1  0.4665980000000  0.4519290000000  0.4489120000000 1.0
C      1  0.5439940000000  0.4889560000000  0.5279290000000 1.0
C      1  0.5051370000000  0.4891830000000  0.3935530000000 1.0
C      1  0.5257110000000  0.5848000000000  0.4862910000000 1.0
C      1  0.5318000000000  0.5802500000000  0.5415520000000 1.0
C      1  0.4802930000000  0.5099710000000  0.5198540000000 1.0
C      1  0.4498640000000  0.4861930000000  0.4234160000000 1.0
C      1  0.5370100000000  0.4221260000000  0.5383120000000 1.0
C      1  0.4442340000000  0.4437880000000  0.5121750000000 1.0
C      1  0.5014200000000  0.5747790000000  0.4788870000000 1.0
C      1  0.5526910000000  0.5702060000000  0.5245590000000 1.0
C      1  0.5293580000000  0.5071150000000  0.4804170000000 1.0
C      1  0.4717510000000  0.4669250000000  0.4238840000000 1.0
C      1  0.5049220000000  0.4663010000000  0.5201710000000 1.0
C      1  0.4776450000000  0.5332470000000  0.5747780000000 1.0
C      1  0.4963000000000  0.5478800000000  0.4716660000000 1.0
C      1  0.5135540000000  0.4458710000000  0.5023070000000 1.0
C      1  0.5240110000000  0.4737260000000  0.5399180000000 1.0
C      1  0.5753070000000  0.5226250000000  0.5403400000000 1.0
C      1  0.5461280000000  0.5161500000000  0.4136650000000 1.0
C      1  0.4635330000000  0.5755800000000  0.5532340000000 1.0
C      1  0.4904150000000  0.4896190000000  0.3699200000000 1.0
C      1  0.5709940000000  0.4946650000000  0.5344390000000 1.0
C      1  0.5101620000000  0.5682820000000  0.5528150000000 1.0
C      1  0.4322130000000  0.5511180000000  0.4878670000000 1.0
C      1  0.4222490000000  0.5585860000000  0.5114590000000 1.0
C      1  0.4494210000000  0.4921980000000  0.5643650000000 1.0
C      1  0.6267210000000  0.4758920000000  0.4908990000000 1.0
C      1  0.5571530000000  0.5427090000000  0.5315440000000 1.0
C      1  0.4187690000000  0.5526800000000  0.5372700000000 1.0
C      1  0.5329860000000  0.5309510000000  0.5213670000000 1.0
C      1  0.4345940000000  0.4864670000000  0.4479380000000 1.0
C      1  0.5883580000000  0.4765650000000  0.5208710000000 1.0
C      1  0.4503230000000  0.4633540000000  0.5594590000000 1.0
C      1  0.5521910000000  0.5179140000000  0.4410190000000 1.0
C      1  0.4820510000000  0.5042210000000  0.4640310000000 1.0
C      1  0.5791430000000  0.4491400000000  0.5216020000000 1.0
C      1  0.4069890000000  0.4931300000000  0.5404300000000 1.0
C      1  0.4758380000000  0.4898180000000  0.3483180000000 1.0
C      1  0.4338960000000  0.4181020000000  0.5098060000000 1.0
C      1  0.5638690000000  0.5544080000000  0.4771280000000 1.0
C      1  0.4603910000000  0.4479960000000  0.5366590000000 1.0
C      1  0.5089220000000  0.4758780000000  0.5895890000000 1.0
C      1  0.5208230000000  0.4625750000000  0.4304700000000 1.0
C      1  0.4516240000000  0.5985800000000  0.5561920000000 1.0
C      1  0.4700290000000  0.5061180000000  0.5791630000000 1.0
C      1  0.4394390000000  0.4479000000000  0.5797980000000 1.0
C      1  0.4834860000000  0.5533840000000  0.5527200000000 1.0
C      1  0.5463980000000  0.5419720000000  0.4575380000000 1.0
C      1  0.5274110000000  0.5061290000000  0.3973150000000 1.0
C      1  0.4865400000000  0.4564950000000  0.4682270000000 1.0
C      1  0.4411180000000  0.4596630000000  0.4611820000000 1.0
C      1  0.5400190000000  0.4394440000000  0.4946290000000 1.0
C      1  0.5552840000000  0.4334440000000  0.5183440000000 1.0
C      1  0.4229380000000  0.5343070000000  0.5563460000000 1.0
C      1  0.4257150000000  0.5063180000000  0.5567550000000 1.0
C      1  0.5210240000000  0.5334240000000  0.4700550000000 1.0
C      1  0.4308960000000  0.5052060000000  0.4701970000000 1.0
C      1  0.5223250000000  0.4699150000000  0.5673600000000 1.0
C      1  0.5098640000000  0.4217110000000  0.5439120000000 1.0
C      1  0.5478290000000  0.4478810000000  0.4690780000000 1.0
C      1  0.4986010000000  0.4712090000000  0.4148880000000 1.0
C      1  0.5438890000000  0.4950440000000  0.4581290000000 1.0
C      1  0.4809640000000  0.5352480000000  0.5286380000000 1.0
C      1  0.4872750000000  0.4905730000000  0.5950310000000 1.0
C      1  0.4882310000000  0.4857090000000  0.5082530000000 1.0
C      1  0.5981460000000  0.5150760000000  0.4910930000000 1.0
END
