TITL C-247196-3112-152 0.0057645419429773 125000 -955.743789843516 0 0 156 (C1) n - 1
REM
REM in /home/nfs/bkarasulu/CARBON/AIRSS/Generating-Clusters/LCBOP/Only-C1/SD-CG/FIRE-HFTN
REM
REM
REM
REM
REM
REM ./C.cell (11c1c37f851c82e70ff6c80c92926a4b)
REM AIRSS Version 0.9.1 bugfix July 2018 build 013d7b7c2542+ Fri, 06 Jul 2018 19:26:36 +0100
REM compiler GCC version 9.2.1 20190827 (Red Hat 9.2.1-1)
REM options -cpp -mtune=generic -march=x86-64 -g -O0 -fpre-include=/usr/include/finclude/math-vector-fortran.h
REM seed 319222930 -944508677 20847229 -639505439 1590277714 2096467186 994083271 653342825 -193721146 284325394 52921984 -1166808671 -547098840 -92801333 -537253582 -1498997571 2064782160 -571153113 -1145095903 2100224134 -1048318383 248050512 760745051 1753142391 -223015991 -573709699 -1582930954 1909243236 -853166790 -1983595210 -1842963378 -440897162 1322694493
REM
CELL 1.54180   50.00000   50.00000   50.00000   90.00000   90.00000   90.00000
LATT -1
SFAC C  
C      1  0.5172300000000  0.4659280000000  0.6263370000000 1.0
C      1  0.5426090000000  0.4587660000000  0.4721100000000 1.0
C      1  0.3750680000000  0.4673730000000  0.5079560000000 1.0
C      1  0.5013990000000  0.5113120000000  0.4226620000000 1.0
C      1  0.4653450000000  0.4849340000000  0.5059760000000 1.0
C      1  0.5998170000000  0.5381870000000  0.5023720000000 1.0
C      1  0.5227710000000  0.4709280000000  0.3958880000000 1.0
C      1  0.4240220000000  0.4682800000000  0.5231140000000 1.0
C      1  0.5222660000000  0.4163610000000  0.5411870000000 1.0
C      1  0.4224180000000  0.5218200000000  0.3483440000000 1.0
C      1  0.4251060000000  0.5654830000000  0.5913350000000 1.0
C      1  0.5909020000000  0.5424950000000  0.5543320000000 1.0
C      1  0.5098530000000  0.5223490000000  0.4887000000000 1.0
C      1  0.6096970000000  0.4716180000000  0.5783610000000 1.0
C      1  0.4635170000000  0.4040020000000  0.4858600000000 1.0
C      1  0.5643390000000  0.4023050000000  0.4946060000000 1.0
C      1  0.5046360000000  0.4759220000000  0.5685820000000 1.0
C      1  0.5253080000000  0.4172680000000  0.4691660000000 1.0
C      1  0.4949000000000  0.5366110000000  0.3811640000000 1.0
C      1  0.4768810000000  0.4686430000000  0.5267900000000 1.0
C      1  0.3803640000000  0.4769710000000  0.5331580000000 1.0
C      1  0.4819630000000  0.5369920000000  0.5836710000000 1.0
C      1  0.4969930000000  0.4804880000000  0.5419610000000 1.0
C      1  0.4320270000000  0.5267610000000  0.5350470000000 1.0
C      1  0.5086000000000  0.6185710000000  0.4910520000000 1.0
C      1  0.5915580000000  0.4263530000000  0.5262870000000 1.0
C      1  0.5030980000000  0.6427110000000  0.4794110000000 1.0
C      1  0.4896260000000  0.6125830000000  0.4100820000000 1.0
C      1  0.4769580000000  0.5532330000000  0.5178110000000 1.0
C      1  0.4510920000000  0.4440460000000  0.5992840000000 1.0
C      1  0.5476220000000  0.5029560000000  0.4235620000000 1.0
C      1  0.4532640000000  0.5962050000000  0.5260510000000 1.0
C      1  0.5970510000000  0.4825250000000  0.5563150000000 1.0
C      1  0.5214730000000  0.5692890000000  0.4893050000000 1.0
C      1  0.5420110000000  0.4310240000000  0.5262490000000 1.0
C      1  0.5661000000000  0.4178670000000  0.5181800000000 1.0
C      1  0.5215380000000  0.5844820000000  0.5533020000000 1.0
C      1  0.4218950000000  0.5515730000000  0.4622600000000 1.0
C      1  0.4726450000000  0.4957700000000  0.4596270000000 1.0
C      1  0.5642300000000  0.4405510000000  0.4655040000000 1.0
C      1  0.5660700000000  0.5608750000000  0.4704480000000 1.0
C      1  0.5183170000000  0.4451160000000  0.4749210000000 1.0
C      1  0.5041290000000  0.3976750000000  0.5283200000000 1.0
C      1  0.4485830000000  0.6039890000000  0.5724550000000 1.0
C      1  0.5442460000000  0.5807850000000  0.5371290000000 1.0
C      1  0.5581320000000  0.4531550000000  0.4227850000000 1.0
C      1  0.5794540000000  0.4520890000000  0.4439910000000 1.0
C      1  0.5053410000000  0.5249710000000  0.5930880000000 1.0
C      1  0.5952070000000  0.5650360000000  0.4333810000000 1.0
C      1  0.4680650000000  0.4968930000000  0.3912790000000 1.0
C      1  0.4506800000000  0.5789480000000  0.5846430000000 1.0
C      1  0.5440120000000  0.5515700000000  0.5835360000000 1.0
C      1  0.5903250000000  0.4988610000000  0.4844770000000 1.0
C      1  0.5057340000000  0.4332240000000  0.4225360000000 1.0
C      1  0.4998240000000  0.5943210000000  0.5368850000000 1.0
C      1  0.4360210000000  0.4219110000000  0.5271700000000 1.0
C      1  0.5056520000000  0.3836780000000  0.5037140000000 1.0
C      1  0.5358300000000  0.4850250000000  0.6235540000000 1.0
C      1  0.3973710000000  0.4878780000000  0.4693150000000 1.0
C      1  0.5192330000000  0.4815700000000  0.5234200000000 1.0
C      1  0.5632330000000  0.5013640000000  0.4865460000000 1.0
C      1  0.4081960000000  0.5401590000000  0.5258840000000 1.0
C      1  0.4869240000000  0.4198230000000  0.4422670000000 1.0
C      1  0.3970730000000  0.5378050000000  0.4598300000000 1.0
C      1  0.5685940000000  0.4873880000000  0.5534290000000 1.0
C      1  0.5030070000000  0.4030640000000  0.4600340000000 1.0
C      1  0.4890170000000  0.4243280000000  0.5773800000000 1.0
C      1  0.4437260000000  0.6104380000000  0.5468230000000 1.0
C      1  0.5466460000000  0.4771940000000  0.4110820000000 1.0
C      1  0.4072400000000  0.4814890000000  0.5416310000000 1.0
C      1  0.4587010000000  0.5529760000000  0.6221310000000 1.0
C      1  0.4138310000000  0.4433240000000  0.4850970000000 1.0
C      1  0.3918570000000  0.5333390000000  0.3899130000000 1.0
C      1  0.4966740000000  0.4504270000000  0.6189400000000 1.0
C      1  0.5073780000000  0.6067850000000  0.4282580000000 1.0
C      1  0.6142460000000  0.5199580000000  0.4518080000000 1.0
C      1  0.4885080000000  0.4916110000000  0.4375670000000 1.0
C      1  0.4426180000000  0.4243300000000  0.5557670000000 1.0
C      1  0.4418450000000  0.5158360000000  0.3313410000000 1.0
C      1  0.4521080000000  0.5148000000000  0.4552480000000 1.0
C      1  0.3541510000000  0.5568380000000  0.4487260000000 1.0
C      1  0.5474200000000  0.4855200000000  0.4704560000000 1.0
C      1  0.4052850000000  0.5633710000000  0.5715100000000 1.0
C      1  0.5163170000000  0.5958240000000  0.4752480000000 1.0
C      1  0.4845670000000  0.5031880000000  0.3034540000000 1.0
C      1  0.4056070000000  0.5274690000000  0.3680340000000 1.0
C      1  0.5528020000000  0.5942360000000  0.4405370000000 1.0
C      1  0.4325390000000  0.4389230000000  0.4620360000000 1.0
C      1  0.5392320000000  0.4598790000000  0.5282730000000 1.0
C      1  0.4863540000000  0.4462340000000  0.5111030000000 1.0
C      1  0.4765360000000  0.5803270000000  0.5274360000000 1.0
C      1  0.5446310000000  0.5077950000000  0.6122120000000 1.0
C      1  0.6130100000000  0.4707670000000  0.5113750000000 1.0
C      1  0.5010870000000  0.5772330000000  0.5970150000000 1.0
C      1  0.5331310000000  0.5280790000000  0.5965030000000 1.0
C      1  0.5539290000000  0.4139700000000  0.4714070000000 1.0
C      1  0.5361610000000  0.4321870000000  0.4243260000000 1.0
C      1  0.5257240000000  0.5993960000000  0.4480270000000 1.0
C      1  0.5653620000000  0.5094160000000  0.5333410000000 1.0
C      1  0.6039780000000  0.4738680000000  0.4835800000000 1.0
C      1  0.5490200000000  0.4669010000000  0.5555190000000 1.0
C      1  0.4987820000000  0.5483610000000  0.4987300000000 1.0
C      1  0.5154690000000  0.4294910000000  0.5667050000000 1.0
C      1  0.4381670000000  0.4866260000000  0.5072860000000 1.0
C      1  0.3943040000000  0.5262090000000  0.5053000000000 1.0
C      1  0.6108490000000  0.5432260000000  0.4362300000000 1.0
C      1  0.5236230000000  0.5731420000000  0.5794370000000 1.0
C      1  0.4781660000000  0.4793260000000  0.4812310000000 1.0
C      1  0.4308860000000  0.5046150000000  0.4395760000000 1.0
C      1  0.4152190000000  0.4827770000000  0.4473370000000 1.0
C      1  0.6023370000000  0.4681810000000  0.4538340000000 1.0
C      1  0.6300810000000  0.4485360000000  0.6214810000000 1.0
C      1  0.6398700000000  0.4371270000000  0.6427810000000 1.0
C      1  0.5249380000000  0.5281990000000  0.4627900000000 1.0
C      1  0.4341790000000  0.4384100000000  0.5786590000000 1.0
C      1  0.4276990000000  0.4575870000000  0.4403090000000 1.0
C      1  0.4790590000000  0.4386340000000  0.6004670000000 1.0
C      1  0.3821050000000  0.5392230000000  0.4138310000000 1.0
C      1  0.4891400000000  0.3905430000000  0.4812980000000 1.0
C      1  0.5833640000000  0.5591320000000  0.4929190000000 1.0
C      1  0.5410330000000  0.5742880000000  0.5115980000000 1.0
C      1  0.5390000000000  0.5522120000000  0.4706060000000 1.0
C      1  0.4213080000000  0.5044940000000  0.5511920000000 1.0
C      1  0.4767890000000  0.4010470000000  0.5348460000000 1.0
C      1  0.4230870000000  0.4419880000000  0.5125520000000 1.0
C      1  0.4630860000000  0.5094910000000  0.3168120000000 1.0
C      1  0.5507440000000  0.5103040000000  0.5098490000000 1.0
C      1  0.5941950000000  0.5229630000000  0.5302040000000 1.0
C      1  0.6069920000000  0.5211790000000  0.4799710000000 1.0
C      1  0.4563630000000  0.4058650000000  0.5137380000000 1.0
C      1  0.6101540000000  0.4926960000000  0.5319440000000 1.0
C      1  0.6107840000000  0.4443610000000  0.5215020000000 1.0
C      1  0.4743530000000  0.5632020000000  0.5976560000000 1.0
C      1  0.4409260000000  0.4586380000000  0.4151740000000 1.0
C      1  0.5065830000000  0.6155690000000  0.5190780000000 1.0
C      1  0.4530150000000  0.4754990000000  0.3978730000000 1.0
C      1  0.4885150000000  0.5158630000000  0.3976320000000 1.0
C      1  0.4695270000000  0.4133060000000  0.5593430000000 1.0
C      1  0.4469180000000  0.5411050000000  0.4637090000000 1.0
C      1  0.4941980000000  0.4549550000000  0.4845460000000 1.0
C      1  0.5229030000000  0.5056420000000  0.5085460000000 1.0
C      1  0.6200890000000  0.4601410000000  0.5998470000000 1.0
C      1  0.4598470000000  0.5352450000000  0.5342760000000 1.0
C      1  0.5025160000000  0.4533710000000  0.4021360000000 1.0
C      1  0.4312530000000  0.5527760000000  0.6166380000000 1.0
C      1  0.3917850000000  0.4640920000000  0.4847130000000 1.0
C      1  0.4720590000000  0.5296340000000  0.5590500000000 1.0
C      1  0.6128970000000  0.4926340000000  0.4411120000000 1.0
C      1  0.5261920000000  0.5179870000000  0.4353710000000 1.0
C      1  0.5703100000000  0.5501650000000  0.5711010000000 1.0
C      1  0.5262420000000  0.4569450000000  0.5714370000000 1.0
C      1  0.3936890000000  0.5159800000000  0.4785770000000 1.0
C      1  0.5729420000000  0.5755120000000  0.4470270000000 1.0
C      1  0.3984070000000  0.5577340000000  0.5459190000000 1.0
C      1  0.3773860000000  0.5447640000000  0.4408310000000 1.0
C      1  0.4569920000000  0.4220400000000  0.4622940000000 1.0
END
