TITL C-247197-3123-669 -1.27579342735061e-06 125000 -984.086513112201 0 0 162 (C1) n - 1
REM
REM in /home/nfs/bkarasulu/CARBON/AIRSS/Generating-Clusters/LCBOP/Only-C1/SD-CG/FIRE-HFTN
REM
REM
REM
REM
REM
REM ./C.cell (11c1c37f851c82e70ff6c80c92926a4b)
REM AIRSS Version 0.9.1 bugfix July 2018 build 013d7b7c2542+ Fri, 06 Jul 2018 19:26:36 +0100
REM compiler GCC version 9.2.1 20190827 (Red Hat 9.2.1-1)
REM options -cpp -mtune=generic -march=x86-64 -g -O0 -fpre-include=/usr/include/finclude/math-vector-fortran.h
REM seed 975321530 -988637656 1921529839 -1408327553 2103754639 -580319727 -1809245372 172693870 512174619 -1881628243 1433187380 1161599149 1387127706 857656015 1661106407 -1872636113 468011135 -444730406 681921550 -1185950926 -1625514429 1036651239 1996286478 -1850704600 737133813 1300846245 -480051633 2051376017 -1545927667 2119870615 331843511 658812382 1595327289
REM
CELL 1.54180   50.00000   50.00000   50.00000   90.00000   90.00000   90.00000
LATT -1
SFAC C  
C      1  0.3941400000000  0.5147600000000  0.4918360000000 1.0
C      1  0.3970540000000  0.4571680000000  0.4879290000000 1.0
C      1  0.4660790000000  0.5964020000000  0.5038910000000 1.0
C      1  0.5906920000000  0.5738540000000  0.5541680000000 1.0
C      1  0.5476510000000  0.5365800000000  0.4794910000000 1.0
C      1  0.5535370000000  0.4635760000000  0.4115190000000 1.0
C      1  0.5429600000000  0.5930580000000  0.5865480000000 1.0
C      1  0.5606670000000  0.5346560000000  0.4539900000000 1.0
C      1  0.4592740000000  0.4686110000000  0.5653230000000 1.0
C      1  0.4770760000000  0.3355810000000  0.5009750000000 1.0
C      1  0.5943780000000  0.4934040000000  0.5183160000000 1.0
C      1  0.5080860000000  0.4002410000000  0.4744910000000 1.0
C      1  0.4337370000000  0.5793940000000  0.4664230000000 1.0
C      1  0.5442220000000  0.5146700000000  0.4977980000000 1.0
C      1  0.4643780000000  0.3876390000000  0.4917860000000 1.0
C      1  0.5207760000000  0.4251910000000  0.4167290000000 1.0
C      1  0.4832890000000  0.4827310000000  0.5641180000000 1.0
C      1  0.5904210000000  0.5801200000000  0.5263860000000 1.0
C      1  0.4409090000000  0.4200440000000  0.5444440000000 1.0
C      1  0.4045120000000  0.4545990000000  0.4351900000000 1.0
C      1  0.4717160000000  0.4976530000000  0.5232290000000 1.0
C      1  0.5778600000000  0.5112460000000  0.5932250000000 1.0
C      1  0.4839200000000  0.5552870000000  0.4040120000000 1.0
C      1  0.4384250000000  0.4509220000000  0.3257400000000 1.0
C      1  0.5627090000000  0.5007160000000  0.3857210000000 1.0
C      1  0.4093630000000  0.4367330000000  0.5061510000000 1.0
C      1  0.5989980000000  0.4220460000000  0.4669280000000 1.0
C      1  0.5577700000000  0.4883350000000  0.5567470000000 1.0
C      1  0.5006280000000  0.3926640000000  0.4471560000000 1.0
C      1  0.4419470000000  0.5838960000000  0.4933340000000 1.0
C      1  0.5807290000000  0.4726410000000  0.4167350000000 1.0
C      1  0.4198060000000  0.4993970000000  0.5712480000000 1.0
C      1  0.4816950000000  0.5634900000000  0.5570180000000 1.0
C      1  0.5477130000000  0.5740700000000  0.4275470000000 1.0
C      1  0.4338480000000  0.5199250000000  0.5882840000000 1.0
C      1  0.5907000000000  0.4317670000000  0.4415870000000 1.0
C      1  0.5382580000000  0.4017850000000  0.4719070000000 1.0
C      1  0.4196560000000  0.5939730000000  0.4056290000000 1.0
C      1  0.4178860000000  0.4131470000000  0.4924350000000 1.0
C      1  0.5171940000000  0.5858450000000  0.5417360000000 1.0
C      1  0.4840740000000  0.3107910000000  0.5049830000000 1.0
C      1  0.4187350000000  0.4494440000000  0.5801600000000 1.0
C      1  0.5243730000000  0.5211560000000  0.5560080000000 1.0
C      1  0.4640880000000  0.4549730000000  0.4969630000000 1.0
C      1  0.4999700000000  0.5456640000000  0.5154290000000 1.0
C      1  0.3886230000000  0.5362400000000  0.5396020000000 1.0
C      1  0.5132760000000  0.5787500000000  0.4842740000000 1.0
C      1  0.5432760000000  0.4796890000000  0.3895660000000 1.0
C      1  0.5444860000000  0.5315880000000  0.6279970000000 1.0
C      1  0.5367430000000  0.4855190000000  0.6051120000000 1.0
C      1  0.4342660000000  0.5740740000000  0.5707180000000 1.0
C      1  0.5655060000000  0.4194240000000  0.4325870000000 1.0
C      1  0.4386330000000  0.4803100000000  0.4054400000000 1.0
C      1  0.4608410000000  0.4559320000000  0.4690970000000 1.0
C      1  0.4323540000000  0.5379720000000  0.5132100000000 1.0
C      1  0.4186050000000  0.4362970000000  0.5339850000000 1.0
C      1  0.5249120000000  0.4655900000000  0.4759440000000 1.0
C      1  0.4379260000000  0.3961650000000  0.4879400000000 1.0
C      1  0.4855600000000  0.4073480000000  0.4915030000000 1.0
C      1  0.5589200000000  0.4907920000000  0.5855800000000 1.0
C      1  0.5585930000000  0.6129380000000  0.4960400000000 1.0
C      1  0.5160740000000  0.4644060000000  0.6061480000000 1.0
C      1  0.3793990000000  0.5278490000000  0.5153420000000 1.0
C      1  0.5935400000000  0.5192010000000  0.4219240000000 1.0
C      1  0.5046300000000  0.4336270000000  0.3957790000000 1.0
C      1  0.4686660000000  0.4439800000000  0.6002440000000 1.0
C      1  0.5355220000000  0.5062470000000  0.6249370000000 1.0
C      1  0.5260120000000  0.6146980000000  0.4528410000000 1.0
C      1  0.3875150000000  0.4845480000000  0.4903390000000 1.0
C      1  0.4478990000000  0.5366580000000  0.4603470000000 1.0
C      1  0.5075560000000  0.4489600000000  0.5400070000000 1.0
C      1  0.4646970000000  0.5968190000000  0.5330980000000 1.0
C      1  0.5314470000000  0.4664750000000  0.5038330000000 1.0
C      1  0.5718800000000  0.4702120000000  0.4798460000000 1.0
C      1  0.6106820000000  0.5375560000000  0.5022110000000 1.0
C      1  0.4598460000000  0.4506690000000  0.3405950000000 1.0
C      1  0.5388870000000  0.5985330000000  0.4335490000000 1.0
C      1  0.5208440000000  0.4727260000000  0.3749100000000 1.0
C      1  0.4863290000000  0.4664990000000  0.6107630000000 1.0
C      1  0.4810750000000  0.4508290000000  0.3564460000000 1.0
C      1  0.5893810000000  0.4385760000000  0.5127920000000 1.0
C      1  0.4484040000000  0.5935900000000  0.4455380000000 1.0
C      1  0.4858650000000  0.4322410000000  0.5342670000000 1.0
C      1  0.4401100000000  0.5807080000000  0.5418760000000 1.0
C      1  0.4632670000000  0.5719390000000  0.4051900000000 1.0
C      1  0.5585280000000  0.5507170000000  0.6124690000000 1.0
C      1  0.4246970000000  0.5470080000000  0.5784300000000 1.0
C      1  0.4379580000000  0.5300640000000  0.5400640000000 1.0
C      1  0.4457880000000  0.4543630000000  0.5862140000000 1.0
C      1  0.5232750000000  0.5597800000000  0.5286400000000 1.0
C      1  0.5758180000000  0.4272270000000  0.5346290000000 1.0
C      1  0.4432820000000  0.5865310000000  0.4183250000000 1.0
C      1  0.5299740000000  0.4455950000000  0.5235000000000 1.0
C      1  0.5781720000000  0.5396930000000  0.5944480000000 1.0
C      1  0.5057130000000  0.5430640000000  0.5963150000000 1.0
C      1  0.4650060000000  0.4486150000000  0.4444350000000 1.0
C      1  0.5293390000000  0.4933830000000  0.5452360000000 1.0
C      1  0.5072640000000  0.4742310000000  0.5525380000000 1.0
C      1  0.4606990000000  0.5112820000000  0.5948660000000 1.0
C      1  0.4717220000000  0.6098660000000  0.4495390000000 1.0
C      1  0.5764040000000  0.5037340000000  0.5389530000000 1.0
C      1  0.5240970000000  0.5329970000000  0.4200590000000 1.0
C      1  0.5475560000000  0.3972850000000  0.4427410000000 1.0
C      1  0.5415530000000  0.6200150000000  0.4762840000000 1.0
C      1  0.4887550000000  0.5894140000000  0.5471200000000 1.0
C      1  0.5212050000000  0.3987660000000  0.4284370000000 1.0
C      1  0.4976370000000  0.6177540000000  0.4503930000000 1.0
C      1  0.4108590000000  0.4559090000000  0.5530740000000 1.0
C      1  0.5742310000000  0.5996840000000  0.5135810000000 1.0
C      1  0.4235130000000  0.5516800000000  0.4618330000000 1.0
C      1  0.4979330000000  0.5317270000000  0.4100220000000 1.0
C      1  0.5030580000000  0.5101130000000  0.4784520000000 1.0
C      1  0.4000330000000  0.5359030000000  0.4693550000000 1.0
C      1  0.5401720000000  0.5408210000000  0.5421970000000 1.0
C      1  0.4544920000000  0.4774390000000  0.5126900000000 1.0
C      1  0.5491030000000  0.4284330000000  0.5344180000000 1.0
C      1  0.3971010000000  0.6006700000000  0.3944230000000 1.0
C      1  0.5345230000000  0.5962960000000  0.5613510000000 1.0
C      1  0.5805410000000  0.4269740000000  0.4878750000000 1.0
C      1  0.4836570000000  0.5078000000000  0.4072950000000 1.0
C      1  0.4786420000000  0.5114620000000  0.5701770000000 1.0
C      1  0.4700570000000  0.5410450000000  0.4748330000000 1.0
C      1  0.5992670000000  0.4651670000000  0.5166140000000 1.0
C      1  0.4280310000000  0.4885500000000  0.5192990000000 1.0
C      1  0.4620180000000  0.4928060000000  0.4036740000000 1.0
C      1  0.5496850000000  0.5767620000000  0.6067030000000 1.0
C      1  0.4683540000000  0.4216770000000  0.5544090000000 1.0
C      1  0.5666110000000  0.5311450000000  0.5371120000000 1.0
C      1  0.5391820000000  0.4468850000000  0.4607380000000 1.0
C      1  0.5456630000000  0.5463710000000  0.4322270000000 1.0
C      1  0.4701810000000  0.3608160000000  0.4967900000000 1.0
C      1  0.4219630000000  0.5127740000000  0.5035450000000 1.0
C      1  0.4164720000000  0.4834400000000  0.5466300000000 1.0
C      1  0.5042820000000  0.5255740000000  0.5753790000000 1.0
C      1  0.5863920000000  0.5230380000000  0.4492070000000 1.0
C      1  0.4719940000000  0.4919770000000  0.6136080000000 1.0
C      1  0.5917610000000  0.4775210000000  0.4626320000000 1.0
C      1  0.4796900000000  0.4231260000000  0.5821710000000 1.0
C      1  0.4131260000000  0.5383470000000  0.5534590000000 1.0
C      1  0.4921380000000  0.5331410000000  0.4901200000000 1.0
C      1  0.5432860000000  0.4419320000000  0.4293550000000 1.0
C      1  0.5096170000000  0.4870030000000  0.4669830000000 1.0
C      1  0.5525600000000  0.4262240000000  0.4784960000000 1.0
C      1  0.5845030000000  0.4989620000000  0.4047650000000 1.0
C      1  0.5347460000000  0.4931100000000  0.5146850000000 1.0
C      1  0.5072790000000  0.4185970000000  0.5877230000000 1.0
C      1  0.5933780000000  0.4610480000000  0.4389840000000 1.0
C      1  0.4184060000000  0.4666270000000  0.4159600000000 1.0
C      1  0.4659420000000  0.5197750000000  0.5433350000000 1.0
C      1  0.5334580000000  0.5610470000000  0.4827940000000 1.0
C      1  0.5898860000000  0.5571420000000  0.5753430000000 1.0
C      1  0.5982630000000  0.5048120000000  0.4681080000000 1.0
C      1  0.4320770000000  0.5672870000000  0.5151870000000 1.0
C      1  0.6028790000000  0.5111740000000  0.4962100000000 1.0
C      1  0.4788300000000  0.4315550000000  0.5065870000000 1.0
C      1  0.5015710000000  0.4523320000000  0.3751390000000 1.0
C      1  0.4815010000000  0.5436380000000  0.5371230000000 1.0
C      1  0.3977710000000  0.4494780000000  0.4604220000000 1.0
C      1  0.6052340000000  0.5623840000000  0.5101820000000 1.0
C      1  0.5234640000000  0.4377660000000  0.5983600000000 1.0
C      1  0.4369420000000  0.5935020000000  0.5900170000000 1.0
C      1  0.4912970000000  0.5921350000000  0.4920360000000 1.0
END
