TITL C-247200-3482-252 0.00109207312260914 125000 -273.778864932971 0 0 45 (C1) n - 1
REM
REM in /home/nfs/bkarasulu/CARBON/AIRSS/Generating-Clusters/LCBOP/Only-C1/SD-CG/FIRE-HFTN
REM
REM
REM
REM
REM
REM ./C.cell (11c1c37f851c82e70ff6c80c92926a4b)
REM AIRSS Version 0.9.1 bugfix July 2018 build 013d7b7c2542+ Fri, 06 Jul 2018 19:26:36 +0100
REM compiler GCC version 9.2.1 20190827 (Red Hat 9.2.1-1)
REM options -cpp -mtune=generic -march=x86-64 -g -O0 -fpre-include=/usr/include/finclude/math-vector-fortran.h
REM seed -1739897084 -639570116 1700352494 -1985159397 -2010283059 747997199 1411300839 2123106854 506847094 325842980 -1096267609 528730628 -856026087 -273779161 -1420121308 -1171727690 951257896 1532985045 -296284070 -2121560083 -1327566433 -1233917269 997138721 1101110291 1037833144 958519832 1622309027 -1076334344 -1185614954 -342854149 680988467 1781839738 1950021302
REM
CELL 1.54180   50.00000   50.00000   50.00000   90.00000   90.00000   90.00000
LATT -1
SFAC C  
C      1  0.4388380000000  0.4367920000000  0.5329270000000 1.0
C      1  0.5702200000000  0.5264540000000  0.5139380000000 1.0
C      1  0.4502010000000  0.4712190000000  0.4411050000000 1.0
C      1  0.5584920000000  0.4955870000000  0.4496660000000 1.0
C      1  0.5256690000000  0.5080820000000  0.4169740000000 1.0
C      1  0.5323480000000  0.4997210000000  0.4428510000000 1.0
C      1  0.6240620000000  0.5141660000000  0.5272880000000 1.0
C      1  0.5106480000000  0.5259750000000  0.5438970000000 1.0
C      1  0.4574380000000  0.4446400000000  0.5524680000000 1.0
C      1  0.4234760000000  0.4940260000000  0.5345060000000 1.0
C      1  0.4363480000000  0.4375100000000  0.5063600000000 1.0
C      1  0.5433850000000  0.5312800000000  0.5067920000000 1.0
C      1  0.5365710000000  0.5508270000000  0.4879070000000 1.0
C      1  0.5224000000000  0.5172730000000  0.5194940000000 1.0
C      1  0.5146210000000  0.4470340000000  0.5321890000000 1.0
C      1  0.4675460000000  0.4915590000000  0.4824610000000 1.0
C      1  0.4891610000000  0.4831840000000  0.5518020000000 1.0
C      1  0.5853290000000  0.5448200000000  0.5304330000000 1.0
C      1  0.4676720000000  0.5551600000000  0.4872900000000 1.0
C      1  0.4556840000000  0.5392630000000  0.5324860000000 1.0
C      1  0.4962630000000  0.4928590000000  0.4846580000000 1.0
C      1  0.4550240000000  0.4697500000000  0.4685560000000 1.0
C      1  0.4851450000000  0.5022240000000  0.3870270000000 1.0
C      1  0.4787990000000  0.4266550000000  0.5574860000000 1.0
C      1  0.6097540000000  0.4968370000000  0.5119120000000 1.0
C      1  0.4610740000000  0.5199010000000  0.5524320000000 1.0
C      1  0.4263510000000  0.4992450000000  0.5080760000000 1.0
C      1  0.4446250000000  0.4953380000000  0.5531860000000 1.0
C      1  0.5118000000000  0.4950810000000  0.4613720000000 1.0
C      1  0.4444690000000  0.4485430000000  0.4835490000000 1.0
C      1  0.5102540000000  0.4929710000000  0.5096710000000 1.0
C      1  0.5092270000000  0.5091220000000  0.3961070000000 1.0
C      1  0.5839810000000  0.5029120000000  0.5056690000000 1.0
C      1  0.4495130000000  0.5098210000000  0.4952760000000 1.0
C      1  0.6121810000000  0.5370390000000  0.5359960000000 1.0
C      1  0.4897100000000  0.5655770000000  0.4765870000000 1.0
C      1  0.4624090000000  0.4723510000000  0.5561520000000 1.0
C      1  0.4627420000000  0.4900960000000  0.3948600000000 1.0
C      1  0.5057710000000  0.4736050000000  0.5303140000000 1.0
C      1  0.5033550000000  0.4268490000000  0.5461750000000 1.0
C      1  0.5163150000000  0.5639330000000  0.4765970000000 1.0
C      1  0.4507990000000  0.4784630000000  0.4155880000000 1.0
C      1  0.5747120000000  0.5679870000000  0.5402230000000 1.0
C      1  0.4889190000000  0.5122590000000  0.5554550000000 1.0
C      1  0.4566980000000  0.5360120000000  0.5042430000000 1.0
END
