TITL C-247199-3331-124 2312.96430984609 125000 -506.120671867332 0 0 84 (C1) n - 1
REM
REM in /home/nfs/bkarasulu/CARBON/AIRSS/Generating-Clusters/LCBOP/Only-C1/SD-CG/FIRE-HFTN
REM
REM
REM
REM
REM
REM ./C.cell (11c1c37f851c82e70ff6c80c92926a4b)
REM AIRSS Version 0.9.1 bugfix July 2018 build 013d7b7c2542+ Fri, 06 Jul 2018 19:26:36 +0100
REM compiler GCC version 9.2.1 20190827 (Red Hat 9.2.1-1)
REM options -cpp -mtune=generic -march=x86-64 -g -O0 -fpre-include=/usr/include/finclude/math-vector-fortran.h
REM seed -1439560411 -61386593 -1136256089 918944817 1258216783 1195912061 -1799242341 -1859964187 -333852362 432416054 -770715912 -1715881288 1798009043 1951692465 159863110 1078894124 755305355 -1494878435 -653521281 1577388757 -1986164883 -1125686555 387453022 1449617865 165791557 -398714524 -1835673896 -94886977 322506021 -2145469314 1247569824 -885431189 -1427900651
REM
CELL 1.54180   50.00000   50.00000   50.00000   90.00000   90.00000   90.00000
LATT -1
SFAC C  
C      1  0.4250200000000  0.4399190000000  0.4710130000000 1.0
C      1  0.4351460000000  0.4300150000000  0.5468450000000 1.0
C      1  0.5269590000000  0.4487800000000  0.5624000000000 1.0
C      1  0.5778180000000  0.5994270000000  0.5521700000000 1.0
C      1  0.5205170000000  0.4947060000000  0.5463030000000 1.0
C      1  0.5302220000000  0.4764640000000  0.5664820000000 1.0
C      1  0.5743190000000  0.4993480000000  0.4908550000000 1.0
C      1  0.4317590000000  0.4526280000000  0.5623530000000 1.0
C      1  0.4916110000000  0.4952690000000  0.5436200000000 1.0
C      1  0.5385970000000  0.5106150000000  0.4245800000000 1.0
C      1  0.4533640000000  0.5304450000000  0.5027230000000 1.0
C      1  0.5232380000000  0.5659710000000  0.4775620000000 1.0
C      1  0.5668860000000  0.5073730000000  0.4646100000000 1.0
C      1  0.5224470000000  0.5107820000000  0.4781200000000 1.0
C      1  0.5227100000000  0.4287480000000  0.5450070000000 1.0
C      1  0.5146330000000  0.5551750000000  0.4512370000000 1.0
C      1  0.4190630000000  0.4886580000000  0.4611330000000 1.0
C      1  0.4187730000000  0.5195090000000  0.4579640000000 1.0
C      1  0.4429370000000  0.5908680000000  0.4885160000000 1.0
C      1  0.4713690000000  0.4147730000000  0.5166230000000 1.0
C      1  0.4904300000000  0.4681480000000  0.5007550000000 1.0
C      1  0.5611670000000  0.5765150000000  0.5450030000000 1.0
C      1  0.6236880000000  0.4340710000000  0.4613090000000 1.0
C      1  0.4798620000000  0.4756220000000  0.4742600000000 1.0
C      1  0.5277500000000  0.5337600000000  0.5157660000000 1.0
C      1  0.5335550000000  0.5349520000000  0.4411990000000 1.0
C      1  0.4102660000000  0.5340960000000  0.4831440000000 1.0
C      1  0.5780030000000  0.4508450000000  0.5349090000000 1.0
C      1  0.4444000000000  0.4236250000000  0.5199520000000 1.0
C      1  0.4868320000000  0.5549210000000  0.4445130000000 1.0
C      1  0.4746520000000  0.5101740000000  0.5623000000000 1.0
C      1  0.5769240000000  0.6155960000000  0.5280760000000 1.0
C      1  0.4285790000000  0.4618380000000  0.4509950000000 1.0
C      1  0.4954240000000  0.4125470000000  0.4756070000000 1.0
C      1  0.4458450000000  0.5064080000000  0.5605860000000 1.0
C      1  0.4394160000000  0.5349890000000  0.4442860000000 1.0
C      1  0.5613810000000  0.6035650000000  0.5085060000000 1.0
C      1  0.4806230000000  0.5319420000000  0.4977580000000 1.0
C      1  0.6038750000000  0.6087410000000  0.5980900000000 1.0
C      1  0.4952890000000  0.4819070000000  0.4277380000000 1.0
C      1  0.4344390000000  0.5925390000000  0.5140320000000 1.0
C      1  0.5010500000000  0.4753700000000  0.4546430000000 1.0
C      1  0.4684950000000  0.4752590000000  0.4204350000000 1.0
C      1  0.4683870000000  0.5006060000000  0.4747760000000 1.0
C      1  0.5717460000000  0.4486160000000  0.4571020000000 1.0
C      1  0.5388750000000  0.5090270000000  0.5282080000000 1.0
C      1  0.4393610000000  0.4790810000000  0.5539420000000 1.0
C      1  0.5213040000000  0.4259220000000  0.5167190000000 1.0
C      1  0.5271310000000  0.5077090000000  0.6058990000000 1.0
C      1  0.5985830000000  0.4406260000000  0.4588840000000 1.0
C      1  0.4503980000000  0.4740710000000  0.5277870000000 1.0
C      1  0.4316170000000  0.4668730000000  0.5078250000000 1.0
C      1  0.5505170000000  0.5782780000000  0.5178090000000 1.0
C      1  0.5910720000000  0.6042840000000  0.5758320000000 1.0
C      1  0.4499270000000  0.5777000000000  0.4661750000000 1.0
C      1  0.4318180000000  0.4398100000000  0.4990160000000 1.0
C      1  0.4784500000000  0.4777690000000  0.5245090000000 1.0
C      1  0.4859280000000  0.5240550000000  0.5839010000000 1.0
C      1  0.5069590000000  0.5243790000000  0.4976420000000 1.0
C      1  0.4512490000000  0.4564400000000  0.4334000000000 1.0
C      1  0.5442450000000  0.5247930000000  0.4664320000000 1.0
C      1  0.4641170000000  0.4312400000000  0.4381830000000 1.0
C      1  0.5343240000000  0.5600540000000  0.5043130000000 1.0
C      1  0.5185570000000  0.4668420000000  0.4952150000000 1.0
C      1  0.4268600000000  0.5404350000000  0.5065140000000 1.0
C      1  0.4471910000000  0.5054930000000  0.4904300000000 1.0
C      1  0.5225210000000  0.4833550000000  0.4720310000000 1.0
C      1  0.5373660000000  0.4876330000000  0.5912620000000 1.0
C      1  0.4586900000000  0.5559790000000  0.4498270000000 1.0
C      1  0.5539770000000  0.4392210000000  0.4771900000000 1.0
C      1  0.4232700000000  0.5489840000000  0.5334820000000 1.0
C      1  0.5055710000000  0.5232490000000  0.6020620000000 1.0
C      1  0.4262680000000  0.4871240000000  0.4897280000000 1.0
C      1  0.5591450000000  0.4631190000000  0.5193770000000 1.0
C      1  0.4296870000000  0.5291360000000  0.5533160000000 1.0
C      1  0.5618430000000  0.4551000000000  0.4102470000000 1.0
C      1  0.5390450000000  0.4466110000000  0.5022440000000 1.0
C      1  0.5608310000000  0.4943250000000  0.4385590000000 1.0
C      1  0.5646340000000  0.4660990000000  0.4352730000000 1.0
C      1  0.4257770000000  0.5772020000000  0.5347430000000 1.0
C      1  0.5594170000000  0.4919410000000  0.5145370000000 1.0
C      1  0.4969930000000  0.4157860000000  0.5037500000000 1.0
C      1  0.5155720000000  0.4967890000000  0.4146560000000 1.0
C      1  0.4814450000000  0.4173430000000  0.4532320000000 1.0
END
