TITL C-247197-3123-343 0.00669159516509183 125000 -422.28065645186 0 0 71 (C1) n - 1
REM
REM in /home/nfs/bkarasulu/CARBON/AIRSS/Generating-Clusters/LCBOP/Only-C1/SD-CG/FIRE-HFTN
REM
REM
REM
REM
REM
REM ./C.cell (11c1c37f851c82e70ff6c80c92926a4b)
REM AIRSS Version 0.9.1 bugfix July 2018 build 013d7b7c2542+ Fri, 06 Jul 2018 19:26:36 +0100
REM compiler GCC version 9.2.1 20190827 (Red Hat 9.2.1-1)
REM options -cpp -mtune=generic -march=x86-64 -g -O0 -fpre-include=/usr/include/finclude/math-vector-fortran.h
REM seed 472257685 621746446 -1228631610 1388784374 367022564 364092939 1438126481 -459534575 1747657856 245033565 1332332509 856723972 600617418 -1440396743 -539436814 -1373427770 -1907631858 876444738 -1480735988 983244931 1800809810 2017374740 1774141306 -922290016 -2077664803 -1865373610 857275914 -981972633 -1568597172 -1040670693 -741690793 1225051886 486187750
REM
CELL 1.54180   50.00000   50.00000   50.00000   90.00000   90.00000   90.00000
LATT -1
SFAC C  
C      1  0.4564970000000  0.4288250000000  0.5434930000000 1.0
C      1  0.5400120000000  0.5886650000000  0.5148420000000 1.0
C      1  0.5099540000000  0.5161100000000  0.4588520000000 1.0
C      1  0.4576410000000  0.5747190000000  0.4876400000000 1.0
C      1  0.5320190000000  0.5246120000000  0.5444690000000 1.0
C      1  0.5664540000000  0.5555530000000  0.4924490000000 1.0
C      1  0.5189530000000  0.4158490000000  0.5105220000000 1.0
C      1  0.4370030000000  0.4466250000000  0.5404900000000 1.0
C      1  0.5198610000000  0.6327540000000  0.5132280000000 1.0
C      1  0.4920700000000  0.4866570000000  0.4995730000000 1.0
C      1  0.5442480000000  0.5195830000000  0.5167100000000 1.0
C      1  0.4842810000000  0.5151450000000  0.5557540000000 1.0
C      1  0.4774390000000  0.6192100000000  0.4903910000000 1.0
C      1  0.5349870000000  0.5507260000000  0.5554570000000 1.0
C      1  0.5227840000000  0.5676100000000  0.4721060000000 1.0
C      1  0.5158400000000  0.5093910000000  0.4319050000000 1.0
C      1  0.4268060000000  0.5439130000000  0.5201670000000 1.0
C      1  0.4899110000000  0.4454960000000  0.4056770000000 1.0
C      1  0.5376880000000  0.5541570000000  0.5829970000000 1.0
C      1  0.5210400000000  0.4334840000000  0.4400780000000 1.0
C      1  0.3754550000000  0.5605610000000  0.5272980000000 1.0
C      1  0.5398000000000  0.5569290000000  0.6088230000000 1.0
C      1  0.5376430000000  0.4897750000000  0.5105750000000 1.0
C      1  0.5476930000000  0.4693530000000  0.4609040000000 1.0
C      1  0.5751080000000  0.4651160000000  0.4593380000000 1.0
C      1  0.4585800000000  0.4164750000000  0.4556970000000 1.0
C      1  0.5290160000000  0.4161720000000  0.4607270000000 1.0
C      1  0.4948990000000  0.4055140000000  0.5246450000000 1.0
C      1  0.4669410000000  0.4758750000000  0.4941400000000 1.0
C      1  0.5137990000000  0.4814160000000  0.4259960000000 1.0
C      1  0.5671020000000  0.6282530000000  0.5215720000000 1.0
C      1  0.5296220000000  0.4611430000000  0.4399780000000 1.0
C      1  0.3507970000000  0.5682660000000  0.5307960000000 1.0
C      1  0.5230100000000  0.5277860000000  0.4131080000000 1.0
C      1  0.4361920000000  0.5216860000000  0.5351840000000 1.0
C      1  0.5212720000000  0.4327060000000  0.5704100000000 1.0
C      1  0.5225500000000  0.5328990000000  0.5001230000000 1.0
C      1  0.4957060000000  0.4209000000000  0.5715330000000 1.0
C      1  0.4977920000000  0.4261210000000  0.4247670000000 1.0
C      1  0.4774240000000  0.4112440000000  0.4373180000000 1.0
C      1  0.5010000000000  0.5845620000000  0.4673370000000 1.0
C      1  0.5084660000000  0.4931580000000  0.4763090000000 1.0
C      1  0.5020510000000  0.3814750000000  0.4854240000000 1.0
C      1  0.5941500000000  0.5212110000000  0.5144530000000 1.0
C      1  0.5381270000000  0.4302390000000  0.5248770000000 1.0
C      1  0.4005020000000  0.5526890000000  0.5237520000000 1.0
C      1  0.5354050000000  0.4823940000000  0.4826050000000 1.0
C      1  0.4847060000000  0.4127040000000  0.5951450000000 1.0
C      1  0.4595280000000  0.5233920000000  0.5506140000000 1.0
C      1  0.4434720000000  0.5574030000000  0.5020410000000 1.0
C      1  0.4516500000000  0.4795330000000  0.4481820000000 1.0
C      1  0.4772330000000  0.5931860000000  0.4798630000000 1.0
C      1  0.5207850000000  0.4035850000000  0.4840530000000 1.0
C      1  0.4238660000000  0.4965090000000  0.5339190000000 1.0
C      1  0.4891750000000  0.4724600000000  0.4141640000000 1.0
C      1  0.5448680000000  0.5743480000000  0.4902520000000 1.0
C      1  0.4950320000000  0.6343140000000  0.5036770000000 1.0
C      1  0.4867730000000  0.3829790000000  0.5084440000000 1.0
C      1  0.5098060000000  0.4880800000000  0.5231160000000 1.0
C      1  0.4819580000000  0.4175260000000  0.5466170000000 1.0
C      1  0.6009050000000  0.4614580000000  0.4589220000000 1.0
C      1  0.5698680000000  0.5318250000000  0.5080120000000 1.0
C      1  0.4651150000000  0.4823170000000  0.4251080000000 1.0
C      1  0.4529710000000  0.4648230000000  0.4723080000000 1.0
C      1  0.5427200000000  0.6169090000000  0.5166480000000 1.0
C      1  0.4492270000000  0.4369910000000  0.4701830000000 1.0
C      1  0.5086450000000  0.5069330000000  0.5450900000000 1.0
C      1  0.4250120000000  0.4700770000000  0.5368220000000 1.0
C      1  0.5165500000000  0.5395590000000  0.4733160000000 1.0
C      1  0.5392230000000  0.4369400000000  0.5508870000000 1.0
C      1  0.5353190000000  0.5731470000000  0.5381310000000 1.0
END
