TITL C-247199-3331-614 0.00643884248256685 125000 -1004.57610292916 0 0 163 (C1) n - 1
REM
REM in /home/nfs/bkarasulu/CARBON/AIRSS/Generating-Clusters/LCBOP/Only-C1/SD-CG/FIRE-HFTN
REM
REM
REM
REM
REM
REM ./C.cell (11c1c37f851c82e70ff6c80c92926a4b)
REM AIRSS Version 0.9.1 bugfix July 2018 build 013d7b7c2542+ Fri, 06 Jul 2018 19:26:36 +0100
REM compiler GCC version 9.2.1 20190827 (Red Hat 9.2.1-1)
REM options -cpp -mtune=generic -march=x86-64 -g -O0 -fpre-include=/usr/include/finclude/math-vector-fortran.h
REM seed 36831439 -1157286160 2107906554 -948744502 -1484742657 291309941 -1453151309 -1300522100 1675973741 -1955065987 1569910539 -233906163 1027959354 1004725477 1829447912 1890373201 -1528879449 -582610980 167727413 1396362841 795950958 -1365776091 764647556 530078052 1803678042 -1836079447 336663702 1115526486 1395080768 -1861978458 1666368790 -1082240452 1861723018
REM
CELL 1.54180   50.00000   50.00000   50.00000   90.00000   90.00000   90.00000
LATT -1
SFAC C  
C      1  0.5318730000000  0.4669990000000  0.5766580000000 1.0
C      1  0.5998770000000  0.4500780000000  0.5022240000000 1.0
C      1  0.5701580000000  0.6110910000000  0.4325800000000 1.0
C      1  0.4338350000000  0.5455180000000  0.4014290000000 1.0
C      1  0.5676450000000  0.3356110000000  0.5098060000000 1.0
C      1  0.5529380000000  0.5305810000000  0.5705010000000 1.0
C      1  0.4402120000000  0.5125260000000  0.6064870000000 1.0
C      1  0.5668050000000  0.5328550000000  0.4946730000000 1.0
C      1  0.5300590000000  0.5347310000000  0.5899850000000 1.0
C      1  0.4996730000000  0.5172210000000  0.4351650000000 1.0
C      1  0.4876370000000  0.4631760000000  0.5579750000000 1.0
C      1  0.4891340000000  0.6038250000000  0.5078610000000 1.0
C      1  0.5798210000000  0.4962330000000  0.4343180000000 1.0
C      1  0.4205950000000  0.4278150000000  0.5276120000000 1.0
C      1  0.4650130000000  0.4503080000000  0.4304370000000 1.0
C      1  0.4766420000000  0.4722770000000  0.4446650000000 1.0
C      1  0.5411610000000  0.4837430000000  0.4620210000000 1.0
C      1  0.5095670000000  0.6289250000000  0.4724360000000 1.0
C      1  0.4376640000000  0.5198350000000  0.4116810000000 1.0
C      1  0.5883610000000  0.3905980000000  0.4688170000000 1.0
C      1  0.4084030000000  0.4790620000000  0.4893080000000 1.0
C      1  0.4956680000000  0.4575000000000  0.5034750000000 1.0
C      1  0.5229160000000  0.4664890000000  0.4466990000000 1.0
C      1  0.3982200000000  0.5790190000000  0.5506620000000 1.0
C      1  0.6092050000000  0.3504700000000  0.4527780000000 1.0
C      1  0.4897280000000  0.4423490000000  0.4805400000000 1.0
C      1  0.5078380000000  0.5060330000000  0.5500080000000 1.0
C      1  0.5997170000000  0.5218080000000  0.5242890000000 1.0
C      1  0.5835940000000  0.4281430000000  0.6046730000000 1.0
C      1  0.4940320000000  0.6294800000000  0.4961060000000 1.0
C      1  0.4779740000000  0.4990640000000  0.4327210000000 1.0
C      1  0.6589180000000  0.4719610000000  0.3812670000000 1.0
C      1  0.4828690000000  0.5840750000000  0.4888670000000 1.0
C      1  0.4998450000000  0.4118120000000  0.6079750000000 1.0
C      1  0.4342620000000  0.4792510000000  0.5692610000000 1.0
C      1  0.5450540000000  0.6212020000000  0.4393130000000 1.0
C      1  0.5168230000000  0.4484800000000  0.5186140000000 1.0
C      1  0.4081100000000  0.5370240000000  0.5746070000000 1.0
C      1  0.6022090000000  0.4735490000000  0.5175240000000 1.0
C      1  0.4832010000000  0.5514700000000  0.5418410000000 1.0
C      1  0.4591550000000  0.5515950000000  0.5277350000000 1.0
C      1  0.6134470000000  0.4721910000000  0.4076310000000 1.0
C      1  0.5686390000000  0.4869900000000  0.5484140000000 1.0
C      1  0.5444300000000  0.4503480000000  0.5223160000000 1.0
C      1  0.4752560000000  0.4731870000000  0.5137340000000 1.0
C      1  0.4734690000000  0.4193540000000  0.4886450000000 1.0
C      1  0.6188770000000  0.6270080000000  0.4299820000000 1.0
C      1  0.4941010000000  0.5294320000000  0.4796850000000 1.0
C      1  0.5378750000000  0.4940200000000  0.5098600000000 1.0
C      1  0.5004070000000  0.5746300000000  0.5795830000000 1.0
C      1  0.5805090000000  0.4310390000000  0.4945960000000 1.0
C      1  0.3959390000000  0.5105410000000  0.5779950000000 1.0
C      1  0.4993650000000  0.4854770000000  0.3807730000000 1.0
C      1  0.5310770000000  0.5608490000000  0.5080970000000 1.0
C      1  0.4561310000000  0.3867100000000  0.4565200000000 1.0
C      1  0.4378150000000  0.4429810000000  0.4344260000000 1.0
C      1  0.5605690000000  0.5452560000000  0.3823210000000 1.0
C      1  0.5543770000000  0.5641410000000  0.4265620000000 1.0
C      1  0.5070810000000  0.4077650000000  0.5809170000000 1.0
C      1  0.4194460000000  0.5943030000000  0.5615270000000 1.0
C      1  0.4251630000000  0.4916490000000  0.5380670000000 1.0
C      1  0.4279070000000  0.4218550000000  0.4762470000000 1.0
C      1  0.4048840000000  0.4923070000000  0.5153180000000 1.0
C      1  0.5799380000000  0.3484980000000  0.4907780000000 1.0
C      1  0.3949000000000  0.5511230000000  0.5529770000000 1.0
C      1  0.5611340000000  0.5026130000000  0.5716230000000 1.0
C      1  0.4489800000000  0.4914330000000  0.5907640000000 1.0
C      1  0.5941500000000  0.4509590000000  0.5635600000000 1.0
C      1  0.5739720000000  0.5827250000000  0.4354500000000 1.0
C      1  0.4242580000000  0.4605420000000  0.4145770000000 1.0
C      1  0.3888120000000  0.4584790000000  0.5630230000000 1.0
C      1  0.4170540000000  0.5071240000000  0.4262100000000 1.0
C      1  0.5184650000000  0.3955130000000  0.5225420000000 1.0
C      1  0.5056730000000  0.5335130000000  0.5409720000000 1.0
C      1  0.5267370000000  0.5645060000000  0.4342480000000 1.0
C      1  0.4235270000000  0.5696340000000  0.4929450000000 1.0
C      1  0.4114910000000  0.4696270000000  0.4622490000000 1.0
C      1  0.5231650000000  0.5072990000000  0.6011640000000 1.0
C      1  0.5482430000000  0.4492010000000  0.4100320000000 1.0
C      1  0.5510060000000  0.4775110000000  0.5277690000000 1.0
C      1  0.4253130000000  0.5703830000000  0.4056240000000 1.0
C      1  0.3876010000000  0.5155800000000  0.5132430000000 1.0
C      1  0.5432300000000  0.4034830000000  0.5153140000000 1.0
C      1  0.4936490000000  0.5042360000000  0.6041470000000 1.0
C      1  0.4609660000000  0.4192160000000  0.5633520000000 1.0
C      1  0.5926920000000  0.3630490000000  0.4705860000000 1.0
C      1  0.5753210000000  0.5371670000000  0.5235160000000 1.0
C      1  0.4443530000000  0.4594730000000  0.3921180000000 1.0
C      1  0.4546790000000  0.4383140000000  0.5840120000000 1.0
C      1  0.4531590000000  0.5369820000000  0.5999920000000 1.0
C      1  0.4908890000000  0.5983450000000  0.5353320000000 1.0
C      1  0.4306100000000  0.4522820000000  0.5800180000000 1.0
C      1  0.4870960000000  0.4062100000000  0.5608370000000 1.0
C      1  0.3995060000000  0.4440460000000  0.5396530000000 1.0
C      1  0.4978680000000  0.4596940000000  0.4588550000000 1.0
C      1  0.4994560000000  0.4628040000000  0.3987070000000 1.0
C      1  0.6363680000000  0.4720660000000  0.3943480000000 1.0
C      1  0.5465260000000  0.4422960000000  0.5766690000000 1.0
C      1  0.5931070000000  0.4722320000000  0.5451950000000 1.0
C      1  0.4528120000000  0.4083330000000  0.4727230000000 1.0
C      1  0.4892400000000  0.4347440000000  0.6175940000000 1.0
C      1  0.5688750000000  0.4938230000000  0.4604360000000 1.0
C      1  0.5780350000000  0.4313330000000  0.4449610000000 1.0
C      1  0.4902200000000  0.5770380000000  0.5535080000000 1.0
C      1  0.4824400000000  0.5330460000000  0.6005810000000 1.0
C      1  0.4238370000000  0.4433000000000  0.4589540000000 1.0
C      1  0.5131790000000  0.5856550000000  0.4483480000000 1.0
C      1  0.4625930000000  0.5066150000000  0.4093490000000 1.0
C      1  0.5216170000000  0.5252400000000  0.4790950000000 1.0
C      1  0.5893430000000  0.4726360000000  0.4215410000000 1.0
C      1  0.4929610000000  0.4018500000000  0.5326950000000 1.0
C      1  0.4342810000000  0.5791470000000  0.5802790000000 1.0
C      1  0.4647600000000  0.4983910000000  0.5076960000000 1.0
C      1  0.5295380000000  0.5481160000000  0.5332680000000 1.0
C      1  0.4735660000000  0.4522350000000  0.6021520000000 1.0
C      1  0.6242550000000  0.5824440000000  0.4467210000000 1.0
C      1  0.4745460000000  0.4814720000000  0.6001870000000 1.0
C      1  0.4477630000000  0.4202710000000  0.5362380000000 1.0
C      1  0.4270430000000  0.6194650000000  0.5521970000000 1.0
C      1  0.4568630000000  0.6513440000000  0.5230770000000 1.0
C      1  0.3806460000000  0.5250500000000  0.4875740000000 1.0
C      1  0.4907220000000  0.5785440000000  0.4638970000000 1.0
C      1  0.4393020000000  0.6391910000000  0.5391120000000 1.0
C      1  0.5296550000000  0.4986170000000  0.4836610000000 1.0
C      1  0.5758550000000  0.5202700000000  0.4204750000000 1.0
C      1  0.5321570000000  0.4183170000000  0.5741130000000 1.0
C      1  0.5636110000000  0.5430100000000  0.4094470000000 1.0
C      1  0.4121760000000  0.4804440000000  0.4335940000000 1.0
C      1  0.4465740000000  0.5068440000000  0.5272020000000 1.0
C      1  0.5429960000000  0.4891970000000  0.5902410000000 1.0
C      1  0.4706410000000  0.4126570000000  0.5170320000000 1.0
C      1  0.4150720000000  0.4199970000000  0.5009370000000 1.0
C      1  0.5988410000000  0.5736330000000  0.4453570000000 1.0
C      1  0.5229470000000  0.4596270000000  0.4177420000000 1.0
C      1  0.4398780000000  0.5610020000000  0.5120070000000 1.0
C      1  0.5123770000000  0.5402890000000  0.4303000000000 1.0
C      1  0.5182780000000  0.4896070000000  0.3616290000000 1.0
C      1  0.4687580000000  0.4642060000000  0.5393500000000 1.0
C      1  0.5104260000000  0.4787410000000  0.5606340000000 1.0
C      1  0.5218870000000  0.6128630000000  0.4524120000000 1.0
C      1  0.4036860000000  0.4458940000000  0.5842590000000 1.0
C      1  0.4323840000000  0.5513250000000  0.5856030000000 1.0
C      1  0.5749530000000  0.4402920000000  0.5816360000000 1.0
C      1  0.5411220000000  0.5440060000000  0.4877390000000 1.0
C      1  0.5052750000000  0.5502710000000  0.5928730000000 1.0
C      1  0.4773030000000  0.5029560000000  0.3852580000000 1.0
C      1  0.4778790000000  0.6499510000000  0.5064610000000 1.0
C      1  0.6339220000000  0.6066210000000  0.4394310000000 1.0
C      1  0.4064480000000  0.5846560000000  0.4498330000000 1.0
C      1  0.5581360000000  0.4275000000000  0.5120220000000 1.0
C      1  0.3851140000000  0.4868180000000  0.5687270000000 1.0
C      1  0.5993350000000  0.4994530000000  0.5052840000000 1.0
C      1  0.3837930000000  0.5343240000000  0.5336650000000 1.0
C      1  0.4729000000000  0.5157200000000  0.4878420000000 1.0
C      1  0.4046950000000  0.5681230000000  0.4722510000000 1.0
C      1  0.5821760000000  0.4178630000000  0.4693230000000 1.0
C      1  0.4144720000000  0.5858370000000  0.4244530000000 1.0
C      1  0.5550190000000  0.5416600000000  0.5441860000000 1.0
C      1  0.3866210000000  0.5466390000000  0.4729730000000 1.0
C      1  0.4718250000000  0.4526070000000  0.4024230000000 1.0
C      1  0.5730470000000  0.4492600000000  0.4238460000000 1.0
C      1  0.5921330000000  0.6277210000000  0.4268100000000 1.0
C      1  0.5801190000000  0.5079290000000  0.4835770000000 1.0
END
