TITL C-247201-3759-592 895.559588686247 125000 -640.860469289461 0 0 108 (C1) n - 1
REM
REM in /home/nfs/bkarasulu/CARBON/AIRSS/Generating-Clusters/LCBOP/Only-C1/SD-CG/FIRE-HFTN
REM
REM
REM
REM
REM
REM ./C.cell (11c1c37f851c82e70ff6c80c92926a4b)
REM AIRSS Version 0.9.1 bugfix July 2018 build 013d7b7c2542+ Fri, 06 Jul 2018 19:26:36 +0100
REM compiler GCC version 9.2.1 20190827 (Red Hat 9.2.1-1)
REM options -cpp -mtune=generic -march=x86-64 -g -O0 -fpre-include=/usr/include/finclude/math-vector-fortran.h
REM seed -2130702284 1779341776 648337989 -557810886 571613160 -556618857 -1194826051 1091990472 -1579461139 438876656 1323756661 2016873355 -1946062354 -1712820948 37053357 -2125661264 666181689 1416184923 1737153161 925411436 732488681 -1533582449 -1783712810 -817954949 1662540112 677863453 -1791349969 -352127257 1892001681 2099993063 -1793987719 1545559043 1190681073
REM
CELL 1.54180   50.00000   50.00000   50.00000   90.00000   90.00000   90.00000
LATT -1
SFAC C  
C      1  0.5204530000000  0.4845990000000  0.5587460000000 1.0
C      1  0.5093440000000  0.5721550000000  0.4368190000000 1.0
C      1  0.5278900000000  0.5045840000000  0.5114020000000 1.0
C      1  0.4577830000000  0.4500530000000  0.4279330000000 1.0
C      1  0.4515890000000  0.5427730000000  0.4751560000000 1.0
C      1  0.5055210000000  0.4598030000000  0.4267930000000 1.0
C      1  0.4924670000000  0.5883960000000  0.4807490000000 1.0
C      1  0.4148600000000  0.4588020000000  0.5149940000000 1.0
C      1  0.4725530000000  0.5452830000000  0.5722020000000 1.0
C      1  0.4322610000000  0.4623360000000  0.5644750000000 1.0
C      1  0.4538790000000  0.4954680000000  0.5973170000000 1.0
C      1  0.5367720000000  0.5782800000000  0.4600250000000 1.0
C      1  0.4844060000000  0.5699780000000  0.5594940000000 1.0
C      1  0.4513620000000  0.4475560000000  0.5502120000000 1.0
C      1  0.4856520000000  0.4533280000000  0.5957600000000 1.0
C      1  0.4807650000000  0.5715780000000  0.4401860000000 1.0
C      1  0.5404870000000  0.5810790000000  0.4906760000000 1.0
C      1  0.4934100000000  0.4257470000000  0.4571680000000 1.0
C      1  0.5454550000000  0.4781820000000  0.4451300000000 1.0
C      1  0.4856050000000  0.6136010000000  0.4814280000000 1.0
C      1  0.5044940000000  0.5323180000000  0.4059910000000 1.0
C      1  0.5827160000000  0.5465330000000  0.5403440000000 1.0
C      1  0.6288470000000  0.5501200000000  0.4741000000000 1.0
C      1  0.5560220000000  0.3886280000000  0.4484380000000 1.0
C      1  0.5490680000000  0.5559470000000  0.4193170000000 1.0
C      1  0.4129810000000  0.5153760000000  0.5160030000000 1.0
C      1  0.5917340000000  0.5616480000000  0.5075050000000 1.0
C      1  0.4287400000000  0.5481160000000  0.5487460000000 1.0
C      1  0.5413990000000  0.5007430000000  0.5718310000000 1.0
C      1  0.5259330000000  0.4383560000000  0.4925470000000 1.0
C      1  0.5343630000000  0.5491190000000  0.5276190000000 1.0
C      1  0.4521970000000  0.5267490000000  0.4068420000000 1.0
C      1  0.4375550000000  0.5087250000000  0.5774370000000 1.0
C      1  0.4603660000000  0.5011080000000  0.5254030000000 1.0
C      1  0.5648510000000  0.5660900000000  0.4992940000000 1.0
C      1  0.5544680000000  0.5537150000000  0.5496710000000 1.0
C      1  0.4431770000000  0.5374820000000  0.5712110000000 1.0
C      1  0.5690150000000  0.4974870000000  0.5630650000000 1.0
C      1  0.4247180000000  0.4893360000000  0.5590410000000 1.0
C      1  0.5749040000000  0.5062830000000  0.4825790000000 1.0
C      1  0.4934450000000  0.4933900000000  0.5580500000000 1.0
C      1  0.4642460000000  0.4579100000000  0.5256210000000 1.0
C      1  0.4745670000000  0.5619200000000  0.5139190000000 1.0
C      1  0.5233420000000  0.4317190000000  0.4633510000000 1.0
C      1  0.4500770000000  0.4118770000000  0.5175690000000 1.0
C      1  0.4768690000000  0.4805350000000  0.5364160000000 1.0
C      1  0.4720190000000  0.5236780000000  0.5343630000000 1.0
C      1  0.6536900000000  0.5467970000000  0.4669670000000 1.0
C      1  0.4885760000000  0.5365670000000  0.5168980000000 1.0
C      1  0.5772150000000  0.5463980000000  0.4582050000000 1.0
C      1  0.5239190000000  0.4637360000000  0.5386490000000 1.0
C      1  0.5128570000000  0.4208650000000  0.5624530000000 1.0
C      1  0.5710700000000  0.3686560000000  0.4410680000000 1.0
C      1  0.4592630000000  0.4046520000000  0.4917580000000 1.0
C      1  0.4766900000000  0.5363180000000  0.4017740000000 1.0
C      1  0.4481300000000  0.5531520000000  0.5025160000000 1.0
C      1  0.5011670000000  0.4783680000000  0.4053750000000 1.0
C      1  0.6024670000000  0.5531050000000  0.4814070000000 1.0
C      1  0.5686330000000  0.4833880000000  0.5212690000000 1.0
C      1  0.5011050000000  0.4924680000000  0.4759650000000 1.0
C      1  0.5861200000000  0.5201160000000  0.5535580000000 1.0
C      1  0.5159200000000  0.5128250000000  0.4614670000000 1.0
C      1  0.4994400000000  0.4040590000000  0.5414550000000 1.0
C      1  0.5213990000000  0.5765280000000  0.5180860000000 1.0
C      1  0.5401940000000  0.4300660000000  0.5627100000000 1.0
C      1  0.4152580000000  0.4905750000000  0.5319960000000 1.0
C      1  0.5667380000000  0.5195440000000  0.4592760000000 1.0
C      1  0.4598600000000  0.5599300000000  0.4535490000000 1.0
C      1  0.4999450000000  0.5624490000000  0.4781970000000 1.0
C      1  0.4276750000000  0.5406100000000  0.5209350000000 1.0
C      1  0.4837690000000  0.4433300000000  0.4368390000000 1.0
C      1  0.5086820000000  0.5390280000000  0.4683380000000 1.0
C      1  0.5542810000000  0.5400610000000  0.5065350000000 1.0
C      1  0.4926620000000  0.5783780000000  0.5310850000000 1.0
C      1  0.4701750000000  0.4077760000000  0.5391580000000 1.0
C      1  0.5244020000000  0.5230160000000  0.6120280000000 1.0
C      1  0.5362940000000  0.5240450000000  0.5875320000000 1.0
C      1  0.5709930000000  0.4729110000000  0.5476580000000 1.0
C      1  0.4263730000000  0.4310230000000  0.5190080000000 1.0
C      1  0.5609060000000  0.4474410000000  0.5571500000000 1.0
C      1  0.4655270000000  0.4260870000000  0.5613290000000 1.0
C      1  0.4296300000000  0.4880960000000  0.4333140000000 1.0
C      1  0.3962990000000  0.4870770000000  0.4800690000000 1.0
C      1  0.4601230000000  0.4672630000000  0.4908510000000 1.0
C      1  0.4577420000000  0.4567570000000  0.4000280000000 1.0
C      1  0.4577970000000  0.5148180000000  0.4735620000000 1.0
C      1  0.4126530000000  0.4650700000000  0.4869670000000 1.0
C      1  0.5283400000000  0.4561310000000  0.4439150000000 1.0
C      1  0.5453960000000  0.5481980000000  0.5758830000000 1.0
C      1  0.4768570000000  0.4092230000000  0.4722670000000 1.0
C      1  0.5407550000000  0.4089550000000  0.4558520000000 1.0
C      1  0.5207540000000  0.4590480000000  0.5106230000000 1.0
C      1  0.4839300000000  0.5209880000000  0.5605580000000 1.0
C      1  0.5575120000000  0.5087110000000  0.5066560000000 1.0
C      1  0.4711040000000  0.4751770000000  0.6025040000000 1.0
C      1  0.5155920000000  0.4836000000000  0.4981720000000 1.0
C      1  0.5589000000000  0.5644530000000  0.4453400000000 1.0
C      1  0.4352750000000  0.5098680000000  0.4188020000000 1.0
C      1  0.4730120000000  0.4912270000000  0.4792820000000 1.0
C      1  0.5205740000000  0.5537720000000  0.4167940000000 1.0
C      1  0.3979360000000  0.5112580000000  0.4922600000000 1.0
C      1  0.5423260000000  0.5059580000000  0.4508900000000 1.0
C      1  0.4784950000000  0.4710840000000  0.3894970000000 1.0
C      1  0.5117010000000  0.5047360000000  0.4041750000000 1.0
C      1  0.5147210000000  0.5281690000000  0.5212160000000 1.0
C      1  0.4396960000000  0.4642080000000  0.4450220000000 1.0
C      1  0.4374370000000  0.4608320000000  0.4735500000000 1.0
C      1  0.4894210000000  0.4325650000000  0.5768210000000 1.0
END
