TITL C-247199-3331-337 2.66172631661416e-07 125000 -604.421608363898 0 0 101 (C1) n - 1
REM
REM in /home/nfs/bkarasulu/CARBON/AIRSS/Generating-Clusters/LCBOP/Only-C1/SD-CG/FIRE-HFTN
REM
REM
REM
REM
REM
REM ./C.cell (11c1c37f851c82e70ff6c80c92926a4b)
REM AIRSS Version 0.9.1 bugfix July 2018 build 013d7b7c2542+ Fri, 06 Jul 2018 19:26:36 +0100
REM compiler GCC version 9.2.1 20190827 (Red Hat 9.2.1-1)
REM options -cpp -mtune=generic -march=x86-64 -g -O0 -fpre-include=/usr/include/finclude/math-vector-fortran.h
REM seed 1881052399 -1832242471 1682423044 -1898706150 -246175648 -1582350470 -805266583 846316171 -1473372752 -641175423 -513807827 -294373589 -882072483 884046047 -1453549233 -1993243959 -476973045 200817645 -1993962712 404838395 99277673 -1682925721 1655117507 1127516590 -1310038736 387337863 1327870902 -776408339 -168742215 -1139948504 1221502665 -1937695090 451052815
REM
CELL 1.54180   50.00000   50.00000   50.00000   90.00000   90.00000   90.00000
LATT -1
SFAC C  
C      1  0.4262020000000  0.4646170000000  0.4892660000000 1.0
C      1  0.4412820000000  0.5365980000000  0.5229510000000 1.0
C      1  0.5467350000000  0.5412830000000  0.4621850000000 1.0
C      1  0.4689450000000  0.4756430000000  0.4200520000000 1.0
C      1  0.5340920000000  0.5512670000000  0.5730950000000 1.0
C      1  0.4691910000000  0.4488450000000  0.5517100000000 1.0
C      1  0.3778500000000  0.5374300000000  0.5022830000000 1.0
C      1  0.5353110000000  0.5845060000000  0.4416850000000 1.0
C      1  0.5567640000000  0.5626060000000  0.5227210000000 1.0
C      1  0.5291530000000  0.4661560000000  0.5048390000000 1.0
C      1  0.4187600000000  0.4938900000000  0.5739190000000 1.0
C      1  0.5710400000000  0.4490260000000  0.5151330000000 1.0
C      1  0.5691190000000  0.5394370000000  0.5362810000000 1.0
C      1  0.5290450000000  0.5553250000000  0.5162420000000 1.0
C      1  0.4756900000000  0.5118820000000  0.5010680000000 1.0
C      1  0.5796170000000  0.5124680000000  0.5254600000000 1.0
C      1  0.5390460000000  0.5605830000000  0.6262400000000 1.0
C      1  0.4184390000000  0.5219010000000  0.5796880000000 1.0
C      1  0.5643460000000  0.4609230000000  0.5413680000000 1.0
C      1  0.4899950000000  0.4832300000000  0.5782400000000 1.0
C      1  0.5135100000000  0.5364230000000  0.4316150000000 1.0
C      1  0.5319190000000  0.5569300000000  0.4422850000000 1.0
C      1  0.4565990000000  0.4948500000000  0.5152430000000 1.0
C      1  0.5439590000000  0.6078500000000  0.5081810000000 1.0
C      1  0.4149890000000  0.5427480000000  0.5624260000000 1.0
C      1  0.4519660000000  0.4271240000000  0.5433080000000 1.0
C      1  0.5465900000000  0.6153530000000  0.4811030000000 1.0
C      1  0.5416620000000  0.4782400000000  0.5662340000000 1.0
C      1  0.5544600000000  0.4930620000000  0.4245590000000 1.0
C      1  0.5888510000000  0.4594280000000  0.4715900000000 1.0
C      1  0.4921160000000  0.4564060000000  0.4258250000000 1.0
C      1  0.5182920000000  0.4508180000000  0.4836860000000 1.0
C      1  0.4610080000000  0.5371790000000  0.5013800000000 1.0
C      1  0.5456020000000  0.4888720000000  0.4987660000000 1.0
C      1  0.5218630000000  0.5252910000000  0.4069450000000 1.0
C      1  0.4442250000000  0.4783310000000  0.4359680000000 1.0
C      1  0.4396940000000  0.5047130000000  0.4446840000000 1.0
C      1  0.4720430000000  0.4006870000000  0.4575560000000 1.0
C      1  0.4999820000000  0.4997210000000  0.5073970000000 1.0
C      1  0.4154860000000  0.5416730000000  0.5336950000000 1.0
C      1  0.5671680000000  0.4414180000000  0.4647150000000 1.0
C      1  0.5779260000000  0.4937120000000  0.5477240000000 1.0
C      1  0.4979550000000  0.4103000000000  0.4524750000000 1.0
C      1  0.3897840000000  0.5012300000000  0.5330640000000 1.0
C      1  0.4510520000000  0.3988160000000  0.4741370000000 1.0
C      1  0.5394920000000  0.4725320000000  0.4371460000000 1.0
C      1  0.4671990000000  0.5498250000000  0.4486160000000 1.0
C      1  0.4793650000000  0.5571840000000  0.4962460000000 1.0
C      1  0.4765880000000  0.5263660000000  0.5529950000000 1.0
C      1  0.4532520000000  0.5137040000000  0.5383060000000 1.0
C      1  0.4965830000000  0.6066180000000  0.4986280000000 1.0
C      1  0.5309340000000  0.5275900000000  0.5203050000000 1.0
C      1  0.4408640000000  0.4773280000000  0.5798490000000 1.0
C      1  0.5150690000000  0.5926810000000  0.5459540000000 1.0
C      1  0.4001290000000  0.4869360000000  0.5535550000000 1.0
C      1  0.4512250000000  0.4765710000000  0.4932460000000 1.0
C      1  0.4632990000000  0.4170520000000  0.5172740000000 1.0
C      1  0.5126070000000  0.5659470000000  0.5591760000000 1.0
C      1  0.4995370000000  0.5584550000000  0.5162840000000 1.0
C      1  0.5412780000000  0.5067950000000  0.4035310000000 1.0
C      1  0.5164840000000  0.4734710000000  0.5764340000000 1.0
C      1  0.5629310000000  0.5895650000000  0.5186940000000 1.0
C      1  0.5564010000000  0.5027830000000  0.5660440000000 1.0
C      1  0.5170930000000  0.6055150000000  0.5192400000000 1.0
C      1  0.4107530000000  0.4434130000000  0.4952000000000 1.0
C      1  0.5710910000000  0.5292470000000  0.4548800000000 1.0
C      1  0.5502740000000  0.4461340000000  0.4419730000000 1.0
C      1  0.4758980000000  0.4725460000000  0.4756730000000 1.0
C      1  0.4236770000000  0.4244900000000  0.5382830000000 1.0
C      1  0.5196710000000  0.4048390000000  0.4712590000000 1.0
C      1  0.4427240000000  0.4074730000000  0.4993300000000 1.0
C      1  0.3935120000000  0.5271690000000  0.5220680000000 1.0
C      1  0.5405300000000  0.4078250000000  0.4911850000000 1.0
C      1  0.5592830000000  0.4300630000000  0.4918670000000 1.0
C      1  0.5425970000000  0.3885530000000  0.5106990000000 1.0
C      1  0.5865240000000  0.4694230000000  0.4983240000000 1.0
C      1  0.5368100000000  0.5564080000000  0.6006150000000 1.0
C      1  0.5260270000000  0.5106510000000  0.4983460000000 1.0
C      1  0.5333190000000  0.4281740000000  0.4273600000000 1.0
C      1  0.5424120000000  0.6056740000000  0.4564580000000 1.0
C      1  0.5059390000000  0.4748000000000  0.5212710000000 1.0
C      1  0.4770100000000  0.5139770000000  0.3871990000000 1.0
C      1  0.4863960000000  0.5109580000000  0.5745880000000 1.0
C      1  0.5108630000000  0.4743420000000  0.4398340000000 1.0
C      1  0.5058310000000  0.5179130000000  0.4543140000000 1.0
C      1  0.4772970000000  0.5687800000000  0.4699660000000 1.0
C      1  0.5263060000000  0.5244750000000  0.4734820000000 1.0
C      1  0.4921830000000  0.5501720000000  0.5445620000000 1.0
C      1  0.4728290000000  0.5058500000000  0.4127990000000 1.0
C      1  0.4820280000000  0.4362090000000  0.5085020000000 1.0
C      1  0.4665260000000  0.4674480000000  0.5727840000000 1.0
C      1  0.5740150000000  0.5076120000000  0.4389060000000 1.0
C      1  0.5042380000000  0.4290070000000  0.4309430000000 1.0
C      1  0.4184160000000  0.4204930000000  0.5097360000000 1.0
C      1  0.4598430000000  0.5239490000000  0.4347090000000 1.0
C      1  0.4900710000000  0.4479990000000  0.4840040000000 1.0
C      1  0.4884060000000  0.4545210000000  0.5304900000000 1.0
C      1  0.4857120000000  0.5960450000000  0.4754950000000 1.0
C      1  0.4949050000000  0.4908040000000  0.4580950000000 1.0
C      1  0.5529770000000  0.5317880000000  0.5615570000000 1.0
C      1  0.5734540000000  0.4950660000000  0.5027350000000 1.0
END
