TITL C-247197-3123-688 0.37904344128308 125000 -97.278277658869 0 0 19 (C1) n - 1
REM
REM in /home/nfs/bkarasulu/CARBON/AIRSS/Generating-Clusters/LCBOP/Only-C1/SD-CG/FIRE-HFTN
REM
REM
REM
REM
REM
REM ./C.cell (11c1c37f851c82e70ff6c80c92926a4b)
REM AIRSS Version 0.9.1 bugfix July 2018 build 013d7b7c2542+ Fri, 06 Jul 2018 19:26:36 +0100
REM compiler GCC version 9.2.1 20190827 (Red Hat 9.2.1-1)
REM options -cpp -mtune=generic -march=x86-64 -g -O0 -fpre-include=/usr/include/finclude/math-vector-fortran.h
REM seed -1694626100 -269158224 1307781815 -977958548 -989971712 372651914 1611274584 -790331038 -369564360 -1757263570 -1191070938 -1019631718 1099830222 1310010138 -1874789679 1824921530 -2061583043 784035514 1746711134 667133920 -575363134 695229429 484226436 -1406991091 841403079 -950377475 893056556 1926801729 -371432631 812214779 1212075709 -1923882431 -1211742132
REM
CELL 1.54180   50.00000   50.00000   50.00000   90.00000   90.00000   90.00000
LATT -1
SFAC C  
C      1  0.4775750000000  0.5103230000000  0.4537650000000 1.0
C      1  0.5034260000000  0.5365110000000  0.5555270000000 1.0
C      1  0.4996550000000  0.4891220000000  0.5645730000000 1.0
C      1  0.5073640000000  0.4676520000000  0.5771730000000 1.0
C      1  0.5085560000000  0.4868990000000  0.4746050000000 1.0
C      1  0.4333800000000  0.4980150000000  0.5064650000000 1.0
C      1  0.4925110000000  0.5115210000000  0.5494860000000 1.0
C      1  0.4627820000000  0.5240200000000  0.4357780000000 1.0
C      1  0.5142370000000  0.4486030000000  0.5025500000000 1.0
C      1  0.5182580000000  0.4966000000000  0.4263690000000 1.0
C      1  0.4600840000000  0.5037810000000  0.5048660000000 1.0
C      1  0.5216250000000  0.4738890000000  0.4951360000000 1.0
C      1  0.4746740000000  0.5088550000000  0.5281810000000 1.0
C      1  0.5034620000000  0.4974580000000  0.4495950000000 1.0
C      1  0.5321070000000  0.4959100000000  0.4043030000000 1.0
C      1  0.5425020000000  0.4868380000000  0.5085370000000 1.0
C      1  0.5606810000000  0.4997630000000  0.5220170000000 1.0
C      1  0.5142720000000  0.5596440000000  0.5606670000000 1.0
C      1  0.4728500000000  0.5045950000000  0.4804070000000 1.0
END
