TITL C-247200-3482-258 22301.7335706888 125000 -707.675219899642 0 0 118 (C1) n - 1
REM
REM in /home/nfs/bkarasulu/CARBON/AIRSS/Generating-Clusters/LCBOP/Only-C1/SD-CG/FIRE-HFTN
REM
REM
REM
REM
REM
REM ./C.cell (11c1c37f851c82e70ff6c80c92926a4b)
REM AIRSS Version 0.9.1 bugfix July 2018 build 013d7b7c2542+ Fri, 06 Jul 2018 19:26:36 +0100
REM compiler GCC version 9.2.1 20190827 (Red Hat 9.2.1-1)
REM options -cpp -mtune=generic -march=x86-64 -g -O0 -fpre-include=/usr/include/finclude/math-vector-fortran.h
REM seed 493509607 1407577374 1249960446 1216882730 -192574520 -707549540 1014707706 1677651159 -872353040 273368296 2078793489 -1393592624 -927129508 -539355131 -110170388 -1954274118 -749285193 2030792342 -1833332216 -1854410817 -1973936890 113370213 1044023833 78547617 318383675 566030204 -1798893905 1882620730 728303496 -1674331137 406984163 109338640 619033176
REM
CELL 1.54180   50.00000   50.00000   50.00000   90.00000   90.00000   90.00000
LATT -1
SFAC C  
C      1  0.5550010000000  0.5481790000000  0.5667830000000 1.0
C      1  0.5469400000000  0.4319160000000  0.4557590000000 1.0
C      1  0.5387190000000  0.4555840000000  0.5051400000000 1.0
C      1  0.5948730000000  0.5057650000000  0.5700840000000 1.0
C      1  0.5016790000000  0.4168780000000  0.5280780000000 1.0
C      1  0.4109360000000  0.4327030000000  0.4178020000000 1.0
C      1  0.5755130000000  0.5313100000000  0.4615310000000 1.0
C      1  0.4109810000000  0.5114180000000  0.5252010000000 1.0
C      1  0.6010460000000  0.5112620000000  0.5424920000000 1.0
C      1  0.4015700000000  0.4891770000000  0.5418650000000 1.0
C      1  0.3956450000000  0.4648240000000  0.4849090000000 1.0
C      1  0.5738470000000  0.4307770000000  0.4983520000000 1.0
C      1  0.4498430000000  0.5109590000000  0.4816150000000 1.0
C      1  0.5819250000000  0.5284430000000  0.5294970000000 1.0
C      1  0.4656950000000  0.5323190000000  0.6028350000000 1.0
C      1  0.5331100000000  0.5877290000000  0.4390170000000 1.0
C      1  0.4473740000000  0.4238480000000  0.5156150000000 1.0
C      1  0.6136780000000  0.4877250000000  0.5295000000000 1.0
C      1  0.4080450000000  0.5113540000000  0.4266860000000 1.0
C      1  0.4564330000000  0.4362090000000  0.5399450000000 1.0
C      1  0.5315670000000  0.5509190000000  0.4110130000000 1.0
C      1  0.5550670000000  0.4643010000000  0.5273930000000 1.0
C      1  0.5255300000000  0.5223730000000  0.4098310000000 1.0
C      1  0.5180530000000  0.4868160000000  0.4557760000000 1.0
C      1  0.4381370000000  0.5513890000000  0.4400570000000 1.0
C      1  0.3922420000000  0.4151080000000  0.4243980000000 1.0
C      1  0.4828720000000  0.4278630000000  0.5494670000000 1.0
C      1  0.4420060000000  0.4615170000000  0.5435970000000 1.0
C      1  0.5415940000000  0.4301130000000  0.5559140000000 1.0
C      1  0.5873310000000  0.4587630000000  0.5615880000000 1.0
C      1  0.5225960000000  0.5387570000000  0.4656350000000 1.0
C      1  0.6087650000000  0.4773070000000  0.4525660000000 1.0
C      1  0.5694080000000  0.5513980000000  0.4444770000000 1.0
C      1  0.5061560000000  0.5653570000000  0.4098110000000 1.0
C      1  0.5285440000000  0.5744230000000  0.5056020000000 1.0
C      1  0.5724200000000  0.5188180000000  0.5051840000000 1.0
C      1  0.4530500000000  0.4880540000000  0.5440090000000 1.0
C      1  0.4825210000000  0.5534940000000  0.5006040000000 1.0
C      1  0.4964350000000  0.4347380000000  0.5052050000000 1.0
C      1  0.5706070000000  0.4928550000000  0.4182150000000 1.0
C      1  0.4529080000000  0.5068200000000  0.5955580000000 1.0
C      1  0.4256040000000  0.5042950000000  0.5865500000000 1.0
C      1  0.5356650000000  0.5103520000000  0.4591840000000 1.0
C      1  0.5244920000000  0.4998740000000  0.5262550000000 1.0
C      1  0.4957440000000  0.5208090000000  0.4148520000000 1.0
C      1  0.5112410000000  0.4599600000000  0.4666560000000 1.0
C      1  0.5588280000000  0.5107230000000  0.4797930000000 1.0
C      1  0.4651540000000  0.5381090000000  0.6299630000000 1.0
C      1  0.5062080000000  0.5523580000000  0.5757260000000 1.0
C      1  0.4510890000000  0.4669040000000  0.4162830000000 1.0
C      1  0.5055180000000  0.5872510000000  0.4301570000000 1.0
C      1  0.5329820000000  0.5469600000000  0.5826390000000 1.0
C      1  0.5124370000000  0.5562870000000  0.4871950000000 1.0
C      1  0.4694940000000  0.5818900000000  0.5025200000000 1.0
C      1  0.4243550000000  0.5565420000000  0.4646500000000 1.0
C      1  0.3947870000000  0.4935330000000  0.4413930000000 1.0
C      1  0.4942620000000  0.4412870000000  0.5724540000000 1.0
C      1  0.4250950000000  0.5317860000000  0.4243940000000 1.0
C      1  0.4589320000000  0.4574450000000  0.4826110000000 1.0
C      1  0.5118080000000  0.4569250000000  0.5143250000000 1.0
C      1  0.4645590000000  0.5752190000000  0.5745360000000 1.0
C      1  0.4774100000000  0.4756650000000  0.4190120000000 1.0
C      1  0.5048510000000  0.5616860000000  0.5484200000000 1.0
C      1  0.4983600000000  0.4582040000000  0.4112370000000 1.0
C      1  0.4100690000000  0.5470320000000  0.4856220000000 1.0
C      1  0.5652610000000  0.4459840000000  0.5481830000000 1.0
C      1  0.4144780000000  0.4642410000000  0.5320180000000 1.0
C      1  0.4547380000000  0.5873940000000  0.5267550000000 1.0
C      1  0.4388900000000  0.5090970000000  0.5302910000000 1.0
C      1  0.4838300000000  0.5008660000000  0.4312050000000 1.0
C      1  0.4998150000000  0.5892150000000  0.5428630000000 1.0
C      1  0.6199060000000  0.4827140000000  0.5021180000000 1.0
C      1  0.4628480000000  0.5344540000000  0.4873670000000 1.0
C      1  0.5113050000000  0.5959950000000  0.5165950000000 1.0
C      1  0.4675090000000  0.4819640000000  0.5975800000000 1.0
C      1  0.5356190000000  0.4473390000000  0.4766130000000 1.0
C      1  0.5780860000000  0.4833380000000  0.5750730000000 1.0
C      1  0.4788450000000  0.5524860000000  0.5863590000000 1.0
C      1  0.6107200000000  0.4639110000000  0.5458860000000 1.0
C      1  0.5319460000000  0.4145100000000  0.5327280000000 1.0
C      1  0.5228930000000  0.4440610000000  0.5734820000000 1.0
C      1  0.5324210000000  0.4692490000000  0.5832410000000 1.0
C      1  0.4786110000000  0.5847880000000  0.4406570000000 1.0
C      1  0.4640100000000  0.5606110000000  0.4322010000000 1.0
C      1  0.5925050000000  0.4848130000000  0.4320510000000 1.0
C      1  0.4861990000000  0.4462920000000  0.4794610000000 1.0
C      1  0.4769750000000  0.4978420000000  0.5537560000000 1.0
C      1  0.5491150000000  0.5646410000000  0.4300930000000 1.0
C      1  0.5194610000000  0.4420130000000  0.4144310000000 1.0
C      1  0.4834310000000  0.5471660000000  0.4143530000000 1.0
C      1  0.4058970000000  0.4951230000000  0.5699830000000 1.0
C      1  0.4788080000000  0.4588290000000  0.5891260000000 1.0
C      1  0.4899290000000  0.6020780000000  0.4983030000000 1.0
C      1  0.4931330000000  0.5011930000000  0.4585250000000 1.0
C      1  0.4300470000000  0.4508440000000  0.4149760000000 1.0
C      1  0.6084160000000  0.4686660000000  0.4800060000000 1.0
C      1  0.3741800000000  0.3981210000000  0.4324490000000 1.0
C      1  0.4868210000000  0.5201270000000  0.5432860000000 1.0
C      1  0.4592870000000  0.4851430000000  0.4898000000000 1.0
C      1  0.4707610000000  0.5904880000000  0.5505160000000 1.0
C      1  0.5451970000000  0.4883510000000  0.5408630000000 1.0
C      1  0.5824260000000  0.4572430000000  0.4866000000000 1.0
C      1  0.5021970000000  0.4814410000000  0.5219500000000 1.0
C      1  0.5511120000000  0.5655630000000  0.5207790000000 1.0
C      1  0.5471700000000  0.5039120000000  0.4101790000000 1.0
C      1  0.5384720000000  0.4312050000000  0.4300610000000 1.0
C      1  0.5543130000000  0.4145480000000  0.5116130000000 1.0
C      1  0.5251160000000  0.5130490000000  0.5010520000000 1.0
C      1  0.3900110000000  0.4779840000000  0.4624640000000 1.0
C      1  0.4830590000000  0.4920630000000  0.5042620000000 1.0
C      1  0.5649910000000  0.5492790000000  0.5401840000000 1.0
C      1  0.4379820000000  0.4420010000000  0.4956070000000 1.0
C      1  0.5652700000000  0.4805930000000  0.4804730000000 1.0
C      1  0.5499560000000  0.4867800000000  0.5694860000000 1.0
C      1  0.4033480000000  0.5302820000000  0.5057840000000 1.0
C      1  0.4136210000000  0.4555770000000  0.5041690000000 1.0
C      1  0.4915680000000  0.5440200000000  0.5304440000000 1.0
C      1  0.4978900000000  0.5098620000000  0.4866710000000 1.0
END
