TITL C-247202-1916-167 -1.31045911628687e-07 125000 -605.740269320719 0 0 97 (C1) n - 1
REM
REM in /home/nfs/bkarasulu/CARBON/AIRSS/Generating-Clusters/LCBOP/Only-C1/SD-CG/FIRE-HFTN
REM
REM
REM
REM
REM
REM ./C.cell (11c1c37f851c82e70ff6c80c92926a4b)
REM AIRSS Version 0.9.1 bugfix July 2018 build 013d7b7c2542+ Fri, 06 Jul 2018 19:26:36 +0100
REM compiler GCC version 9.2.1 20190827 (Red Hat 9.2.1-1)
REM options -cpp -mtune=generic -march=x86-64 -g -O0 -fpre-include=/usr/include/finclude/math-vector-fortran.h
REM seed 1557432683 893210937 -919780076 -967843010 -1243988850 1973439666 -447774738 2107537345 -1813342481 2042339156 1686324086 1823556874 -414475112 -216308036 -1009874845 -623836002 -94270662 -197453883 -1711515034 -438583287 1693944859 1141698561 778703116 -984588553 -1529642495 -1932975133 -714022238 37013516 -226811226 -1819137937 -683724181 1883808420 1465227385
REM
CELL 1.54180   50.00000   50.00000   50.00000   90.00000   90.00000   90.00000
LATT -1
SFAC C  
C      1  0.4142110000000  0.5256850000000  0.4255510000000 1.0
C      1  0.4652230000000  0.4556920000000  0.4600150000000 1.0
C      1  0.5130710000000  0.4720700000000  0.5168060000000 1.0
C      1  0.4533820000000  0.4889580000000  0.5778870000000 1.0
C      1  0.4728290000000  0.5653260000000  0.4418140000000 1.0
C      1  0.4536130000000  0.4776370000000  0.4459650000000 1.0
C      1  0.5423370000000  0.5067620000000  0.5345350000000 1.0
C      1  0.4634610000000  0.4358170000000  0.5776600000000 1.0
C      1  0.5072200000000  0.5459300000000  0.5721340000000 1.0
C      1  0.4149470000000  0.4667950000000  0.5144170000000 1.0
C      1  0.4885080000000  0.4596580000000  0.4755470000000 1.0
C      1  0.4730560000000  0.4983560000000  0.5268460000000 1.0
C      1  0.4911690000000  0.4051710000000  0.5425400000000 1.0
C      1  0.5126430000000  0.4656860000000  0.4888750000000 1.0
C      1  0.5507150000000  0.5218670000000  0.5778340000000 1.0
C      1  0.4863650000000  0.4215060000000  0.5657220000000 1.0
C      1  0.5340760000000  0.4555420000000  0.4452880000000 1.0
C      1  0.5612750000000  0.5941610000000  0.5854180000000 1.0
C      1  0.4511470000000  0.4061880000000  0.5075630000000 1.0
C      1  0.4184800000000  0.4912370000000  0.5002750000000 1.0
C      1  0.4531470000000  0.5315510000000  0.5547800000000 1.0
C      1  0.5615990000000  0.4164370000000  0.5077020000000 1.0
C      1  0.5553070000000  0.4604770000000  0.5387590000000 1.0
C      1  0.5336990000000  0.4359530000000  0.5722120000000 1.0
C      1  0.4697010000000  0.3993110000000  0.5254240000000 1.0
C      1  0.4454620000000  0.5075900000000  0.5370840000000 1.0
C      1  0.4495780000000  0.4334260000000  0.4671890000000 1.0
C      1  0.5318670000000  0.5287650000000  0.4116150000000 1.0
C      1  0.4956410000000  0.5155360000000  0.4601870000000 1.0
C      1  0.5441640000000  0.4757360000000  0.4267210000000 1.0
C      1  0.4683520000000  0.4650100000000  0.5780160000000 1.0
C      1  0.5136240000000  0.5507800000000  0.4154460000000 1.0
C      1  0.5004000000000  0.5673980000000  0.4350600000000 1.0
C      1  0.4241770000000  0.5392140000000  0.5017830000000 1.0
C      1  0.5491010000000  0.5713510000000  0.5821710000000 1.0
C      1  0.5466370000000  0.5542680000000  0.5211470000000 1.0
C      1  0.5868000000000  0.5087370000000  0.5374910000000 1.0
C      1  0.5867160000000  0.5098680000000  0.5080420000000 1.0
C      1  0.5356940000000  0.4674160000000  0.4719090000000 1.0
C      1  0.4643510000000  0.5509810000000  0.4652030000000 1.0
C      1  0.4259010000000  0.5034470000000  0.4156630000000 1.0
C      1  0.5313600000000  0.5490430000000  0.4649950000000 1.0
C      1  0.4456990000000  0.4611400000000  0.4000680000000 1.0
C      1  0.4963120000000  0.5631550000000  0.5523420000000 1.0
C      1  0.5161000000000  0.5722330000000  0.4585730000000 1.0
C      1  0.4418900000000  0.4801730000000  0.4199770000000 1.0
C      1  0.4339070000000  0.4873950000000  0.5563850000000 1.0
C      1  0.5629970000000  0.5123020000000  0.5537480000000 1.0
C      1  0.5626260000000  0.5844040000000  0.4907740000000 1.0
C      1  0.4927390000000  0.4664720000000  0.5613470000000 1.0
C      1  0.5369270000000  0.5037360000000  0.5951170000000 1.0
C      1  0.5525530000000  0.5234360000000  0.4317330000000 1.0
C      1  0.5177970000000  0.4566810000000  0.3914820000000 1.0
C      1  0.5354920000000  0.5931070000000  0.4972020000000 1.0
C      1  0.4251390000000  0.5140650000000  0.5170130000000 1.0
C      1  0.4905180000000  0.4766590000000  0.5346030000000 1.0
C      1  0.4493970000000  0.5006220000000  0.4620010000000 1.0
C      1  0.4926270000000  0.5237390000000  0.5844870000000 1.0
C      1  0.4379330000000  0.4249030000000  0.4913900000000 1.0
C      1  0.5788000000000  0.4349760000000  0.4980310000000 1.0
C      1  0.4241160000000  0.5027060000000  0.4746910000000 1.0
C      1  0.5548070000000  0.5436560000000  0.4509290000000 1.0
C      1  0.5299930000000  0.5779040000000  0.5223810000000 1.0
C      1  0.4870650000000  0.5180920000000  0.5125970000000 1.0
C      1  0.5069810000000  0.4422370000000  0.5687210000000 1.0
C      1  0.5109030000000  0.5878440000000  0.4818420000000 1.0
C      1  0.5566140000000  0.4969860000000  0.4418300000000 1.0
C      1  0.5377830000000  0.4798210000000  0.5285290000000 1.0
C      1  0.5310010000000  0.4796570000000  0.4014700000000 1.0
C      1  0.5098830000000  0.5057040000000  0.5984440000000 1.0
C      1  0.4891220000000  0.5782190000000  0.5004210000000 1.0
C      1  0.5158510000000  0.5277540000000  0.4755210000000 1.0
C      1  0.5120410000000  0.5256240000000  0.5031040000000 1.0
C      1  0.5696520000000  0.5590470000000  0.5034480000000 1.0
C      1  0.4480340000000  0.4428260000000  0.3816760000000 1.0
C      1  0.5128820000000  0.4348680000000  0.4070570000000 1.0
C      1  0.4652090000000  0.5642540000000  0.4916140000000 1.0
C      1  0.4655790000000  0.5169180000000  0.5775100000000 1.0
C      1  0.5206970000000  0.4339460000000  0.4331390000000 1.0
C      1  0.5361890000000  0.5471970000000  0.5769360000000 1.0
C      1  0.5335280000000  0.5291120000000  0.5204560000000 1.0
C      1  0.5573930000000  0.4884590000000  0.4705350000000 1.0
C      1  0.5017340000000  0.5748170000000  0.5272860000000 1.0
C      1  0.5498720000000  0.4351480000000  0.5494240000000 1.0
C      1  0.4497140000000  0.5554630000000  0.5392350000000 1.0
C      1  0.4154180000000  0.5310960000000  0.4747670000000 1.0
C      1  0.4092150000000  0.5393150000000  0.4485340000000 1.0
C      1  0.5867630000000  0.4606800000000  0.4957260000000 1.0
C      1  0.5182140000000  0.4028580000000  0.5326490000000 1.0
C      1  0.4445210000000  0.5574050000000  0.5106640000000 1.0
C      1  0.5267140000000  0.5066760000000  0.3946510000000 1.0
C      1  0.4681440000000  0.5221320000000  0.4624150000000 1.0
C      1  0.4183680000000  0.4418240000000  0.5023710000000 1.0
C      1  0.5860520000000  0.5367830000000  0.4983050000000 1.0
C      1  0.5782990000000  0.4875500000000  0.4906750000000 1.0
C      1  0.5440380000000  0.4148290000000  0.5298970000000 1.0
C      1  0.4171580000000  0.4690520000000  0.5429850000000 1.0
END
