TITL C-247197-3123-406 -4.40526034455683e-07 125000 -652.643196553473 0 0 107 (C1) n - 1
REM
REM in /home/nfs/bkarasulu/CARBON/AIRSS/Generating-Clusters/LCBOP/Only-C1/SD-CG/FIRE-HFTN
REM
REM
REM
REM
REM
REM ./C.cell (11c1c37f851c82e70ff6c80c92926a4b)
REM AIRSS Version 0.9.1 bugfix July 2018 build 013d7b7c2542+ Fri, 06 Jul 2018 19:26:36 +0100
REM compiler GCC version 9.2.1 20190827 (Red Hat 9.2.1-1)
REM options -cpp -mtune=generic -march=x86-64 -g -O0 -fpre-include=/usr/include/finclude/math-vector-fortran.h
REM seed 603768802 1136254288 -169932687 -1969456472 2031802646 53604998 -1037149075 265471211 -1615842718 279946044 1122689542 -1826227048 -1909037019 1899599875 910621697 -1555036631 1910143105 -1046849437 -969718550 -1172429734 -17651298 -1477184410 -316070789 -267409238 -61550794 -559911066 -2089494409 -1370286586 532056151 -810671437 617370667 1388239806 365158849
REM
CELL 1.54180   50.00000   50.00000   50.00000   90.00000   90.00000   90.00000
LATT -1
SFAC C  
C      1  0.5745140000000  0.5621060000000  0.5199290000000 1.0
C      1  0.4553500000000  0.5276300000000  0.3793490000000 1.0
C      1  0.5415750000000  0.6111630000000  0.4970910000000 1.0
C      1  0.5590640000000  0.4529020000000  0.6324100000000 1.0
C      1  0.5104320000000  0.4094480000000  0.3944980000000 1.0
C      1  0.4741120000000  0.5162610000000  0.5554620000000 1.0
C      1  0.4720110000000  0.5158080000000  0.5037470000000 1.0
C      1  0.5199670000000  0.4439340000000  0.4714010000000 1.0
C      1  0.4927750000000  0.4939670000000  0.3885310000000 1.0
C      1  0.5238320000000  0.5973010000000  0.4824740000000 1.0
C      1  0.4278990000000  0.4410270000000  0.4632650000000 1.0
C      1  0.4725660000000  0.3903590000000  0.5257030000000 1.0
C      1  0.5063540000000  0.5025000000000  0.6104510000000 1.0
C      1  0.4127810000000  0.5156350000000  0.4062210000000 1.0
C      1  0.4052080000000  0.4479950000000  0.5082940000000 1.0
C      1  0.4747160000000  0.4411230000000  0.4796810000000 1.0
C      1  0.5104150000000  0.5146550000000  0.4418280000000 1.0
C      1  0.5829490000000  0.4788970000000  0.5417580000000 1.0
C      1  0.5015240000000  0.4790800000000  0.4106480000000 1.0
C      1  0.4090350000000  0.4525810000000  0.4455080000000 1.0
C      1  0.5426930000000  0.4579730000000  0.4790620000000 1.0
C      1  0.4179910000000  0.4347440000000  0.4888710000000 1.0
C      1  0.5562990000000  0.5037420000000  0.4919300000000 1.0
C      1  0.6031740000000  0.5069750000000  0.5095630000000 1.0
C      1  0.5677080000000  0.4682850000000  0.4432120000000 1.0
C      1  0.5356400000000  0.4842020000000  0.4895450000000 1.0
C      1  0.5025060000000  0.5792210000000  0.4859780000000 1.0
C      1  0.4457790000000  0.4900330000000  0.5873700000000 1.0
C      1  0.4472640000000  0.5245300000000  0.4917110000000 1.0
C      1  0.3957680000000  0.5020150000000  0.4496930000000 1.0
C      1  0.4531510000000  0.5773050000000  0.4415830000000 1.0
C      1  0.4775440000000  0.5130140000000  0.3779590000000 1.0
C      1  0.5775700000000  0.5791290000000  0.5424120000000 1.0
C      1  0.4604060000000  0.4567970000000  0.5512930000000 1.0
C      1  0.4925580000000  0.5586770000000  0.4685790000000 1.0
C      1  0.5498010000000  0.5543770000000  0.4493280000000 1.0
C      1  0.5368940000000  0.5618440000000  0.4263850000000 1.0
C      1  0.5537810000000  0.6487830000000  0.5245760000000 1.0
C      1  0.4961810000000  0.5345450000000  0.5690330000000 1.0
C      1  0.5107740000000  0.5203540000000  0.5910110000000 1.0
C      1  0.4518890000000  0.5152620000000  0.5757650000000 1.0
C      1  0.4326700000000  0.4559510000000  0.5580650000000 1.0
C      1  0.4029540000000  0.4649450000000  0.3978560000000 1.0
C      1  0.5176980000000  0.4097930000000  0.5225710000000 1.0
C      1  0.5664690000000  0.6045840000000  0.5388640000000 1.0
C      1  0.4996430000000  0.4309920000000  0.4044260000000 1.0
C      1  0.5204760000000  0.4917850000000  0.4280160000000 1.0
C      1  0.3998490000000  0.4728670000000  0.5164260000000 1.0
C      1  0.4067480000000  0.4985170000000  0.5141830000000 1.0
C      1  0.5142180000000  0.5467010000000  0.5490860000000 1.0
C      1  0.5769880000000  0.5604450000000  0.4525650000000 1.0
C      1  0.4659790000000  0.5595270000000  0.4600920000000 1.0
C      1  0.5073570000000  0.5322140000000  0.4670100000000 1.0
C      1  0.5695440000000  0.4571260000000  0.4698140000000 1.0
C      1  0.5785410000000  0.4577590000000  0.5213920000000 1.0
C      1  0.4768780000000  0.5535660000000  0.5842170000000 1.0
C      1  0.5069640000000  0.4863560000000  0.4877090000000 1.0
C      1  0.5619350000000  0.4867650000000  0.5596160000000 1.0
C      1  0.3955780000000  0.4757540000000  0.4544170000000 1.0
C      1  0.4525160000000  0.5411380000000  0.5883960000000 1.0
C      1  0.6046740000000  0.5437030000000  0.5665760000000 1.0
C      1  0.4532750000000  0.3796500000000  0.5395700000000 1.0
C      1  0.4937380000000  0.5778280000000  0.5126310000000 1.0
C      1  0.5468180000000  0.5096100000000  0.5527610000000 1.0
C      1  0.4460670000000  0.5389210000000  0.4672110000000 1.0
C      1  0.5595070000000  0.4746610000000  0.5845900000000 1.0
C      1  0.4683200000000  0.4751950000000  0.5313540000000 1.0
C      1  0.4669770000000  0.4512940000000  0.4337210000000 1.0
C      1  0.4963880000000  0.4607860000000  0.4794560000000 1.0
C      1  0.5244590000000  0.4358380000000  0.5612010000000 1.0
C      1  0.4284300000000  0.5672530000000  0.4346080000000 1.0
C      1  0.5034500000000  0.5685090000000  0.5354730000000 1.0
C      1  0.4773900000000  0.4556830000000  0.5745980000000 1.0
C      1  0.4096480000000  0.5208980000000  0.4343070000000 1.0
C      1  0.5944230000000  0.5648390000000  0.4722630000000 1.0
C      1  0.4951860000000  0.5121810000000  0.4872820000000 1.0
C      1  0.4722960000000  0.5033890000000  0.5300070000000 1.0
C      1  0.4242470000000  0.5413080000000  0.4469710000000 1.0
C      1  0.4689010000000  0.4740450000000  0.5951140000000 1.0
C      1  0.5491380000000  0.5306690000000  0.4936610000000 1.0
C      1  0.4028750000000  0.4915950000000  0.3952890000000 1.0
C      1  0.4891360000000  0.4540130000000  0.4164080000000 1.0
C      1  0.5925570000000  0.5675100000000  0.5631840000000 1.0
C      1  0.6022560000000  0.5001190000000  0.5370600000000 1.0
C      1  0.5363350000000  0.5410600000000  0.4708600000000 1.0
C      1  0.5539450000000  0.6217620000000  0.5202180000000 1.0
C      1  0.3979510000000  0.4772960000000  0.5859890000000 1.0
C      1  0.4313140000000  0.5297460000000  0.3906380000000 1.0
C      1  0.4920300000000  0.4043120000000  0.5116090000000 1.0
C      1  0.5531290000000  0.5436320000000  0.5184280000000 1.0
C      1  0.4236520000000  0.4745990000000  0.5776360000000 1.0
C      1  0.5024460000000  0.4436100000000  0.5739580000000 1.0
C      1  0.5843500000000  0.4660150000000  0.4932210000000 1.0
C      1  0.4234140000000  0.5168270000000  0.5044210000000 1.0
C      1  0.5836250000000  0.4951150000000  0.4931780000000 1.0
C      1  0.5384100000000  0.5339040000000  0.5410370000000 1.0
C      1  0.5599910000000  0.4369660000000  0.5275740000000 1.0
C      1  0.5471140000000  0.4815910000000  0.4309690000000 1.0
C      1  0.5353130000000  0.4265580000000  0.5369740000000 1.0
C      1  0.4874160000000  0.4148380000000  0.4857100000000 1.0
C      1  0.4875580000000  0.4836190000000  0.6136980000000 1.0
C      1  0.5119330000000  0.4168310000000  0.4699790000000 1.0
C      1  0.4068520000000  0.4475130000000  0.4179530000000 1.0
C      1  0.5927870000000  0.5648680000000  0.4988610000000 1.0
C      1  0.4557150000000  0.4438470000000  0.4586590000000 1.0
C      1  0.5600690000000  0.4638150000000  0.6087580000000 1.0
C      1  0.6090450000000  0.5192090000000  0.5565500000000 1.0
END
