TITL C-247196-3112-288 1.13749068776304e-06 125000 -540.28678524838 0 0 90 (C1) n - 1
REM
REM in /home/nfs/bkarasulu/CARBON/AIRSS/Generating-Clusters/LCBOP/Only-C1/SD-CG/FIRE-HFTN
REM
REM
REM
REM
REM
REM ./C.cell (11c1c37f851c82e70ff6c80c92926a4b)
REM AIRSS Version 0.9.1 bugfix July 2018 build 013d7b7c2542+ Fri, 06 Jul 2018 19:26:36 +0100
REM compiler GCC version 9.2.1 20190827 (Red Hat 9.2.1-1)
REM options -cpp -mtune=generic -march=x86-64 -g -O0 -fpre-include=/usr/include/finclude/math-vector-fortran.h
REM seed 487290606 966108048 1837100465 -1086777973 -1448857114 2097438938 1474556439 -298280260 956825079 -1051828004 -196695860 -1994090500 -875682642 1469347781 1450381849 1278706239 -710782605 -1341833524 1950569320 -362084701 -1567108795 -1080692184 -747827311 1142788650 -1566576610 246082330 -569863803 1602554394 1562434870 170937831 -2050071862 1749400554 159757296
REM
CELL 1.54180   50.00000   50.00000   50.00000   90.00000   90.00000   90.00000
LATT -1
SFAC C  
C      1  0.4840570000000  0.4800280000000  0.4860920000000 1.0
C      1  0.6070840000000  0.5011580000000  0.4639500000000 1.0
C      1  0.4820150000000  0.5853340000000  0.5316470000000 1.0
C      1  0.4668500000000  0.4169280000000  0.4493250000000 1.0
C      1  0.4539600000000  0.5506790000000  0.5118500000000 1.0
C      1  0.4968990000000  0.5041740000000  0.4721890000000 1.0
C      1  0.5948480000000  0.4848380000000  0.4426770000000 1.0
C      1  0.6096200000000  0.4812930000000  0.4196000000000 1.0
C      1  0.5387720000000  0.5732130000000  0.4596610000000 1.0
C      1  0.5298170000000  0.4730140000000  0.5694960000000 1.0
C      1  0.5673770000000  0.5714550000000  0.4677370000000 1.0
C      1  0.5333410000000  0.5395360000000  0.5634580000000 1.0
C      1  0.4074970000000  0.4481880000000  0.5510230000000 1.0
C      1  0.5495350000000  0.5184310000000  0.5728760000000 1.0
C      1  0.5251540000000  0.5487730000000  0.4957200000000 1.0
C      1  0.5372310000000  0.4695960000000  0.5423250000000 1.0
C      1  0.5440320000000  0.5498400000000  0.5389140000000 1.0
C      1  0.5039970000000  0.6034720000000  0.4885970000000 1.0
C      1  0.5390640000000  0.4951010000000  0.5852820000000 1.0
C      1  0.4238530000000  0.4265100000000  0.5577880000000 1.0
C      1  0.5215330000000  0.4791700000000  0.5208270000000 1.0
C      1  0.5487400000000  0.5264230000000  0.4513200000000 1.0
C      1  0.6323520000000  0.5113940000000  0.4613540000000 1.0
C      1  0.5108800000000  0.4669150000000  0.4962950000000 1.0
C      1  0.4442490000000  0.5117920000000  0.5743020000000 1.0
C      1  0.5191630000000  0.5088230000000  0.5151360000000 1.0
C      1  0.5446240000000  0.4632950000000  0.4523950000000 1.0
C      1  0.5340960000000  0.5768600000000  0.5323640000000 1.0
C      1  0.5754850000000  0.5177570000000  0.5606340000000 1.0
C      1  0.5685920000000  0.4643090000000  0.4900440000000 1.0
C      1  0.3902370000000  0.4475130000000  0.5290940000000 1.0
C      1  0.4840030000000  0.4365800000000  0.4589850000000 1.0
C      1  0.3951350000000  0.4585150000000  0.4352210000000 1.0
C      1  0.4906740000000  0.5100990000000  0.4451130000000 1.0
C      1  0.5466470000000  0.5075560000000  0.4723600000000 1.0
C      1  0.5358260000000  0.5334910000000  0.5175840000000 1.0
C      1  0.5619880000000  0.4446600000000  0.5095480000000 1.0
C      1  0.3797190000000  0.4556850000000  0.5061220000000 1.0
C      1  0.4938370000000  0.4351860000000  0.5820500000000 1.0
C      1  0.5864560000000  0.5500590000000  0.5086760000000 1.0
C      1  0.5845740000000  0.4781080000000  0.5369080000000 1.0
C      1  0.5041850000000  0.5349260000000  0.4369920000000 1.0
C      1  0.5285340000000  0.5906590000000  0.4826810000000 1.0
C      1  0.4625580000000  0.4809870000000  0.4132370000000 1.0
C      1  0.4759490000000  0.4648510000000  0.4601280000000 1.0
C      1  0.4866740000000  0.6023420000000  0.5093500000000 1.0
C      1  0.4051210000000  0.4422210000000  0.3912040000000 1.0
C      1  0.3825930000000  0.4629400000000  0.4581540000000 1.0
C      1  0.4431380000000  0.5038100000000  0.5085570000000 1.0
C      1  0.5628360000000  0.4595820000000  0.5343800000000 1.0
C      1  0.5260170000000  0.4135800000000  0.4858640000000 1.0
C      1  0.4496890000000  0.3998840000000  0.4396220000000 1.0
C      1  0.4879030000000  0.4922100000000  0.3669240000000 1.0
C      1  0.4470230000000  0.4178270000000  0.5675120000000 1.0
C      1  0.4859750000000  0.5278570000000  0.5516360000000 1.0
C      1  0.5247420000000  0.4562370000000  0.4718610000000 1.0
C      1  0.4116620000000  0.4721670000000  0.5649130000000 1.0
C      1  0.4761540000000  0.4851900000000  0.4376130000000 1.0
C      1  0.5671130000000  0.4920850000000  0.4845080000000 1.0
C      1  0.4334260000000  0.5309780000000  0.5083190000000 1.0
C      1  0.4890740000000  0.5159350000000  0.5225860000000 1.0
C      1  0.5467230000000  0.4216910000000  0.5021340000000 1.0
C      1  0.4064850000000  0.5354400000000  0.5029460000000 1.0
C      1  0.5125890000000  0.4538900000000  0.5805590000000 1.0
C      1  0.5688320000000  0.4720850000000  0.4432480000000 1.0
C      1  0.4121550000000  0.4571080000000  0.4130510000000 1.0
C      1  0.5107170000000  0.4307780000000  0.4684950000000 1.0
C      1  0.5870110000000  0.5067250000000  0.5370470000000 1.0
C      1  0.4500130000000  0.5581630000000  0.5583370000000 1.0
C      1  0.4364620000000  0.4709620000000  0.4134120000000 1.0
C      1  0.4793750000000  0.5406680000000  0.5046110000000 1.0
C      1  0.4258800000000  0.4926590000000  0.5739570000000 1.0
C      1  0.3770650000000  0.4724250000000  0.4838440000000 1.0
C      1  0.5056120000000  0.5479900000000  0.5598070000000 1.0
C      1  0.4716450000000  0.4216260000000  0.5767260000000 1.0
C      1  0.5295060000000  0.5477750000000  0.4461370000000 1.0
C      1  0.5381260000000  0.4937570000000  0.6126490000000 1.0
C      1  0.4700360000000  0.4941260000000  0.5096200000000 1.0
C      1  0.3841520000000  0.5231740000000  0.4951330000000 1.0
C      1  0.5919020000000  0.5218350000000  0.5119800000000 1.0
C      1  0.5214880000000  0.5071850000000  0.4844200000000 1.0
C      1  0.3733600000000  0.4999080000000  0.4879790000000 1.0
C      1  0.5059150000000  0.5745380000000  0.5442900000000 1.0
C      1  0.4991930000000  0.5523150000000  0.4894970000000 1.0
C      1  0.5915980000000  0.5060050000000  0.4875920000000 1.0
C      1  0.4752920000000  0.4865360000000  0.3890130000000 1.0
C      1  0.5461760000000  0.5855540000000  0.5070380000000 1.0
C      1  0.4572010000000  0.5698450000000  0.5333600000000 1.0
C      1  0.4601020000000  0.5319210000000  0.5636820000000 1.0
C      1  0.5712070000000  0.5712960000000  0.4968530000000 1.0
END
