TITL C-247195-3186-18 0.0994484136004141 125000 -910.490252164357 0 0 149 (C1) n - 1
REM
REM in /home/nfs/bkarasulu/CARBON/AIRSS/Generating-Clusters/LCBOP/Only-C1/SD-CG/FIRE-HFTN
REM
REM
REM
REM
REM
REM ./C.cell (11c1c37f851c82e70ff6c80c92926a4b)
REM AIRSS Version 0.9.1 bugfix July 2018 build 013d7b7c2542+ Fri, 06 Jul 2018 19:26:36 +0100
REM compiler GCC version 9.2.1 20190827 (Red Hat 9.2.1-1)
REM options -cpp -mtune=generic -march=x86-64 -g -O0 -fpre-include=/usr/include/finclude/math-vector-fortran.h
REM seed -674078949 -699556196 731162517 1730006393 -227484633 1304707059 -655240665 2120442295 1821583812 763120450 903628366 513804406 -1271242395 -558908626 989783029 357916839 -414848975 244352909 -927537287 -1029461750 -2057589259 326010584 -1054546890 1869762726 949131829 -520764064 -448281896 2067472153 -393527062 -169446050 1562693594 -239350810 -409442321
REM
CELL 1.54180   50.00000   50.00000   50.00000   90.00000   90.00000   90.00000
LATT -1
SFAC C  
C      1  0.5361120000000  0.4594210000000  0.6050290000000 1.0
C      1  0.5489990000000  0.4676450000000  0.5187950000000 1.0
C      1  0.5154900000000  0.5858000000000  0.5340160000000 1.0
C      1  0.4497060000000  0.5044150000000  0.4954910000000 1.0
C      1  0.5169260000000  0.5149930000000  0.5607670000000 1.0
C      1  0.4980150000000  0.5715180000000  0.5979050000000 1.0
C      1  0.5747190000000  0.5616260000000  0.5407160000000 1.0
C      1  0.4377840000000  0.5458930000000  0.5981210000000 1.0
C      1  0.5398830000000  0.5555760000000  0.4300390000000 1.0
C      1  0.5210930000000  0.4624770000000  0.6274010000000 1.0
C      1  0.5048400000000  0.5063490000000  0.6283580000000 1.0
C      1  0.4349040000000  0.5282570000000  0.4964930000000 1.0
C      1  0.4524700000000  0.6031300000000  0.5385130000000 1.0
C      1  0.5686710000000  0.4232630000000  0.4898010000000 1.0
C      1  0.4354640000000  0.5807900000000  0.5434300000000 1.0
C      1  0.5272020000000  0.6117060000000  0.4455010000000 1.0
C      1  0.5444070000000  0.5712480000000  0.5788530000000 1.0
C      1  0.4716320000000  0.4159340000000  0.4377780000000 1.0
C      1  0.4889170000000  0.4016670000000  0.4551960000000 1.0
C      1  0.5432690000000  0.4775410000000  0.4950270000000 1.0
C      1  0.5017920000000  0.6124990000000  0.4867740000000 1.0
C      1  0.5918170000000  0.4932680000000  0.5489430000000 1.0
C      1  0.5723890000000  0.5568490000000  0.5115060000000 1.0
C      1  0.4892210000000  0.5188990000000  0.4184170000000 1.0
C      1  0.5194070000000  0.5202590000000  0.6086200000000 1.0
C      1  0.5684880000000  0.5476920000000  0.4274830000000 1.0
C      1  0.4728800000000  0.4623550000000  0.4515680000000 1.0
C      1  0.6140690000000  0.5654180000000  0.4274960000000 1.0
C      1  0.5512320000000  0.4464190000000  0.3560200000000 1.0
C      1  0.4828800000000  0.4478230000000  0.4956180000000 1.0
C      1  0.5224020000000  0.5574950000000  0.5362050000000 1.0
C      1  0.5286820000000  0.5464300000000  0.4048590000000 1.0
C      1  0.5298370000000  0.4660360000000  0.5752110000000 1.0
C      1  0.5137830000000  0.4080860000000  0.5861220000000 1.0
C      1  0.4557690000000  0.3984210000000  0.5197330000000 1.0
C      1  0.4858590000000  0.4480090000000  0.5943100000000 1.0
C      1  0.5865220000000  0.5697730000000  0.4284920000000 1.0
C      1  0.5356400000000  0.5023070000000  0.4550680000000 1.0
C      1  0.3980870000000  0.4622070000000  0.4115340000000 1.0
C      1  0.5601590000000  0.4594280000000  0.4012010000000 1.0
C      1  0.4590590000000  0.5447710000000  0.5811120000000 1.0
C      1  0.4772040000000  0.4974190000000  0.5486740000000 1.0
C      1  0.5029410000000  0.5312420000000  0.4585600000000 1.0
C      1  0.5515650000000  0.5204130000000  0.4746170000000 1.0
C      1  0.5364980000000  0.4966810000000  0.5737330000000 1.0
C      1  0.4622630000000  0.4587180000000  0.5101890000000 1.0
C      1  0.5735530000000  0.4503340000000  0.4464780000000 1.0
C      1  0.4109080000000  0.4156260000000  0.4008830000000 1.0
C      1  0.6089530000000  0.4844020000000  0.5286880000000 1.0
C      1  0.6315190000000  0.5451680000000  0.4283570000000 1.0
C      1  0.4798660000000  0.4701010000000  0.5525570000000 1.0
C      1  0.6104150000000  0.5000930000000  0.4275890000000 1.0
C      1  0.5962840000000  0.4242020000000  0.4948030000000 1.0
C      1  0.5160300000000  0.4464990000000  0.3880850000000 1.0
C      1  0.3857790000000  0.4783860000000  0.5018380000000 1.0
C      1  0.4449940000000  0.5792500000000  0.4801950000000 1.0
C      1  0.5746780000000  0.5382840000000  0.5591260000000 1.0
C      1  0.4741140000000  0.5232480000000  0.5388290000000 1.0
C      1  0.5316710000000  0.4290730000000  0.4582240000000 1.0
C      1  0.5326100000000  0.4771790000000  0.4691230000000 1.0
C      1  0.4917690000000  0.4532670000000  0.4702400000000 1.0
C      1  0.5530140000000  0.6009200000000  0.4515630000000 1.0
C      1  0.4374240000000  0.4402390000000  0.5442190000000 1.0
C      1  0.4627820000000  0.4413980000000  0.4357980000000 1.0
C      1  0.4765780000000  0.3856870000000  0.4757080000000 1.0
C      1  0.4672510000000  0.5642070000000  0.4378560000000 1.0
C      1  0.5215960000000  0.5070850000000  0.4273940000000 1.0
C      1  0.5042190000000  0.5961820000000  0.5576330000000 1.0
C      1  0.3886280000000  0.4661990000000  0.4362750000000 1.0
C      1  0.5565500000000  0.5422650000000  0.5830240000000 1.0
C      1  0.4822220000000  0.5889180000000  0.4456050000000 1.0
C      1  0.5175440000000  0.4047200000000  0.4523480000000 1.0
C      1  0.4614000000000  0.4545110000000  0.5379810000000 1.0
C      1  0.5672520000000  0.5195170000000  0.4164300000000 1.0
C      1  0.5456810000000  0.5167230000000  0.5953420000000 1.0
C      1  0.3696610000000  0.4663990000000  0.4817930000000 1.0
C      1  0.4848330000000  0.5286700000000  0.5127130000000 1.0
C      1  0.4497970000000  0.4774970000000  0.6054410000000 1.0
C      1  0.5524670000000  0.5837900000000  0.4744380000000 1.0
C      1  0.4143860000000  0.4577520000000  0.5450280000000 1.0
C      1  0.6297440000000  0.5184700000000  0.4289170000000 1.0
C      1  0.4924530000000  0.4207700000000  0.5969500000000 1.0
C      1  0.5102280000000  0.5687760000000  0.4942420000000 1.0
C      1  0.5033060000000  0.5267620000000  0.5848230000000 1.0
C      1  0.5730880000000  0.5136960000000  0.5444530000000 1.0
C      1  0.4982620000000  0.4610510000000  0.5717650000000 1.0
C      1  0.5422920000000  0.4506690000000  0.3815410000000 1.0
C      1  0.4695410000000  0.5004100000000  0.4234600000000 1.0
C      1  0.4770790000000  0.6055190000000  0.5535960000000 1.0
C      1  0.4819940000000  0.5472790000000  0.4174790000000 1.0
C      1  0.3822640000000  0.4529500000000  0.4603190000000 1.0
C      1  0.3884750000000  0.4254940000000  0.4617280000000 1.0
C      1  0.3978590000000  0.4049160000000  0.4473750000000 1.0
C      1  0.4223490000000  0.5372660000000  0.4718200000000 1.0
C      1  0.4071580000000  0.4419030000000  0.3964770000000 1.0
C      1  0.5943200000000  0.4821340000000  0.5738890000000 1.0
C      1  0.4754770000000  0.4675030000000  0.6128450000000 1.0
C      1  0.3961120000000  0.5233270000000  0.4757470000000 1.0
C      1  0.5342640000000  0.4168050000000  0.5707930000000 1.0
C      1  0.4862050000000  0.5092150000000  0.4667220000000 1.0
C      1  0.3423750000000  0.4677580000000  0.4832860000000 1.0
C      1  0.4223160000000  0.5364380000000  0.5209330000000 1.0
C      1  0.4299700000000  0.4806720000000  0.5871900000000 1.0
C      1  0.4010270000000  0.5181910000000  0.5264490000000 1.0
C      1  0.5597970000000  0.4314810000000  0.4635020000000 1.0
C      1  0.4382020000000  0.6052030000000  0.4894070000000 1.0
C      1  0.4028480000000  0.5038990000000  0.5511180000000 1.0
C      1  0.4784220000000  0.3925760000000  0.5035150000000 1.0
C      1  0.4069600000000  0.4001770000000  0.4225580000000 1.0
C      1  0.5235440000000  0.5507800000000  0.4530660000000 1.0
C      1  0.4564160000000  0.5399580000000  0.5533820000000 1.0
C      1  0.5104220000000  0.5945000000000  0.5074320000000 1.0
C      1  0.5596950000000  0.5313270000000  0.5011020000000 1.0
C      1  0.4877320000000  0.5543130000000  0.5019870000000 1.0
C      1  0.5171800000000  0.5838110000000  0.5810560000000 1.0
C      1  0.4629960000000  0.3629520000000  0.4684690000000 1.0
C      1  0.5409520000000  0.4419720000000  0.5587850000000 1.0
C      1  0.5744340000000  0.5950380000000  0.4339900000000 1.0
C      1  0.4392930000000  0.5594960000000  0.4589500000000 1.0
C      1  0.5045450000000  0.3943460000000  0.5138730000000 1.0
C      1  0.4443430000000  0.4774840000000  0.4993670000000 1.0
C      1  0.5015610000000  0.6070140000000  0.4579610000000 1.0
C      1  0.5318640000000  0.3831370000000  0.4430930000000 1.0
C      1  0.3904720000000  0.5070020000000  0.5010990000000 1.0
C      1  0.5028810000000  0.5573200000000  0.4000550000000 1.0
C      1  0.5727260000000  0.4688840000000  0.4245270000000 1.0
C      1  0.5620220000000  0.5819560000000  0.5571340000000 1.0
C      1  0.4641270000000  0.5678870000000  0.4973510000000 1.0
C      1  0.5511390000000  0.5183760000000  0.5257010000000 1.0
C      1  0.4354960000000  0.5529540000000  0.5396020000000 1.0
C      1  0.6192570000000  0.4648950000000  0.5138740000000 1.0
C      1  0.4771340000000  0.5100830000000  0.4930700000000 1.0
C      1  0.4394330000000  0.4131970000000  0.5355400000000 1.0
C      1  0.3975240000000  0.4617630000000  0.5221050000000 1.0
C      1  0.5298340000000  0.5665400000000  0.4750640000000 1.0
C      1  0.5828840000000  0.4960750000000  0.4233360000000 1.0
C      1  0.5301530000000  0.4017240000000  0.5137180000000 1.0
C      1  0.5183780000000  0.4536400000000  0.4627520000000 1.0
C      1  0.4853990000000  0.5477150000000  0.5897640000000 1.0
C      1  0.4975490000000  0.4789120000000  0.6282460000000 1.0
C      1  0.5488460000000  0.4428650000000  0.5314180000000 1.0
C      1  0.4148760000000  0.4807240000000  0.5629700000000 1.0
C      1  0.4461240000000  0.6156910000000  0.5135190000000 1.0
C      1  0.5723430000000  0.5784830000000  0.4933370000000 1.0
C      1  0.5506540000000  0.4208800000000  0.5126410000000 1.0
C      1  0.5273310000000  0.5294440000000  0.5384910000000 1.0
C      1  0.5390300000000  0.5182690000000  0.4066930000000 1.0
C      1  0.6153510000000  0.4411490000000  0.5025080000000 1.0
C      1  0.4722910000000  0.4901750000000  0.4491740000000 1.0
END
