TITL C-247195-3186-73 122.953853628956 125000 -1145.93402357102 0 0 184 (C1) n - 1
REM
REM in /home/nfs/bkarasulu/CARBON/AIRSS/Generating-Clusters/LCBOP/Only-C1/SD-CG/FIRE-HFTN
REM
REM
REM
REM
REM
REM ./C.cell (11c1c37f851c82e70ff6c80c92926a4b)
REM AIRSS Version 0.9.1 bugfix July 2018 build 013d7b7c2542+ Fri, 06 Jul 2018 19:26:36 +0100
REM compiler GCC version 9.2.1 20190827 (Red Hat 9.2.1-1)
REM options -cpp -mtune=generic -march=x86-64 -g -O0 -fpre-include=/usr/include/finclude/math-vector-fortran.h
REM seed 2054369781 469937714 -1693074768 1223141018 477085040 922415811 836484043 198116422 184586091 1569878852 2098085443 -1960224143 -20490319 597342600 256827068 2130201115 1612143078 -918126506 -765444825 -1777222702 286202471 -525664299 -559359183 177949613 -1272260537 1375107062 950317799 1184736647 1629716962 -1905496149 -276358671 -208000676 -1192333908
REM
CELL 1.54180   50.00000   50.00000   50.00000   90.00000   90.00000   90.00000
LATT -1
SFAC C  
C      1  0.5060220000000  0.6445850000000  0.5107780000000 1.0
C      1  0.5700670000000  0.4221560000000  0.4519540000000 1.0
C      1  0.5772530000000  0.4070640000000  0.5608110000000 1.0
C      1  0.5498220000000  0.6037820000000  0.5298890000000 1.0
C      1  0.4522780000000  0.4425120000000  0.4683300000000 1.0
C      1  0.4192460000000  0.4880070000000  0.4242410000000 1.0
C      1  0.3826080000000  0.4308250000000  0.5082580000000 1.0
C      1  0.5645050000000  0.5039320000000  0.4100860000000 1.0
C      1  0.4176900000000  0.4993490000000  0.4531130000000 1.0
C      1  0.3468540000000  0.5757620000000  0.4195610000000 1.0
C      1  0.4976300000000  0.5062570000000  0.4792870000000 1.0
C      1  0.5134810000000  0.6202720000000  0.4984260000000 1.0
C      1  0.5313670000000  0.5558910000000  0.4433950000000 1.0
C      1  0.4424910000000  0.4383090000000  0.5632520000000 1.0
C      1  0.3577930000000  0.4929750000000  0.4749700000000 1.0
C      1  0.5814500000000  0.5643520000000  0.5103670000000 1.0
C      1  0.5614180000000  0.4263590000000  0.4243130000000 1.0
C      1  0.4732460000000  0.4422430000000  0.6163140000000 1.0
C      1  0.5157180000000  0.3895880000000  0.5182960000000 1.0
C      1  0.4215630000000  0.4363080000000  0.4209880000000 1.0
C      1  0.5071580000000  0.6498800000000  0.5641570000000 1.0
C      1  0.4093220000000  0.4622620000000  0.4158530000000 1.0
C      1  0.5028960000000  0.5824320000000  0.5270160000000 1.0
C      1  0.4431610000000  0.3913860000000  0.5176790000000 1.0
C      1  0.6373850000000  0.4548350000000  0.4649620000000 1.0
C      1  0.4062550000000  0.4175120000000  0.4356300000000 1.0
C      1  0.3613180000000  0.5342080000000  0.4482970000000 1.0
C      1  0.4548960000000  0.4124540000000  0.5666750000000 1.0
C      1  0.4795940000000  0.5036720000000  0.5679470000000 1.0
C      1  0.4794320000000  0.4512130000000  0.4615080000000 1.0
C      1  0.6096070000000  0.5242590000000  0.5228200000000 1.0
C      1  0.5053850000000  0.5527730000000  0.4573460000000 1.0
C      1  0.5413200000000  0.5088600000000  0.5443390000000 1.0
C      1  0.4720060000000  0.4051110000000  0.4523780000000 1.0
C      1  0.6247550000000  0.5256230000000  0.4526360000000 1.0
C      1  0.6022500000000  0.5084890000000  0.5463400000000 1.0
C      1  0.4487590000000  0.4195020000000  0.3842610000000 1.0
C      1  0.4935200000000  0.4612960000000  0.4831580000000 1.0
C      1  0.3626640000000  0.4625590000000  0.3883950000000 1.0
C      1  0.5513670000000  0.5723160000000  0.4018180000000 1.0
C      1  0.5054330000000  0.4913680000000  0.4342720000000 1.0
C      1  0.5386780000000  0.5564160000000  0.4882990000000 1.0
C      1  0.4853080000000  0.4252660000000  0.5127550000000 1.0
C      1  0.6307590000000  0.5074540000000  0.4741520000000 1.0
C      1  0.4984080000000  0.4019950000000  0.4656450000000 1.0
C      1  0.4246590000000  0.5937020000000  0.5825890000000 1.0
C      1  0.5113580000000  0.4513190000000  0.5920320000000 1.0
C      1  0.5072400000000  0.6718990000000  0.5804030000000 1.0
C      1  0.5419970000000  0.4988630000000  0.6136550000000 1.0
C      1  0.4515820000000  0.4799150000000  0.5965880000000 1.0
C      1  0.5309820000000  0.4235230000000  0.4245840000000 1.0
C      1  0.5326230000000  0.5527270000000  0.5934090000000 1.0
C      1  0.5699570000000  0.4692650000000  0.4973570000000 1.0
C      1  0.5043000000000  0.4393900000000  0.5287490000000 1.0
C      1  0.4934720000000  0.5611770000000  0.5088250000000 1.0
C      1  0.5099100000000  0.6241090000000  0.5753440000000 1.0
C      1  0.5992240000000  0.5510240000000  0.5274780000000 1.0
C      1  0.5391450000000  0.4049290000000  0.5265510000000 1.0
C      1  0.4136650000000  0.4637220000000  0.4898370000000 1.0
C      1  0.4970970000000  0.3904710000000  0.5660550000000 1.0
C      1  0.5165850000000  0.4982690000000  0.4590410000000 1.0
C      1  0.4304240000000  0.4874330000000  0.5300830000000 1.0
C      1  0.6226820000000  0.5771100000000  0.4644990000000 1.0
C      1  0.4069780000000  0.5233320000000  0.4971200000000 1.0
C      1  0.4926370000000  0.5849680000000  0.5536320000000 1.0
C      1  0.5259890000000  0.4696450000000  0.5535540000000 1.0
C      1  0.5230490000000  0.4489660000000  0.4117740000000 1.0
C      1  0.4497630000000  0.5862480000000  0.5774560000000 1.0
C      1  0.5616070000000  0.5525840000000  0.5897390000000 1.0
C      1  0.4686330000000  0.5099870000000  0.4808490000000 1.0
C      1  0.4919640000000  0.4859730000000  0.6270640000000 1.0
C      1  0.5830450000000  0.4871380000000  0.5443870000000 1.0
C      1  0.5181120000000  0.4939460000000  0.6260180000000 1.0
C      1  0.4544170000000  0.5067070000000  0.5825510000000 1.0
C      1  0.5441380000000  0.4776660000000  0.4877370000000 1.0
C      1  0.4906550000000  0.4317350000000  0.5961950000000 1.0
C      1  0.4909460000000  0.5191130000000  0.3880720000000 1.0
C      1  0.5193240000000  0.5778420000000  0.5933570000000 1.0
C      1  0.4922420000000  0.5479870000000  0.3930580000000 1.0
C      1  0.5043290000000  0.6529690000000  0.5362360000000 1.0
C      1  0.4598210000000  0.4908370000000  0.5224750000000 1.0
C      1  0.5229340000000  0.6012310000000  0.5181880000000 1.0
C      1  0.5457510000000  0.4157260000000  0.4668300000000 1.0
C      1  0.6402500000000  0.4812640000000  0.4690740000000 1.0
C      1  0.4598390000000  0.5870800000000  0.4289380000000 1.0
C      1  0.4011050000000  0.5887180000000  0.5708730000000 1.0
C      1  0.4813690000000  0.4107730000000  0.5783080000000 1.0
C      1  0.4478800000000  0.3942440000000  0.5445560000000 1.0
C      1  0.5921410000000  0.4478410000000  0.3913190000000 1.0
C      1  0.5861110000000  0.4491600000000  0.5916090000000 1.0
C      1  0.6078740000000  0.5168810000000  0.4317340000000 1.0
C      1  0.4635440000000  0.5179450000000  0.5082790000000 1.0
C      1  0.5776820000000  0.5272850000000  0.5903450000000 1.0
C      1  0.4844000000000  0.5108350000000  0.4328540000000 1.0
C      1  0.5681930000000  0.4460050000000  0.4040640000000 1.0
C      1  0.4593250000000  0.5539140000000  0.5413880000000 1.0
C      1  0.3724360000000  0.5142650000000  0.4640840000000 1.0
C      1  0.5502450000000  0.5475310000000  0.4633880000000 1.0
C      1  0.4872420000000  0.5368530000000  0.4432710000000 1.0
C      1  0.4696140000000  0.4706870000000  0.6168200000000 1.0
C      1  0.5307990000000  0.5022090000000  0.5197790000000 1.0
C      1  0.6195500000000  0.4345370000000  0.4626210000000 1.0
C      1  0.4372340000000  0.4632930000000  0.5760360000000 1.0
C      1  0.3653870000000  0.4713730000000  0.4886980000000 1.0
C      1  0.5834070000000  0.4811110000000  0.4503360000000 1.0
C      1  0.5914080000000  0.4366420000000  0.4643130000000 1.0
C      1  0.3535950000000  0.5549310000000  0.4337110000000 1.0
C      1  0.5029640000000  0.4643690000000  0.4235850000000 1.0
C      1  0.4716080000000  0.5438490000000  0.5179990000000 1.0
C      1  0.5084950000000  0.6138960000000  0.4709870000000 1.0
C      1  0.3873210000000  0.4559540000000  0.4967380000000 1.0
C      1  0.4408030000000  0.4397280000000  0.5346120000000 1.0
C      1  0.5946960000000  0.5552890000000  0.5557770000000 1.0
C      1  0.5707310000000  0.6100540000000  0.5111950000000 1.0
C      1  0.5180460000000  0.4771010000000  0.5801260000000 1.0
C      1  0.4998130000000  0.4655010000000  0.5403850000000 1.0
C      1  0.4043600000000  0.5521030000000  0.5350210000000 1.0
C      1  0.5874240000000  0.5902580000000  0.4999090000000 1.0
C      1  0.5104180000000  0.5084620000000  0.5042070000000 1.0
C      1  0.5094340000000  0.5574720000000  0.4856720000000 1.0
C      1  0.5221250000000  0.4584780000000  0.4871970000000 1.0
C      1  0.5584570000000  0.5208130000000  0.4643600000000 1.0
C      1  0.4640470000000  0.4683740000000  0.5034670000000 1.0
C      1  0.5596510000000  0.5921000000000  0.5547320000000 1.0
C      1  0.4471710000000  0.4945940000000  0.4634120000000 1.0
C      1  0.5196680000000  0.5309980000000  0.5786680000000 1.0
C      1  0.4358340000000  0.3988200000000  0.4906760000000 1.0
C      1  0.5025290000000  0.5699970000000  0.4088400000000 1.0
C      1  0.5030090000000  0.3793310000000  0.5419540000000 1.0
C      1  0.4981340000000  0.4027430000000  0.4971700000000 1.0
C      1  0.4081220000000  0.3969790000000  0.4833140000000 1.0
C      1  0.4002260000000  0.5137520000000  0.4708040000000 1.0
C      1  0.3854070000000  0.4622410000000  0.4011130000000 1.0
C      1  0.4290680000000  0.5115500000000  0.5679010000000 1.0
C      1  0.4224030000000  0.5811640000000  0.4655260000000 1.0
C      1  0.5446080000000  0.4625270000000  0.3986550000000 1.0
C      1  0.6231260000000  0.5150380000000  0.5002690000000 1.0
C      1  0.4798820000000  0.4864000000000  0.5443700000000 1.0
C      1  0.5813380000000  0.4747940000000  0.5979300000000 1.0
C      1  0.4698080000000  0.4228610000000  0.4278510000000 1.0
C      1  0.4602340000000  0.4985720000000  0.4361910000000 1.0
C      1  0.5846080000000  0.4259060000000  0.5783990000000 1.0
C      1  0.5353080000000  0.4333780000000  0.4858140000000 1.0
C      1  0.5401320000000  0.5534350000000  0.5357770000000 1.0
C      1  0.5323480000000  0.4320360000000  0.5302680000000 1.0
C      1  0.3940480000000  0.5724840000000  0.5508560000000 1.0
C      1  0.5425350000000  0.4913660000000  0.3965840000000 1.0
C      1  0.5227200000000  0.4092090000000  0.4495740000000 1.0
C      1  0.5173280000000  0.5047490000000  0.3881130000000 1.0
C      1  0.4020790000000  0.4007990000000  0.4560390000000 1.0
C      1  0.5619820000000  0.3970450000000  0.5410280000000 1.0
C      1  0.4878450000000  0.5889760000000  0.4259800000000 1.0
C      1  0.5298710000000  0.5662570000000  0.4173550000000 1.0
C      1  0.4448450000000  0.4967640000000  0.4121750000000 1.0
C      1  0.5711810000000  0.4671920000000  0.5264850000000 1.0
C      1  0.6297920000000  0.5530680000000  0.4554630000000 1.0
C      1  0.5010640000000  0.6047310000000  0.4465090000000 1.0
C      1  0.5055600000000  0.5049790000000  0.5807210000000 1.0
C      1  0.5426820000000  0.4979890000000  0.4683890000000 1.0
C      1  0.5645810000000  0.4996840000000  0.5920170000000 1.0
C      1  0.5853370000000  0.5001780000000  0.4293040000000 1.0
C      1  0.4381710000000  0.5848310000000  0.4443500000000 1.0
C      1  0.4835490000000  0.4476270000000  0.4342940000000 1.0
C      1  0.4636600000000  0.5060300000000  0.3909340000000 1.0
C      1  0.4109400000000  0.5714540000000  0.4875580000000 1.0
C      1  0.3892790000000  0.4055720000000  0.5022820000000 1.0
C      1  0.5602550000000  0.4959800000000  0.5607820000000 1.0
C      1  0.4049980000000  0.5512390000000  0.5058560000000 1.0
C      1  0.5731190000000  0.5706320000000  0.5684750000000 1.0
C      1  0.5975100000000  0.5284730000000  0.5686090000000 1.0
C      1  0.4612730000000  0.4410450000000  0.5155840000000 1.0
C      1  0.4251070000000  0.4829800000000  0.5580790000000 1.0
C      1  0.4512170000000  0.4136340000000  0.4714610000000 1.0
C      1  0.4147390000000  0.5271220000000  0.5460480000000 1.0
C      1  0.5840370000000  0.4631540000000  0.4725890000000 1.0
C      1  0.5074790000000  0.5961430000000  0.5752490000000 1.0
C      1  0.4668260000000  0.5746100000000  0.5587680000000 1.0
C      1  0.4420890000000  0.4676470000000  0.4810720000000 1.0
C      1  0.5473010000000  0.4547910000000  0.5392030000000 1.0
C      1  0.5319110000000  0.5333900000000  0.5528750000000 1.0
C      1  0.4467840000000  0.4261220000000  0.4108280000000 1.0
C      1  0.4142300000000  0.5092570000000  0.5212130000000 1.0
C      1  0.5537710000000  0.5574200000000  0.5115740000000 1.0
C      1  0.6069470000000  0.5919720000000  0.4801210000000 1.0
END
