TITL C-247199-3331-288 -1.65221186620087e-06 125000 -1153.37506103954 0 0 188 (C1) n - 1
REM
REM in /home/nfs/bkarasulu/CARBON/AIRSS/Generating-Clusters/LCBOP/Only-C1/SD-CG/FIRE-HFTN
REM
REM
REM
REM
REM
REM ./C.cell (11c1c37f851c82e70ff6c80c92926a4b)
REM AIRSS Version 0.9.1 bugfix July 2018 build 013d7b7c2542+ Fri, 06 Jul 2018 19:26:36 +0100
REM compiler GCC version 9.2.1 20190827 (Red Hat 9.2.1-1)
REM options -cpp -mtune=generic -march=x86-64 -g -O0 -fpre-include=/usr/include/finclude/math-vector-fortran.h
REM seed -759296299 1826856729 1543825957 -600588563 101670404 -670614948 -666191285 -1259608327 -1556270844 219964485 1072770312 -475535198 942982038 -968439724 -1703876992 2129585560 -33516675 306714751 -2117809539 322521655 -920097745 -797148897 -165471386 -1864579834 629282271 1575618576 1161876789 -795110752 -1618978638 987701780 -105506912 700059272 -1818566921
REM
CELL 1.54180   50.00000   50.00000   50.00000   90.00000   90.00000   90.00000
LATT -1
SFAC C  
C      1  0.5173510000000  0.4239160000000  0.4093790000000 1.0
C      1  0.4143100000000  0.4136240000000  0.5001370000000 1.0
C      1  0.5111500000000  0.4111350000000  0.4327950000000 1.0
C      1  0.5540300000000  0.4515390000000  0.5789420000000 1.0
C      1  0.4417270000000  0.5090040000000  0.6273600000000 1.0
C      1  0.5204490000000  0.4678710000000  0.4395330000000 1.0
C      1  0.4826540000000  0.4585910000000  0.3911920000000 1.0
C      1  0.4793740000000  0.3879840000000  0.4920270000000 1.0
C      1  0.4977960000000  0.5914330000000  0.3964370000000 1.0
C      1  0.4606340000000  0.5866740000000  0.4251230000000 1.0
C      1  0.5288090000000  0.5869750000000  0.5392220000000 1.0
C      1  0.4238990000000  0.4773430000000  0.5930350000000 1.0
C      1  0.5878550000000  0.4224490000000  0.5927070000000 1.0
C      1  0.4349890000000  0.4976600000000  0.4626450000000 1.0
C      1  0.5922190000000  0.5136100000000  0.4201290000000 1.0
C      1  0.4488720000000  0.4662070000000  0.5861750000000 1.0
C      1  0.5334540000000  0.5075040000000  0.4595500000000 1.0
C      1  0.3753810000000  0.4920810000000  0.4791850000000 1.0
C      1  0.5587450000000  0.5608100000000  0.4657110000000 1.0
C      1  0.5211190000000  0.5298030000000  0.5455000000000 1.0
C      1  0.5103050000000  0.6081700000000  0.4433100000000 1.0
C      1  0.4453470000000  0.4742880000000  0.5312500000000 1.0
C      1  0.6251220000000  0.6048120000000  0.5119290000000 1.0
C      1  0.4259140000000  0.4398160000000  0.5023480000000 1.0
C      1  0.4446190000000  0.4618150000000  0.4169130000000 1.0
C      1  0.4583910000000  0.5982550000000  0.4518580000000 1.0
C      1  0.5627560000000  0.4904580000000  0.5432110000000 1.0
C      1  0.5934620000000  0.4903900000000  0.5872180000000 1.0
C      1  0.3995140000000  0.4506960000000  0.5588330000000 1.0
C      1  0.3898200000000  0.4073170000000  0.5123080000000 1.0
C      1  0.5168310000000  0.4106790000000  0.5092240000000 1.0
C      1  0.5921520000000  0.5639740000000  0.5152060000000 1.0
C      1  0.4502840000000  0.4466740000000  0.5175910000000 1.0
C      1  0.3899710000000  0.5146860000000  0.4690770000000 1.0
C      1  0.4766640000000  0.4356210000000  0.5306190000000 1.0
C      1  0.5223100000000  0.4685090000000  0.6102300000000 1.0
C      1  0.4764230000000  0.5086750000000  0.5737410000000 1.0
C      1  0.5248520000000  0.5384760000000  0.4255270000000 1.0
C      1  0.4832800000000  0.5460150000000  0.4013770000000 1.0
C      1  0.4601030000000  0.5007750000000  0.4492800000000 1.0
C      1  0.6112510000000  0.4606430000000  0.5450250000000 1.0
C      1  0.5365120000000  0.4501550000000  0.4887630000000 1.0
C      1  0.4807770000000  0.5748460000000  0.5229900000000 1.0
C      1  0.5942880000000  0.4236760000000  0.5117080000000 1.0
C      1  0.5192470000000  0.4716940000000  0.4965960000000 1.0
C      1  0.4177940000000  0.6007140000000  0.5084740000000 1.0
C      1  0.6111320000000  0.5174540000000  0.4422360000000 1.0
C      1  0.4126890000000  0.4630920000000  0.4914800000000 1.0
C      1  0.4479390000000  0.3926050000000  0.5339960000000 1.0
C      1  0.5274260000000  0.4479490000000  0.3961470000000 1.0
C      1  0.4842370000000  0.5120590000000  0.5216400000000 1.0
C      1  0.4851010000000  0.6106060000000  0.4597230000000 1.0
C      1  0.4992440000000  0.5513810000000  0.6118860000000 1.0
C      1  0.5048850000000  0.5311710000000  0.5218500000000 1.0
C      1  0.5097460000000  0.4000260000000  0.5542970000000 1.0
C      1  0.6103440000000  0.5111230000000  0.5272640000000 1.0
C      1  0.3916100000000  0.5664970000000  0.4814300000000 1.0
C      1  0.5377130000000  0.4092430000000  0.5932540000000 1.0
C      1  0.5522210000000  0.5972110000000  0.4985600000000 1.0
C      1  0.5430640000000  0.4022650000000  0.5203460000000 1.0
C      1  0.3988210000000  0.4645970000000  0.4243450000000 1.0
C      1  0.3748010000000  0.4192830000000  0.5312240000000 1.0
C      1  0.4733110000000  0.5599920000000  0.4268420000000 1.0
C      1  0.3885490000000  0.5169100000000  0.5403640000000 1.0
C      1  0.6034080000000  0.5433510000000  0.4530660000000 1.0
C      1  0.5037810000000  0.4017660000000  0.4851860000000 1.0
C      1  0.4244970000000  0.5033380000000  0.6058080000000 1.0
C      1  0.5181690000000  0.4821130000000  0.5542350000000 1.0
C      1  0.4905300000000  0.5543950000000  0.5846820000000 1.0
C      1  0.4387050000000  0.5341950000000  0.4164100000000 1.0
C      1  0.4989360000000  0.4620290000000  0.5955940000000 1.0
C      1  0.4387980000000  0.4970190000000  0.5124350000000 1.0
C      1  0.4337110000000  0.5441240000000  0.4410180000000 1.0
C      1  0.6092570000000  0.5842390000000  0.5140510000000 1.0
C      1  0.4083970000000  0.4922240000000  0.4243110000000 1.0
C      1  0.4817150000000  0.4590230000000  0.4663620000000 1.0
C      1  0.6062960000000  0.4421600000000  0.5891350000000 1.0
C      1  0.5694160000000  0.4130300000000  0.5216520000000 1.0
C      1  0.6281330000000  0.4681200000000  0.3759880000000 1.0
C      1  0.5135670000000  0.4047220000000  0.5817500000000 1.0
C      1  0.4276910000000  0.5420900000000  0.5315760000000 1.0
C      1  0.4725100000000  0.4584440000000  0.4175000000000 1.0
C      1  0.5612590000000  0.4645090000000  0.5550380000000 1.0
C      1  0.4354490000000  0.4890760000000  0.4101860000000 1.0
C      1  0.5064920000000  0.5511040000000  0.5614940000000 1.0
C      1  0.5876340000000  0.4922890000000  0.4020630000000 1.0
C      1  0.5621480000000  0.4278940000000  0.4505630000000 1.0
C      1  0.5551900000000  0.5412830000000  0.4875090000000 1.0
C      1  0.4101160000000  0.5056040000000  0.4498690000000 1.0
C      1  0.4337590000000  0.4077980000000  0.5518120000000 1.0
C      1  0.6072840000000  0.4499050000000  0.5182230000000 1.0
C      1  0.4607690000000  0.5938520000000  0.5296410000000 1.0
C      1  0.5336050000000  0.3873000000000  0.5430270000000 1.0
C      1  0.6259700000000  0.4821040000000  0.4790810000000 1.0
C      1  0.4310350000000  0.6281760000000  0.5458670000000 1.0
C      1  0.4956610000000  0.5654470000000  0.3840800000000 1.0
C      1  0.4633960000000  0.4380820000000  0.4666110000000 1.0
C      1  0.4865650000000  0.5117300000000  0.4499480000000 1.0
C      1  0.4829490000000  0.5012610000000  0.4958550000000 1.0
C      1  0.5109490000000  0.4972370000000  0.3912510000000 1.0
C      1  0.5723810000000  0.4841490000000  0.6062750000000 1.0
C      1  0.6084960000000  0.4801870000000  0.3881470000000 1.0
C      1  0.5647360000000  0.4404160000000  0.4249880000000 1.0
C      1  0.4553590000000  0.4679010000000  0.5582710000000 1.0
C      1  0.5602010000000  0.4250870000000  0.5873930000000 1.0
C      1  0.4929290000000  0.5599860000000  0.4491200000000 1.0
C      1  0.4752230000000  0.5595520000000  0.4985910000000 1.0
C      1  0.3730130000000  0.4649160000000  0.5198370000000 1.0
C      1  0.3851820000000  0.4709830000000  0.4952790000000 1.0
C      1  0.5619670000000  0.4556110000000  0.4989950000000 1.0
C      1  0.4005970000000  0.5059930000000  0.5641330000000 1.0
C      1  0.5922050000000  0.5461090000000  0.5742210000000 1.0
C      1  0.5092480000000  0.6178420000000  0.5058480000000 1.0
C      1  0.4547530000000  0.5578550000000  0.5909410000000 1.0
C      1  0.5377900000000  0.4306310000000  0.4670040000000 1.0
C      1  0.5847040000000  0.4156170000000  0.4624540000000 1.0
C      1  0.6356020000000  0.5466640000000  0.5505060000000 1.0
C      1  0.5084610000000  0.4682460000000  0.3875280000000 1.0
C      1  0.4906810000000  0.6192600000000  0.4863470000000 1.0
C      1  0.4801070000000  0.5070640000000  0.6002200000000 1.0
C      1  0.5395200000000  0.5046920000000  0.3961650000000 1.0
C      1  0.6072060000000  0.4676220000000  0.4943350000000 1.0
C      1  0.5171210000000  0.5642270000000  0.4330900000000 1.0
C      1  0.5603680000000  0.4837860000000  0.3983790000000 1.0
C      1  0.5490330000000  0.4691850000000  0.6011660000000 1.0
C      1  0.5037720000000  0.5729790000000  0.5417490000000 1.0
C      1  0.4165490000000  0.5221030000000  0.5847870000000 1.0
C      1  0.4369360000000  0.3965920000000  0.4617320000000 1.0
C      1  0.5020380000000  0.4633230000000  0.5669060000000 1.0
C      1  0.4540460000000  0.3878050000000  0.5061240000000 1.0
C      1  0.5352720000000  0.5020230000000  0.5387380000000 1.0
C      1  0.5764960000000  0.5516710000000  0.4450960000000 1.0
C      1  0.6065480000000  0.4665030000000  0.5735370000000 1.0
C      1  0.4304770000000  0.4852770000000  0.4875060000000 1.0
C      1  0.6251990000000  0.4989670000000  0.4579850000000 1.0
C      1  0.5159350000000  0.4125450000000  0.4610570000000 1.0
C      1  0.3902680000000  0.5376410000000  0.4883200000000 1.0
C      1  0.5689830000000  0.5615730000000  0.5676680000000 1.0
C      1  0.4768890000000  0.5438160000000  0.6294790000000 1.0
C      1  0.5533910000000  0.4564270000000  0.4042330000000 1.0
C      1  0.5324670000000  0.4970480000000  0.5069540000000 1.0
C      1  0.3784470000000  0.4460570000000  0.5398890000000 1.0
C      1  0.4921540000000  0.4750330000000  0.4881540000000 1.0
C      1  0.4733850000000  0.5089580000000  0.5472260000000 1.0
C      1  0.5138050000000  0.5903440000000  0.4203720000000 1.0
C      1  0.4390490000000  0.5268140000000  0.5112520000000 1.0
C      1  0.4256010000000  0.5563430000000  0.5536910000000 1.0
C      1  0.5460130000000  0.5292480000000  0.4099430000000 1.0
C      1  0.5856170000000  0.5021670000000  0.5320340000000 1.0
C      1  0.4874890000000  0.5216250000000  0.4765730000000 1.0
C      1  0.6315380000000  0.5263800000000  0.5332450000000 1.0
C      1  0.5722760000000  0.5472970000000  0.5090140000000 1.0
C      1  0.6176990000000  0.5570450000000  0.5678990000000 1.0
C      1  0.5509690000000  0.5777090000000  0.5552500000000 1.0
C      1  0.4041010000000  0.4766210000000  0.5710630000000 1.0
C      1  0.4497100000000  0.5453370000000  0.4918050000000 1.0
C      1  0.4921340000000  0.4625390000000  0.4396650000000 1.0
C      1  0.4689690000000  0.5165770000000  0.6245670000000 1.0
C      1  0.4799580000000  0.4540710000000  0.5526100000000 1.0
C      1  0.3855790000000  0.5293590000000  0.5161390000000 1.0
C      1  0.4369310000000  0.5841500000000  0.4672650000000 1.0
C      1  0.5809540000000  0.4687560000000  0.4831850000000 1.0
C      1  0.4181870000000  0.4283260000000  0.5608240000000 1.0
C      1  0.4315240000000  0.3938590000000  0.4891940000000 1.0
C      1  0.4202490000000  0.4472190000000  0.4216160000000 1.0
C      1  0.4398300000000  0.5549390000000  0.4663180000000 1.0
C      1  0.5714320000000  0.5342550000000  0.4215890000000 1.0
C      1  0.5136360000000  0.5178700000000  0.4417910000000 1.0
C      1  0.4364320000000  0.6079510000000  0.5283100000000 1.0
C      1  0.4516280000000  0.4176750000000  0.4538480000000 1.0
C      1  0.5313880000000  0.6035220000000  0.5164190000000 1.0
C      1  0.4912000000000  0.5504600000000  0.4762260000000 1.0
C      1  0.4712800000000  0.4593480000000  0.6029740000000 1.0
C      1  0.4522200000000  0.5114680000000  0.4040260000000 1.0
C      1  0.3684960000000  0.5767380000000  0.4698860000000 1.0
C      1  0.4556760000000  0.5611420000000  0.6193390000000 1.0
C      1  0.5936530000000  0.5183290000000  0.5810650000000 1.0
C      1  0.5696270000000  0.4773220000000  0.4586980000000 1.0
C      1  0.5512020000000  0.5884420000000  0.4716880000000 1.0
C      1  0.5427180000000  0.4824790000000  0.4506880000000 1.0
C      1  0.5992770000000  0.4143260000000  0.4850750000000 1.0
C      1  0.4976490000000  0.4157080000000  0.5314920000000 1.0
C      1  0.4715120000000  0.6014100000000  0.4031740000000 1.0
C      1  0.5360400000000  0.6065440000000  0.4560070000000 1.0
C      1  0.5405620000000  0.5164630000000  0.4858560000000 1.0
C      1  0.4814980000000  0.5167540000000  0.3970780000000 1.0
C      1  0.4135690000000  0.5862660000000  0.4847570000000 1.0
C      1  0.4316020000000  0.5463460000000  0.5789650000000 1.0
END
