TITL C-247201-3759-354 -1.26466417858296e-07 125000 -458.87878253523 0 0 77 (C1) n - 1
REM
REM in /home/nfs/bkarasulu/CARBON/AIRSS/Generating-Clusters/LCBOP/Only-C1/SD-CG/FIRE-HFTN
REM
REM
REM
REM
REM
REM ./C.cell (11c1c37f851c82e70ff6c80c92926a4b)
REM AIRSS Version 0.9.1 bugfix July 2018 build 013d7b7c2542+ Fri, 06 Jul 2018 19:26:36 +0100
REM compiler GCC version 9.2.1 20190827 (Red Hat 9.2.1-1)
REM options -cpp -mtune=generic -march=x86-64 -g -O0 -fpre-include=/usr/include/finclude/math-vector-fortran.h
REM seed -17810905 -77279263 -425412980 1434515124 -595479686 2038199105 -1612997164 824190455 -504316524 -50992089 2096974589 -1978411233 -1860007649 1031506337 -441849525 -1288619417 2004699965 -1645963979 310892833 1717905925 -2125054304 -1925276936 -2123199026 -546930068 63880166 290732662 -974496363 694301732 -736493422 633322557 49802498 -788920419 311846562
REM
CELL 1.54180   50.00000   50.00000   50.00000   90.00000   90.00000   90.00000
LATT -1
SFAC C  
C      1  0.4991150000000  0.4149000000000  0.4995220000000 1.0
C      1  0.5548390000000  0.4612670000000  0.4637880000000 1.0
C      1  0.5625020000000  0.4494330000000  0.5399820000000 1.0
C      1  0.4517940000000  0.4460710000000  0.5334230000000 1.0
C      1  0.4104680000000  0.5504920000000  0.5086890000000 1.0
C      1  0.5159100000000  0.5619030000000  0.5492010000000 1.0
C      1  0.4311740000000  0.4894510000000  0.5041500000000 1.0
C      1  0.4461130000000  0.5301200000000  0.4701140000000 1.0
C      1  0.5368230000000  0.4427960000000  0.4211970000000 1.0
C      1  0.5259540000000  0.5429630000000  0.4080560000000 1.0
C      1  0.4530840000000  0.4291440000000  0.5102890000000 1.0
C      1  0.4791950000000  0.5623440000000  0.5032400000000 1.0
C      1  0.4696390000000  0.5136530000000  0.4747470000000 1.0
C      1  0.4831200000000  0.4891180000000  0.5246640000000 1.0
C      1  0.4511310000000  0.4737760000000  0.4560270000000 1.0
C      1  0.4602820000000  0.5786670000000  0.4892880000000 1.0
C      1  0.5738550000000  0.4562840000000  0.5145500000000 1.0
C      1  0.5285180000000  0.5610600000000  0.4766580000000 1.0
C      1  0.4452370000000  0.5665920000000  0.4419690000000 1.0
C      1  0.5646250000000  0.5083080000000  0.5508800000000 1.0
C      1  0.5608320000000  0.4469250000000  0.4905010000000 1.0
C      1  0.4192030000000  0.5354780000000  0.5577360000000 1.0
C      1  0.5146370000000  0.4330920000000  0.5408930000000 1.0
C      1  0.4963820000000  0.4990670000000  0.4374950000000 1.0
C      1  0.5453500000000  0.4228450000000  0.4963320000000 1.0
C      1  0.5338780000000  0.4494990000000  0.4474250000000 1.0
C      1  0.5429200000000  0.4990830000000  0.4872100000000 1.0
C      1  0.4508180000000  0.4696480000000  0.5972680000000 1.0
C      1  0.5679030000000  0.5381760000000  0.4618010000000 1.0
C      1  0.5027710000000  0.5585570000000  0.4876240000000 1.0
C      1  0.4073510000000  0.5480060000000  0.5360810000000 1.0
C      1  0.5669880000000  0.5417800000000  0.4913110000000 1.0
C      1  0.4687100000000  0.4567080000000  0.5542820000000 1.0
C      1  0.4790770000000  0.5129970000000  0.4189710000000 1.0
C      1  0.4925240000000  0.5196770000000  0.5673900000000 1.0
C      1  0.5295390000000  0.5330250000000  0.4332130000000 1.0
C      1  0.5441460000000  0.5840050000000  0.5170250000000 1.0
C      1  0.5347360000000  0.4082350000000  0.4731480000000 1.0
C      1  0.4283810000000  0.5348960000000  0.4922950000000 1.0
C      1  0.5258660000000  0.5855390000000  0.5373440000000 1.0
C      1  0.4403080000000  0.4899780000000  0.4322130000000 1.0
C      1  0.5751760000000  0.5033840000000  0.5243580000000 1.0
C      1  0.5070350000000  0.4192800000000  0.4721530000000 1.0
C      1  0.4741240000000  0.5474350000000  0.5282030000000 1.0
C      1  0.5238920000000  0.5059530000000  0.4403080000000 1.0
C      1  0.5887630000000  0.4800150000000  0.5165300000000 1.0
C      1  0.4539940000000  0.5273680000000  0.5305370000000 1.0
C      1  0.5439140000000  0.4911090000000  0.5628370000000 1.0
C      1  0.4507860000000  0.4442750000000  0.4596200000000 1.0
C      1  0.5207330000000  0.5210570000000  0.5262220000000 1.0
C      1  0.5496820000000  0.4636230000000  0.5592310000000 1.0
C      1  0.5519150000000  0.4916790000000  0.4596990000000 1.0
C      1  0.5065540000000  0.4991370000000  0.5161360000000 1.0
C      1  0.5731200000000  0.5114570000000  0.4525620000000 1.0
C      1  0.5333810000000  0.5408280000000  0.5422970000000 1.0
C      1  0.5496680000000  0.5648530000000  0.4969950000000 1.0
C      1  0.5094830000000  0.4464770000000  0.4626160000000 1.0
C      1  0.5613910000000  0.5158720000000  0.5026890000000 1.0
C      1  0.4796810000000  0.4875730000000  0.4613930000000 1.0
C      1  0.5578370000000  0.5353530000000  0.5542820000000 1.0
C      1  0.5222400000000  0.4225230000000  0.5159730000000 1.0
C      1  0.5009300000000  0.4711840000000  0.4756840000000 1.0
C      1  0.5177500000000  0.5034320000000  0.5705110000000 1.0
C      1  0.4949140000000  0.4453910000000  0.5544860000000 1.0
C      1  0.4439770000000  0.4333150000000  0.4837690000000 1.0
C      1  0.4381010000000  0.5153230000000  0.5112940000000 1.0
C      1  0.4441660000000  0.5382510000000  0.4428060000000 1.0
C      1  0.4512770000000  0.5160820000000  0.4252780000000 1.0
C      1  0.4658660000000  0.5063930000000  0.5698180000000 1.0
C      1  0.4741480000000  0.4104020000000  0.5105840000000 1.0
C      1  0.4509590000000  0.5818010000000  0.4639420000000 1.0
C      1  0.4912670000000  0.5471130000000  0.5522570000000 1.0
C      1  0.4447910000000  0.5220940000000  0.5575010000000 1.0
C      1  0.5177310000000  0.4873980000000  0.4934320000000 1.0
C      1  0.4619810000000  0.4777440000000  0.5733560000000 1.0
C      1  0.4317770000000  0.4807450000000  0.4789200000000 1.0
C      1  0.5413000000000  0.5485220000000  0.4537330000000 1.0
END
