TITL C-247201-3759-373 0.649687331590481 125000 -925.245615445595 0 0 149 (C1) n - 1
REM
REM in /home/nfs/bkarasulu/CARBON/AIRSS/Generating-Clusters/LCBOP/Only-C1/SD-CG/FIRE-HFTN
REM
REM
REM
REM
REM
REM ./C.cell (11c1c37f851c82e70ff6c80c92926a4b)
REM AIRSS Version 0.9.1 bugfix July 2018 build 013d7b7c2542+ Fri, 06 Jul 2018 19:26:36 +0100
REM compiler GCC version 9.2.1 20190827 (Red Hat 9.2.1-1)
REM options -cpp -mtune=generic -march=x86-64 -g -O0 -fpre-include=/usr/include/finclude/math-vector-fortran.h
REM seed -302939360 -420500963 -672036772 1261785378 918386064 501042977 372637465 441629693 -704976770 1931196367 120135440 1387753503 -1281015236 682406579 1286056550 1294871561 -85795203 965711581 1311502485 -2015163684 -2139919802 -392978242 2083209054 565798630 -405361648 -1471142096 113744932 1281137465 367885221 -1990255448 1622981402 1964675129 -1557643848
REM
CELL 1.54180   50.00000   50.00000   50.00000   90.00000   90.00000   90.00000
LATT -1
SFAC C  
C      1  0.5816840000000  0.5418530000000  0.4422710000000 1.0
C      1  0.5510060000000  0.3856060000000  0.5352290000000 1.0
C      1  0.4883560000000  0.5393780000000  0.5889480000000 1.0
C      1  0.4781470000000  0.3888100000000  0.4444120000000 1.0
C      1  0.4521730000000  0.5047650000000  0.4056910000000 1.0
C      1  0.4740730000000  0.4671610000000  0.5763200000000 1.0
C      1  0.5765360000000  0.4697010000000  0.6014540000000 1.0
C      1  0.4005830000000  0.4559890000000  0.5049060000000 1.0
C      1  0.5748490000000  0.4489420000000  0.4557470000000 1.0
C      1  0.6197420000000  0.4917930000000  0.4928920000000 1.0
C      1  0.4792340000000  0.4996500000000  0.5439100000000 1.0
C      1  0.5348300000000  0.5465970000000  0.4944880000000 1.0
C      1  0.4120640000000  0.4437000000000  0.4402720000000 1.0
C      1  0.5232970000000  0.4363380000000  0.5819920000000 1.0
C      1  0.5570560000000  0.4749600000000  0.5814320000000 1.0
C      1  0.5348400000000  0.5559270000000  0.4364710000000 1.0
C      1  0.4774350000000  0.4378520000000  0.4787230000000 1.0
C      1  0.4311590000000  0.5388110000000  0.5143140000000 1.0
C      1  0.4463300000000  0.5203520000000  0.6064920000000 1.0
C      1  0.5308120000000  0.5954270000000  0.4737680000000 1.0
C      1  0.4640280000000  0.5733980000000  0.5248350000000 1.0
C      1  0.4671560000000  0.4110880000000  0.5890350000000 1.0
C      1  0.6237340000000  0.5850060000000  0.5362230000000 1.0
C      1  0.5270450000000  0.3984820000000  0.4953570000000 1.0
C      1  0.4671310000000  0.4810800000000  0.4005870000000 1.0
C      1  0.5818890000000  0.4873650000000  0.6215280000000 1.0
C      1  0.4084820000000  0.4841850000000  0.4153080000000 1.0
C      1  0.5855890000000  0.4014050000000  0.5709560000000 1.0
C      1  0.4705580000000  0.4430790000000  0.3299670000000 1.0
C      1  0.4649220000000  0.4164210000000  0.5160560000000 1.0
C      1  0.5611200000000  0.4708150000000  0.5010780000000 1.0
C      1  0.4312800000000  0.6056790000000  0.5354320000000 1.0
C      1  0.4747700000000  0.5729610000000  0.4280880000000 1.0
C      1  0.5770430000000  0.4220330000000  0.4523590000000 1.0
C      1  0.4127220000000  0.5032050000000  0.5718210000000 1.0
C      1  0.6109920000000  0.5416390000000  0.4393210000000 1.0
C      1  0.4769720000000  0.5144460000000  0.5002100000000 1.0
C      1  0.3877270000000  0.6170250000000  0.5518960000000 1.0
C      1  0.5285080000000  0.4909260000000  0.4184530000000 1.0
C      1  0.4936210000000  0.5105980000000  0.5225580000000 1.0
C      1  0.5186210000000  0.5157370000000  0.4080000000000 1.0
C      1  0.5155540000000  0.4171610000000  0.4437240000000 1.0
C      1  0.5099220000000  0.5906850000000  0.4556780000000 1.0
C      1  0.5681980000000  0.4670090000000  0.4348200000000 1.0
C      1  0.5266490000000  0.3940390000000  0.5234240000000 1.0
C      1  0.4955630000000  0.4027220000000  0.4278650000000 1.0
C      1  0.5733100000000  0.6049420000000  0.4877110000000 1.0
C      1  0.4850490000000  0.3929970000000  0.4722310000000 1.0
C      1  0.4968290000000  0.5302990000000  0.4552640000000 1.0
C      1  0.4516530000000  0.4426670000000  0.5230930000000 1.0
C      1  0.5775020000000  0.5690490000000  0.4569840000000 1.0
C      1  0.5644330000000  0.5036260000000  0.5019520000000 1.0
C      1  0.6133480000000  0.5044210000000  0.5160800000000 1.0
C      1  0.5043980000000  0.5557330000000  0.3933520000000 1.0
C      1  0.5282020000000  0.5969790000000  0.5048210000000 1.0
C      1  0.5983520000000  0.4852270000000  0.4758230000000 1.0
C      1  0.4402460000000  0.5286000000000  0.5392350000000 1.0
C      1  0.5181260000000  0.4459160000000  0.4416850000000 1.0
C      1  0.5061200000000  0.4022000000000  0.5424560000000 1.0
C      1  0.4793500000000  0.6174090000000  0.5197580000000 1.0
C      1  0.5031230000000  0.4431570000000  0.6020990000000 1.0
C      1  0.4092720000000  0.5139680000000  0.4738780000000 1.0
C      1  0.5054450000000  0.6142830000000  0.5134280000000 1.0
C      1  0.5997910000000  0.5928640000000  0.4929810000000 1.0
C      1  0.4576030000000  0.4473020000000  0.4606120000000 1.0
C      1  0.4743060000000  0.5541280000000  0.5688500000000 1.0
C      1  0.5140200000000  0.4016830000000  0.4705280000000 1.0
C      1  0.4539150000000  0.4936670000000  0.4632030000000 1.0
C      1  0.4832670000000  0.5639990000000  0.5434940000000 1.0
C      1  0.5246510000000  0.5674700000000  0.5131050000000 1.0
C      1  0.4114530000000  0.5218050000000  0.5022120000000 1.0
C      1  0.5099160000000  0.4676170000000  0.4232930000000 1.0
C      1  0.5115680000000  0.5090870000000  0.4602240000000 1.0
C      1  0.6233210000000  0.5589320000000  0.4570440000000 1.0
C      1  0.4691110000000  0.4555140000000  0.3528340000000 1.0
C      1  0.6042260000000  0.5749740000000  0.4711900000000 1.0
C      1  0.4581460000000  0.5499900000000  0.4238720000000 1.0
C      1  0.5120280000000  0.5630990000000  0.5389350000000 1.0
C      1  0.4881070000000  0.4944660000000  0.6115680000000 1.0
C      1  0.3923140000000  0.5446690000000  0.5533970000000 1.0
C      1  0.4572960000000  0.6008100000000  0.5259970000000 1.0
C      1  0.4540290000000  0.4684210000000  0.5083770000000 1.0
C      1  0.4672020000000  0.5287890000000  0.4059980000000 1.0
C      1  0.4775720000000  0.4051990000000  0.5395970000000 1.0
C      1  0.5203860000000  0.5803620000000  0.4307170000000 1.0
C      1  0.4677310000000  0.4681400000000  0.3760800000000 1.0
C      1  0.3855440000000  0.5002130000000  0.4660580000000 1.0
C      1  0.5439280000000  0.4522830000000  0.5703050000000 1.0
C      1  0.5400060000000  0.5208120000000  0.5063670000000 1.0
C      1  0.4892270000000  0.4685020000000  0.6001660000000 1.0
C      1  0.5696040000000  0.5152930000000  0.4473830000000 1.0
C      1  0.5324130000000  0.5052960000000  0.5515990000000 1.0
C      1  0.5760640000000  0.6000300000000  0.5326970000000 1.0
C      1  0.5808390000000  0.4621260000000  0.4801710000000 1.0
C      1  0.5163250000000  0.5442910000000  0.5855710000000 1.0
C      1  0.5151530000000  0.4525820000000  0.5128400000000 1.0
C      1  0.4322420000000  0.5131700000000  0.4523380000000 1.0
C      1  0.4288360000000  0.5019030000000  0.4223920000000 1.0
C      1  0.4152540000000  0.4420700000000  0.4873040000000 1.0
C      1  0.3969480000000  0.5165770000000  0.5507190000000 1.0
C      1  0.5922300000000  0.4209060000000  0.5878780000000 1.0
C      1  0.5897060000000  0.4448490000000  0.5993780000000 1.0
C      1  0.5778760000000  0.5066840000000  0.4738120000000 1.0
C      1  0.4883650000000  0.4751360000000  0.5535220000000 1.0
C      1  0.3961310000000  0.4657490000000  0.4325720000000 1.0
C      1  0.5592740000000  0.5909580000000  0.4663640000000 1.0
C      1  0.5561960000000  0.4981760000000  0.5648610000000 1.0
C      1  0.5559070000000  0.4929000000000  0.4312300000000 1.0
C      1  0.5713110000000  0.3889680000000  0.5521940000000 1.0
C      1  0.5263300000000  0.5560020000000  0.5628310000000 1.0
C      1  0.5184180000000  0.4593180000000  0.4669240000000 1.0
C      1  0.3933090000000  0.4784450000000  0.5175390000000 1.0
C      1  0.4607730000000  0.4152840000000  0.5618570000000 1.0
C      1  0.4721170000000  0.4117320000000  0.4893620000000 1.0
C      1  0.5512950000000  0.4475660000000  0.5431420000000 1.0
C      1  0.4468430000000  0.4624280000000  0.5686690000000 1.0
C      1  0.5002230000000  0.4577860000000  0.5356740000000 1.0
C      1  0.5435840000000  0.4554110000000  0.5170650000000 1.0
C      1  0.4521520000000  0.5054120000000  0.5484930000000 1.0
C      1  0.4342170000000  0.4868710000000  0.5617150000000 1.0
C      1  0.5225910000000  0.4865790000000  0.4680630000000 1.0
C      1  0.5342260000000  0.5384160000000  0.4146870000000 1.0
C      1  0.4749780000000  0.5191400000000  0.6044870000000 1.0
C      1  0.4841100000000  0.5765710000000  0.4562540000000 1.0
C      1  0.4525590000000  0.5554720000000  0.5060480000000 1.0
C      1  0.3792520000000  0.4783900000000  0.4514640000000 1.0
C      1  0.5168010000000  0.4131430000000  0.5665980000000 1.0
C      1  0.4809740000000  0.4721040000000  0.4236940000000 1.0
C      1  0.4408330000000  0.5413250000000  0.4448860000000 1.0
C      1  0.4990320000000  0.5760520000000  0.4115440000000 1.0
C      1  0.5791550000000  0.5073740000000  0.5514790000000 1.0
C      1  0.4840480000000  0.5510150000000  0.4690360000000 1.0
C      1  0.4848690000000  0.4214440000000  0.6068370000000 1.0
C      1  0.6018490000000  0.5920780000000  0.5218170000000 1.0
C      1  0.5567030000000  0.6062570000000  0.5122220000000 1.0
C      1  0.4714020000000  0.5411910000000  0.4914040000000 1.0
C      1  0.3992330000000  0.5705030000000  0.5505890000000 1.0
C      1  0.4215890000000  0.5158420000000  0.5960330000000 1.0
C      1  0.3974810000000  0.5058390000000  0.5231030000000 1.0
C      1  0.5371580000000  0.5491980000000  0.4654020000000 1.0
C      1  0.4644920000000  0.4716840000000  0.4476260000000 1.0
C      1  0.4460980000000  0.4391540000000  0.5521700000000 1.0
C      1  0.4607050000000  0.4921310000000  0.4914620000000 1.0
C      1  0.5216070000000  0.5121430000000  0.5263500000000 1.0
C      1  0.5863680000000  0.5079110000000  0.5243960000000 1.0
C      1  0.4943870000000  0.5293500000000  0.3969380000000 1.0
C      1  0.4062010000000  0.5976190000000  0.5459340000000 1.0
C      1  0.4292530000000  0.4409670000000  0.4626590000000 1.0
C      1  0.5026870000000  0.4491150000000  0.4875600000000 1.0
END
