TITL C-247198-3593-57 -0.418297372468024 125000 -512.706494542898 0 0 84 (C1) n - 1
REM
REM in /home/nfs/bkarasulu/CARBON/AIRSS/Generating-Clusters/LCBOP/Only-C1/SD-CG/FIRE-HFTN
REM
REM
REM
REM
REM
REM ./C.cell (11c1c37f851c82e70ff6c80c92926a4b)
REM AIRSS Version 0.9.1 bugfix July 2018 build 013d7b7c2542+ Fri, 06 Jul 2018 19:26:36 +0100
REM compiler GCC version 9.2.1 20190827 (Red Hat 9.2.1-1)
REM options -cpp -mtune=generic -march=x86-64 -g -O0 -fpre-include=/usr/include/finclude/math-vector-fortran.h
REM seed 1844907827 -473218218 1348003944 471662434 -943267976 1399914567 -1870309740 1120513460 -510570201 -1205271365 -1799964924 1959677995 -1420615517 1972801966 2115796313 -1797802635 -1069554400 -1306330402 -299041365 -730858731 1419701377 1460546433 -1545053120 -1743400175 1650835795 813326274 1885479996 744558426 1673657248 -1839727610 -937805024 -649661651 1976914241
REM
CELL 1.54180   50.00000   50.00000   50.00000   90.00000   90.00000   90.00000
LATT -1
SFAC C  
C      1  0.5452010000000  0.4392240000000  0.5536840000000 1.0
C      1  0.4958490000000  0.4115510000000  0.4301030000000 1.0
C      1  0.4488760000000  0.5412620000000  0.4621910000000 1.0
C      1  0.5095470000000  0.4693980000000  0.4401100000000 1.0
C      1  0.4867930000000  0.4716890000000  0.4234040000000 1.0
C      1  0.5591730000000  0.4718290000000  0.5201010000000 1.0
C      1  0.4123380000000  0.5788180000000  0.5604150000000 1.0
C      1  0.4482480000000  0.5430570000000  0.6111410000000 1.0
C      1  0.4532440000000  0.5811010000000  0.5305790000000 1.0
C      1  0.4015950000000  0.5566560000000  0.4840050000000 1.0
C      1  0.4527960000000  0.4415840000000  0.5153280000000 1.0
C      1  0.4962610000000  0.5260510000000  0.5490590000000 1.0
C      1  0.5683630000000  0.4931790000000  0.5365740000000 1.0
C      1  0.5178480000000  0.5419120000000  0.5602160000000 1.0
C      1  0.4520180000000  0.5137360000000  0.4562820000000 1.0
C      1  0.4565920000000  0.4937900000000  0.4764080000000 1.0
C      1  0.4120560000000  0.5686530000000  0.5850560000000 1.0
C      1  0.4427600000000  0.4389920000000  0.3973720000000 1.0
C      1  0.4793350000000  0.4965280000000  0.4923940000000 1.0
C      1  0.5856360000000  0.5121330000000  0.5238040000000 1.0
C      1  0.4879740000000  0.5762410000000  0.5646180000000 1.0
C      1  0.5477070000000  0.5048030000000  0.5524480000000 1.0
C      1  0.4922600000000  0.5720050000000  0.4517600000000 1.0
C      1  0.5308340000000  0.4868180000000  0.4344700000000 1.0
C      1  0.5646790000000  0.5206810000000  0.4398140000000 1.0
C      1  0.5219800000000  0.4126210000000  0.4192610000000 1.0
C      1  0.4746180000000  0.4039840000000  0.4134680000000 1.0
C      1  0.5268360000000  0.4420710000000  0.4811250000000 1.0
C      1  0.5635450000000  0.5667390000000  0.4750540000000 1.0
C      1  0.5755610000000  0.5429320000000  0.4841860000000 1.0
C      1  0.4552690000000  0.4154350000000  0.3990330000000 1.0
C      1  0.5104480000000  0.4474630000000  0.4588240000000 1.0
C      1  0.4605590000000  0.4801970000000  0.4182170000000 1.0
C      1  0.4392150000000  0.4618040000000  0.4131270000000 1.0
C      1  0.5193950000000  0.4305580000000  0.5621830000000 1.0
C      1  0.4585970000000  0.4442420000000  0.5411830000000 1.0
C      1  0.5726950000000  0.5002750000000  0.4197990000000 1.0
C      1  0.5364020000000  0.5137500000000  0.4432690000000 1.0
C      1  0.4282160000000  0.5831940000000  0.5394490000000 1.0
C      1  0.4535650000000  0.4454530000000  0.4875940000000 1.0
C      1  0.4254110000000  0.5502870000000  0.4743030000000 1.0
C      1  0.5011310000000  0.4507490000000  0.5710310000000 1.0
C      1  0.4988530000000  0.5422760000000  0.6027330000000 1.0
C      1  0.4744410000000  0.4478420000000  0.5623660000000 1.0
C      1  0.5756880000000  0.5364880000000  0.5127210000000 1.0
C      1  0.5034920000000  0.5026470000000  0.5349450000000 1.0
C      1  0.5031950000000  0.4937110000000  0.5979340000000 1.0
C      1  0.5035520000000  0.5080790000000  0.5051210000000 1.0
C      1  0.4986660000000  0.5656920000000  0.5168820000000 1.0
C      1  0.5000820000000  0.5395350000000  0.5044820000000 1.0
C      1  0.5225410000000  0.4903700000000  0.5531560000000 1.0
C      1  0.5099190000000  0.4099730000000  0.5447240000000 1.0
C      1  0.4184750000000  0.4623490000000  0.4323440000000 1.0
C      1  0.5919760000000  0.4988360000000  0.4705710000000 1.0
C      1  0.5540240000000  0.4780330000000  0.4185690000000 1.0
C      1  0.5809980000000  0.5238110000000  0.4632610000000 1.0
C      1  0.5426510000000  0.4276830000000  0.4113290000000 1.0
C      1  0.5525780000000  0.4813330000000  0.4940990000000 1.0
C      1  0.4797260000000  0.5747360000000  0.5368590000000 1.0
C      1  0.5044480000000  0.5583090000000  0.5796180000000 1.0
C      1  0.4262010000000  0.5558340000000  0.6036100000000 1.0
C      1  0.4200290000000  0.4659620000000  0.4589580000000 1.0
C      1  0.4755390000000  0.5012400000000  0.6037620000000 1.0
C      1  0.4419450000000  0.4691430000000  0.4764070000000 1.0
C      1  0.3780810000000  0.5625990000000  0.4935660000000 1.0
C      1  0.5110010000000  0.4771850000000  0.5760590000000 1.0
C      1  0.5177730000000  0.5791520000000  0.4540390000000 1.0
C      1  0.5579620000000  0.5497470000000  0.5314030000000 1.0
C      1  0.4907580000000  0.4270250000000  0.4536420000000 1.0
C      1  0.5744790000000  0.4792080000000  0.4766490000000 1.0
C      1  0.5225420000000  0.5808660000000  0.5161260000000 1.0
C      1  0.4723450000000  0.5299600000000  0.6072400000000 1.0
C      1  0.5439800000000  0.5339180000000  0.5515130000000 1.0
C      1  0.5327030000000  0.4321640000000  0.5069340000000 1.0
C      1  0.4680840000000  0.4283530000000  0.4702790000000 1.0
C      1  0.5492490000000  0.4464000000000  0.5264230000000 1.0
C      1  0.5548890000000  0.4514790000000  0.4100770000000 1.0
C      1  0.5429500000000  0.5782010000000  0.4626040000000 1.0
C      1  0.5169330000000  0.5186090000000  0.6055490000000 1.0
C      1  0.4535980000000  0.5050570000000  0.4295530000000 1.0
C      1  0.5289780000000  0.4973200000000  0.4927680000000 1.0
C      1  0.5471630000000  0.5748870000000  0.5250230000000 1.0
C      1  0.4691980000000  0.5592970000000  0.4553040000000 1.0
C      1  0.5168910000000  0.4112450000000  0.5183510000000 1.0
END
