TITL C-247199-3331-312 0.00462095592796052 125000 -408.918903214965 0 0 67 (C1) n - 1
REM
REM in /home/nfs/bkarasulu/CARBON/AIRSS/Generating-Clusters/LCBOP/Only-C1/SD-CG/FIRE-HFTN
REM
REM
REM
REM
REM
REM ./C.cell (11c1c37f851c82e70ff6c80c92926a4b)
REM AIRSS Version 0.9.1 bugfix July 2018 build 013d7b7c2542+ Fri, 06 Jul 2018 19:26:36 +0100
REM compiler GCC version 9.2.1 20190827 (Red Hat 9.2.1-1)
REM options -cpp -mtune=generic -march=x86-64 -g -O0 -fpre-include=/usr/include/finclude/math-vector-fortran.h
REM seed -1474967649 1159242598 1552985658 -951709921 -971025072 -1192209342 503229607 -2047592957 -1657098889 -297135032 1821726981 -2139686636 1882029593 -671468264 -1924542534 -749334143 396071313 -1248894429 -784146069 -561971839 -243135893 34713313 937682774 1738413955 175952328 -9867609 -1281021673 -1046182323 -2067262661 236685946 880539739 -281303067 395188668
REM
CELL 1.54180   50.00000   50.00000   50.00000   90.00000   90.00000   90.00000
LATT -1
SFAC C  
C      1  0.4236310000000  0.5106510000000  0.4502650000000 1.0
C      1  0.4730530000000  0.5009330000000  0.5000310000000 1.0
C      1  0.4546040000000  0.4763030000000  0.5347650000000 1.0
C      1  0.5258880000000  0.4679900000000  0.5779720000000 1.0
C      1  0.5740220000000  0.4417460000000  0.5690520000000 1.0
C      1  0.4956380000000  0.4845960000000  0.4912070000000 1.0
C      1  0.5935210000000  0.5379800000000  0.5105260000000 1.0
C      1  0.5413580000000  0.4072360000000  0.5515960000000 1.0
C      1  0.5177610000000  0.4878930000000  0.5095280000000 1.0
C      1  0.5776950000000  0.4701350000000  0.5271110000000 1.0
C      1  0.5319900000000  0.5435700000000  0.4468780000000 1.0
C      1  0.5101420000000  0.4903800000000  0.5374920000000 1.0
C      1  0.4418270000000  0.5264320000000  0.5839060000000 1.0
C      1  0.4856100000000  0.4740920000000  0.4653000000000 1.0
C      1  0.4736620000000  0.4480140000000  0.4640850000000 1.0
C      1  0.4523000000000  0.4480550000000  0.4851000000000 1.0
C      1  0.5268770000000  0.4078450000000  0.5292210000000 1.0
C      1  0.5818960000000  0.4489960000000  0.5090640000000 1.0
C      1  0.5504260000000  0.5267580000000  0.4604140000000 1.0
C      1  0.4915200000000  0.5217550000000  0.4258790000000 1.0
C      1  0.5922730000000  0.5456180000000  0.4848510000000 1.0
C      1  0.4428060000000  0.5530000000000  0.4257340000000 1.0
C      1  0.4883210000000  0.4242590000000  0.4687680000000 1.0
C      1  0.4679550000000  0.4944230000000  0.4549420000000 1.0
C      1  0.4751040000000  0.5670360000000  0.4724280000000 1.0
C      1  0.4497830000000  0.4873290000000  0.5089240000000 1.0
C      1  0.4479660000000  0.6185570000000  0.5195370000000 1.0
C      1  0.5757010000000  0.5384110000000  0.4651440000000 1.0
C      1  0.5541120000000  0.4773090000000  0.4029540000000 1.0
C      1  0.4987430000000  0.5152450000000  0.4016340000000 1.0
C      1  0.4316160000000  0.5776610000000  0.5794400000000 1.0
C      1  0.5426970000000  0.4765440000000  0.4556300000000 1.0
C      1  0.4328510000000  0.6001410000000  0.5653870000000 1.0
C      1  0.5666560000000  0.4946470000000  0.5176860000000 1.0
C      1  0.4867680000000  0.5331600000000  0.5274190000000 1.0
C      1  0.5356040000000  0.4519900000000  0.4682080000000 1.0
C      1  0.5190160000000  0.4201390000000  0.5052510000000 1.0
C      1  0.5111070000000  0.4677680000000  0.5550830000000 1.0
C      1  0.4529910000000  0.5013320000000  0.5786790000000 1.0
C      1  0.5661790000000  0.4309290000000  0.4971400000000 1.0
C      1  0.5160600000000  0.5615780000000  0.4345990000000 1.0
C      1  0.5393170000000  0.4327370000000  0.4887200000000 1.0
C      1  0.4382640000000  0.4737110000000  0.4862300000000 1.0
C      1  0.4794350000000  0.5202620000000  0.4511830000000 1.0
C      1  0.4348430000000  0.5519660000000  0.5851800000000 1.0
C      1  0.4784520000000  0.5285380000000  0.5002950000000 1.0
C      1  0.4386580000000  0.6149870000000  0.5441530000000 1.0
C      1  0.4658470000000  0.5662540000000  0.4209450000000 1.0
C      1  0.4917870000000  0.4213810000000  0.4974570000000 1.0
C      1  0.4586280000000  0.6099320000000  0.4967980000000 1.0
C      1  0.4908440000000  0.4484940000000  0.5502950000000 1.0
C      1  0.4527480000000  0.4818660000000  0.5979110000000 1.0
C      1  0.5475150000000  0.4772130000000  0.4281650000000 1.0
C      1  0.5808650000000  0.5181980000000  0.5233480000000 1.0
C      1  0.4924480000000  0.5699720000000  0.4243430000000 1.0
C      1  0.4647340000000  0.4963070000000  0.5535080000000 1.0
C      1  0.4679750000000  0.4503150000000  0.5336420000000 1.0
C      1  0.4676770000000  0.4358710000000  0.5085980000000 1.0
C      1  0.4400130000000  0.4908640000000  0.4621190000000 1.0
C      1  0.4682550000000  0.5913980000000  0.4804190000000 1.0
C      1  0.5800930000000  0.4632930000000  0.5542760000000 1.0
C      1  0.5591650000000  0.4195600000000  0.5672230000000 1.0
C      1  0.4273470000000  0.5336550000000  0.4364470000000 1.0
C      1  0.4788070000000  0.5393720000000  0.4738360000000 1.0
C      1  0.4891270000000  0.5096310000000  0.5441800000000 1.0
C      1  0.5436900000000  0.4954440000000  0.5002330000000 1.0
C      1  0.5457390000000  0.5003460000000  0.4716650000000 1.0
END
