TITL C-247195-3186-65 0.0163729317116114 125000 -570.257396752738 0 0 92 (C1) n - 1
REM
REM in /home/nfs/bkarasulu/CARBON/AIRSS/Generating-Clusters/LCBOP/Only-C1/SD-CG/FIRE-HFTN
REM
REM
REM
REM
REM
REM ./C.cell (11c1c37f851c82e70ff6c80c92926a4b)
REM AIRSS Version 0.9.1 bugfix July 2018 build 013d7b7c2542+ Fri, 06 Jul 2018 19:26:36 +0100
REM compiler GCC version 9.2.1 20190827 (Red Hat 9.2.1-1)
REM options -cpp -mtune=generic -march=x86-64 -g -O0 -fpre-include=/usr/include/finclude/math-vector-fortran.h
REM seed 1068128295 -2047758942 1848168777 1842675186 -1545220371 -107204233 -1883105275 -1771389417 928894101 996368335 -837547936 -760199616 -311522994 1907032321 -1670252257 -1827280947 1858878830 -1281101039 355352359 1014341044 1527799401 -828526572 740970645 -1125870490 -1897227799 -551619845 2119872719 -43142945 -437290242 652654319 1553835118 -1429826280 141988441
REM
CELL 1.54180   50.00000   50.00000   50.00000   90.00000   90.00000   90.00000
LATT -1
SFAC C  
C      1  0.5868230000000  0.4930750000000  0.4871540000000 1.0
C      1  0.4836250000000  0.4857990000000  0.4212480000000 1.0
C      1  0.5103260000000  0.4968080000000  0.4213630000000 1.0
C      1  0.4877330000000  0.4761490000000  0.5813300000000 1.0
C      1  0.4571100000000  0.4566840000000  0.5407450000000 1.0
C      1  0.5649360000000  0.4830320000000  0.5319210000000 1.0
C      1  0.5087140000000  0.5354020000000  0.5341270000000 1.0
C      1  0.4416020000000  0.3857960000000  0.4678140000000 1.0
C      1  0.4605350000000  0.5768170000000  0.4924770000000 1.0
C      1  0.5753090000000  0.4300110000000  0.4961020000000 1.0
C      1  0.4955960000000  0.4889290000000  0.4708980000000 1.0
C      1  0.4905270000000  0.3908150000000  0.4649890000000 1.0
C      1  0.4624910000000  0.4276900000000  0.4527520000000 1.0
C      1  0.5011770000000  0.3853820000000  0.4904380000000 1.0
C      1  0.5074490000000  0.3956010000000  0.4423750000000 1.0
C      1  0.4981640000000  0.6127760000000  0.5484150000000 1.0
C      1  0.4759920000000  0.5707430000000  0.5474360000000 1.0
C      1  0.4779580000000  0.5092570000000  0.4620600000000 1.0
C      1  0.4825750000000  0.5443940000000  0.5425980000000 1.0
C      1  0.3951690000000  0.4701990000000  0.4918700000000 1.0
C      1  0.5560790000000  0.3993160000000  0.4383170000000 1.0
C      1  0.4693260000000  0.4725570000000  0.6011280000000 1.0
C      1  0.5193400000000  0.4896310000000  0.5129920000000 1.0
C      1  0.4357320000000  0.4990800000000  0.4414870000000 1.0
C      1  0.5402350000000  0.4908610000000  0.5753230000000 1.0
C      1  0.4811920000000  0.4708480000000  0.5522540000000 1.0
C      1  0.5234390000000  0.5582000000000  0.4761790000000 1.0
C      1  0.5443430000000  0.4252290000000  0.5383230000000 1.0
C      1  0.4406430000000  0.4533370000000  0.4893860000000 1.0
C      1  0.4969220000000  0.5640620000000  0.4350940000000 1.0
C      1  0.5320220000000  0.5493370000000  0.5268680000000 1.0
C      1  0.5604830000000  0.4264650000000  0.4448610000000 1.0
C      1  0.4895320000000  0.6154310000000  0.4914070000000 1.0
C      1  0.3904310000000  0.4890830000000  0.5103820000000 1.0
C      1  0.4633440000000  0.5234980000000  0.5342340000000 1.0
C      1  0.4552310000000  0.5898060000000  0.4259000000000 1.0
C      1  0.4788940000000  0.5781110000000  0.4211980000000 1.0
C      1  0.5500670000000  0.4730580000000  0.5547270000000 1.0
C      1  0.4225620000000  0.4756590000000  0.4508170000000 1.0
C      1  0.4400620000000  0.5931800000000  0.4477550000000 1.0
C      1  0.4230590000000  0.5229360000000  0.4502510000000 1.0
C      1  0.4637200000000  0.4007030000000  0.4622570000000 1.0
C      1  0.5115810000000  0.4626150000000  0.5156490000000 1.0
C      1  0.4623970000000  0.4485850000000  0.4719340000000 1.0
C      1  0.5923020000000  0.4896470000000  0.4611420000000 1.0
C      1  0.5021090000000  0.4189470000000  0.4271410000000 1.0
C      1  0.4773320000000  0.5957190000000  0.5061900000000 1.0
C      1  0.5057730000000  0.5076920000000  0.5287730000000 1.0
C      1  0.5646820000000  0.4913300000000  0.5041450000000 1.0
C      1  0.5667270000000  0.4275240000000  0.5212670000000 1.0
C      1  0.4868300000000  0.4620910000000  0.4760870000000 1.0
C      1  0.5128340000000  0.3903730000000  0.5139550000000 1.0
C      1  0.4642820000000  0.5481550000000  0.4920920000000 1.0
C      1  0.4794240000000  0.4987240000000  0.5380200000000 1.0
C      1  0.4421660000000  0.5874700000000  0.4738270000000 1.0
C      1  0.4033320000000  0.5118770000000  0.5163890000000 1.0
C      1  0.5342830000000  0.5583880000000  0.5005280000000 1.0
C      1  0.5243840000000  0.4937800000000  0.4675000000000 1.0
C      1  0.4224370000000  0.5267650000000  0.5022680000000 1.0
C      1  0.5144090000000  0.4851370000000  0.5859270000000 1.0
C      1  0.5196250000000  0.4396410000000  0.4206250000000 1.0
C      1  0.5517200000000  0.5643400000000  0.5913750000000 1.0
C      1  0.5728130000000  0.4315640000000  0.4696050000000 1.0
C      1  0.5040910000000  0.4484470000000  0.4933760000000 1.0
C      1  0.4803570000000  0.5360560000000  0.4714780000000 1.0
C      1  0.4443500000000  0.4520550000000  0.5174350000000 1.0
C      1  0.5270440000000  0.4036070000000  0.5323760000000 1.0
C      1  0.5523300000000  0.5499100000000  0.5460190000000 1.0
C      1  0.4176730000000  0.4639980000000  0.4763090000000 1.0
C      1  0.5527270000000  0.4739940000000  0.4333420000000 1.0
C      1  0.5012990000000  0.5522120000000  0.4601100000000 1.0
C      1  0.5433400000000  0.6566290000000  0.6227140000000 1.0
C      1  0.5333030000000  0.3849790000000  0.4394810000000 1.0
C      1  0.5379520000000  0.6360890000000  0.6068700000000 1.0
C      1  0.4491120000000  0.5316000000000  0.5106620000000 1.0
C      1  0.5790300000000  0.4820110000000  0.4391120000000 1.0
C      1  0.4833390000000  0.4578770000000  0.4182080000000 1.0
C      1  0.5322680000000  0.6144460000000  0.5901680000000 1.0
C      1  0.5339120000000  0.4488210000000  0.5512350000000 1.0
C      1  0.5068100000000  0.4555980000000  0.5425860000000 1.0
C      1  0.4168960000000  0.5319630000000  0.4748460000000 1.0
C      1  0.5452520000000  0.4465530000000  0.4307190000000 1.0
C      1  0.4822730000000  0.5945800000000  0.5342220000000 1.0
C      1  0.5155000000000  0.6179460000000  0.5679410000000 1.0
C      1  0.5383600000000  0.4944130000000  0.4927230000000 1.0
C      1  0.5486420000000  0.6768400000000  0.6383040000000 1.0
C      1  0.4642430000000  0.4998800000000  0.4382800000000 1.0
C      1  0.5316440000000  0.4919350000000  0.4398920000000 1.0
C      1  0.5433350000000  0.5892520000000  0.5956510000000 1.0
C      1  0.5520880000000  0.5159150000000  0.5800710000000 1.0
C      1  0.4766230000000  0.4331730000000  0.4288640000000 1.0
C      1  0.5542940000000  0.5431090000000  0.5733120000000 1.0
END
