TITL C-247200-3482-264 -1.87724055171317e-06 125000 -1111.56960233277 0 0 180 (C1) n - 1
REM
REM in /home/nfs/bkarasulu/CARBON/AIRSS/Generating-Clusters/LCBOP/Only-C1/SD-CG/FIRE-HFTN
REM
REM
REM
REM
REM
REM ./C.cell (11c1c37f851c82e70ff6c80c92926a4b)
REM AIRSS Version 0.9.1 bugfix July 2018 build 013d7b7c2542+ Fri, 06 Jul 2018 19:26:36 +0100
REM compiler GCC version 9.2.1 20190827 (Red Hat 9.2.1-1)
REM options -cpp -mtune=generic -march=x86-64 -g -O0 -fpre-include=/usr/include/finclude/math-vector-fortran.h
REM seed 907097938 -428783101 -545168982 582897813 -2021050115 -1687619814 1522118800 1296871410 1129191070 1687483218 -1699356060 1288991031 -1220226161 488724821 652807325 -1130175903 2047195683 -1528390216 -1634426608 1588845228 -965806333 1607062376 -1675535563 -287133927 -851286873 1468241142 388043383 -993158361 -562937994 -1445759134 1065866793 -257908630 -1026971150
REM
CELL 1.54180   50.00000   50.00000   50.00000   90.00000   90.00000   90.00000
LATT -1
SFAC C  
C      1  0.4046080000000  0.4603290000000  0.5060760000000 1.0
C      1  0.4003790000000  0.4868130000000  0.5193870000000 1.0
C      1  0.5221960000000  0.4571650000000  0.4553640000000 1.0
C      1  0.5571890000000  0.5014170000000  0.6041240000000 1.0
C      1  0.4661790000000  0.3903850000000  0.6310800000000 1.0
C      1  0.5334220000000  0.5377460000000  0.5177890000000 1.0
C      1  0.5000370000000  0.5951990000000  0.4945460000000 1.0
C      1  0.6153610000000  0.4942910000000  0.5148200000000 1.0
C      1  0.5148950000000  0.6145930000000  0.5361110000000 1.0
C      1  0.4510580000000  0.4920460000000  0.4825300000000 1.0
C      1  0.5129420000000  0.4920490000000  0.5774720000000 1.0
C      1  0.4498710000000  0.5251920000000  0.6027570000000 1.0
C      1  0.5865140000000  0.4526600000000  0.5509830000000 1.0
C      1  0.4240630000000  0.5743200000000  0.5214280000000 1.0
C      1  0.5041900000000  0.5564570000000  0.4170850000000 1.0
C      1  0.4158940000000  0.5689120000000  0.4686530000000 1.0
C      1  0.4881050000000  0.5531480000000  0.5667940000000 1.0
C      1  0.4528260000000  0.5809750000000  0.5333390000000 1.0
C      1  0.4938510000000  0.4414040000000  0.4029270000000 1.0
C      1  0.5503410000000  0.5494790000000  0.4074990000000 1.0
C      1  0.5391840000000  0.5023460000000  0.4498690000000 1.0
C      1  0.5493170000000  0.5989350000000  0.5020190000000 1.0
C      1  0.4121010000000  0.4717080000000  0.4216240000000 1.0
C      1  0.3942590000000  0.5278650000000  0.4498710000000 1.0
C      1  0.4934170000000  0.5220540000000  0.5306620000000 1.0
C      1  0.4570300000000  0.5992910000000  0.4382210000000 1.0
C      1  0.4956520000000  0.4656470000000  0.4488770000000 1.0
C      1  0.5504130000000  0.5301630000000  0.6044130000000 1.0
C      1  0.4266680000000  0.5813310000000  0.4921420000000 1.0
C      1  0.5229630000000  0.5171590000000  0.5656290000000 1.0
C      1  0.5026750000000  0.5051920000000  0.4891870000000 1.0
C      1  0.4606290000000  0.6453830000000  0.4340580000000 1.0
C      1  0.4624050000000  0.4853530000000  0.6282640000000 1.0
C      1  0.4395090000000  0.4198490000000  0.4683740000000 1.0
C      1  0.4222040000000  0.5335000000000  0.4371850000000 1.0
C      1  0.5294670000000  0.4956500000000  0.4935180000000 1.0
C      1  0.5958200000000  0.5112260000000  0.4577120000000 1.0
C      1  0.4550540000000  0.4528920000000  0.5097060000000 1.0
C      1  0.6193730000000  0.6313680000000  0.5329550000000 1.0
C      1  0.5799990000000  0.4998750000000  0.5846270000000 1.0
C      1  0.4497580000000  0.5366960000000  0.5446360000000 1.0
C      1  0.5654650000000  0.3829790000000  0.5330510000000 1.0
C      1  0.4423520000000  0.4429430000000  0.5869520000000 1.0
C      1  0.3796690000000  0.5104900000000  0.4301500000000 1.0
C      1  0.5408900000000  0.5402940000000  0.4896220000000 1.0
C      1  0.4633770000000  0.5608400000000  0.5530510000000 1.0
C      1  0.4634840000000  0.4284680000000  0.4541910000000 1.0
C      1  0.5736570000000  0.5582720000000  0.4495880000000 1.0
C      1  0.4652660000000  0.5999560000000  0.5944780000000 1.0
C      1  0.4813970000000  0.4949090000000  0.4091540000000 1.0
C      1  0.4605880000000  0.5200080000000  0.3444470000000 1.0
C      1  0.5590140000000  0.3638540000000  0.4444570000000 1.0
C      1  0.5746280000000  0.5851960000000  0.4981610000000 1.0
C      1  0.6154690000000  0.4797470000000  0.4920160000000 1.0
C      1  0.4963040000000  0.4970740000000  0.6004970000000 1.0
C      1  0.4072050000000  0.5499690000000  0.5279730000000 1.0
C      1  0.5812990000000  0.4473560000000  0.4880230000000 1.0
C      1  0.4431270000000  0.5245160000000  0.5201030000000 1.0
C      1  0.4198680000000  0.4921200000000  0.5713070000000 1.0
C      1  0.4408430000000  0.3996590000000  0.5176380000000 1.0
C      1  0.4030980000000  0.5004820000000  0.5475080000000 1.0
C      1  0.4703870000000  0.5068320000000  0.6102610000000 1.0
C      1  0.5385330000000  0.4748120000000  0.3968980000000 1.0
C      1  0.5358000000000  0.5278990000000  0.3942200000000 1.0
C      1  0.4782170000000  0.4390870000000  0.5241370000000 1.0
C      1  0.5051130000000  0.5449200000000  0.5181780000000 1.0
C      1  0.3943400000000  0.5098030000000  0.4739060000000 1.0
C      1  0.5410020000000  0.4735940000000  0.5092200000000 1.0
C      1  0.5890010000000  0.4284400000000  0.5361540000000 1.0
C      1  0.5490450000000  0.5126870000000  0.4772330000000 1.0
C      1  0.3762620000000  0.5403080000000  0.5662730000000 1.0
C      1  0.5095080000000  0.4192200000000  0.5753180000000 1.0
C      1  0.4951670000000  0.4439700000000  0.5716780000000 1.0
C      1  0.4856890000000  0.5052280000000  0.5109070000000 1.0
C      1  0.4982340000000  0.6173960000000  0.5570480000000 1.0
C      1  0.5331630000000  0.5631230000000  0.4737880000000 1.0
C      1  0.5150710000000  0.3827490000000  0.4486820000000 1.0
C      1  0.4324330000000  0.5154890000000  0.4188290000000 1.0
C      1  0.4268500000000  0.4443460000000  0.5145370000000 1.0
C      1  0.3872360000000  0.4851970000000  0.4230740000000 1.0
C      1  0.5370580000000  0.3697360000000  0.4616680000000 1.0
C      1  0.4201940000000  0.4455990000000  0.4307070000000 1.0
C      1  0.4594150000000  0.4779610000000  0.4045840000000 1.0
C      1  0.4592640000000  0.4649100000000  0.4822910000000 1.0
C      1  0.5513770000000  0.4633440000000  0.4196860000000 1.0
C      1  0.5912450000000  0.4950450000000  0.4348060000000 1.0
C      1  0.4340600000000  0.4882050000000  0.4125030000000 1.0
C      1  0.3904130000000  0.5555150000000  0.4632990000000 1.0
C      1  0.4537430000000  0.4786480000000  0.5273400000000 1.0
C      1  0.6064620000000  0.6095190000000  0.5270370000000 1.0
C      1  0.4800590000000  0.4106930000000  0.4407730000000 1.0
C      1  0.4618590000000  0.4403310000000  0.6101610000000 1.0
C      1  0.5242160000000  0.4537140000000  0.5259080000000 1.0
C      1  0.5713340000000  0.5488600000000  0.6069390000000 1.0
C      1  0.5822590000000  0.5632140000000  0.4793780000000 1.0
C      1  0.5349060000000  0.4230690000000  0.5647660000000 1.0
C      1  0.4383950000000  0.4063750000000  0.5443750000000 1.0
C      1  0.5953410000000  0.5623880000000  0.5368650000000 1.0
C      1  0.5962950000000  0.5641130000000  0.5647910000000 1.0
C      1  0.5204470000000  0.3987440000000  0.4238300000000 1.0
C      1  0.4964450000000  0.5275390000000  0.5569880000000 1.0
C      1  0.5289710000000  0.5375940000000  0.5874270000000 1.0
C      1  0.4880960000000  0.3880090000000  0.4575600000000 1.0
C      1  0.5064260000000  0.4749740000000  0.6185670000000 1.0
C      1  0.5923270000000  0.4315180000000  0.5083620000000 1.0
C      1  0.4278590000000  0.5133220000000  0.5890880000000 1.0
C      1  0.5113670000000  0.4585210000000  0.3600020000000 1.0
C      1  0.5411550000000  0.5161470000000  0.5393280000000 1.0
C      1  0.5734690000000  0.5401670000000  0.4238360000000 1.0
C      1  0.5627140000000  0.3755510000000  0.4202230000000 1.0
C      1  0.4648390000000  0.4498090000000  0.4037500000000 1.0
C      1  0.5455710000000  0.5682220000000  0.4491590000000 1.0
C      1  0.4914870000000  0.5513040000000  0.4624760000000 1.0
C      1  0.4518940000000  0.5950790000000  0.4878620000000 1.0
C      1  0.4731060000000  0.5852880000000  0.5075690000000 1.0
C      1  0.4596660000000  0.6215010000000  0.4198840000000 1.0
C      1  0.5503730000000  0.5026180000000  0.3973320000000 1.0
C      1  0.6068710000000  0.4700360000000  0.5598580000000 1.0
C      1  0.5881740000000  0.5608900000000  0.5899540000000 1.0
C      1  0.5424610000000  0.4737950000000  0.4440200000000 1.0
C      1  0.5153730000000  0.4652080000000  0.5702150000000 1.0
C      1  0.4585970000000  0.6399740000000  0.4612500000000 1.0
C      1  0.5799270000000  0.4029110000000  0.5436530000000 1.0
C      1  0.5044840000000  0.4366570000000  0.5143870000000 1.0
C      1  0.4637230000000  0.4145080000000  0.6215360000000 1.0
C      1  0.5998160000000  0.4637830000000  0.4739580000000 1.0
C      1  0.5923520000000  0.5862340000000  0.5210620000000 1.0
C      1  0.4952240000000  0.4901060000000  0.4332370000000 1.0
C      1  0.5149050000000  0.4586450000000  0.3875970000000 1.0
C      1  0.4006910000000  0.4512140000000  0.4783150000000 1.0
C      1  0.4579200000000  0.4696740000000  0.5534580000000 1.0
C      1  0.4990980000000  0.4177080000000  0.4193420000000 1.0
C      1  0.3947600000000  0.5315560000000  0.5482480000000 1.0
C      1  0.4962430000000  0.5689970000000  0.6114690000000 1.0
C      1  0.4757620000000  0.4473720000000  0.5520560000000 1.0
C      1  0.6033590000000  0.5116450000000  0.5349190000000 1.0
C      1  0.4988320000000  0.5235610000000  0.4666680000000 1.0
C      1  0.5321810000000  0.4403480000000  0.4753850000000 1.0
C      1  0.5537820000000  0.4893750000000  0.5330790000000 1.0
C      1  0.4472040000000  0.3996570000000  0.4890640000000 1.0
C      1  0.4730490000000  0.4538700000000  0.4609160000000 1.0
C      1  0.5076170000000  0.5341080000000  0.3980170000000 1.0
C      1  0.4685870000000  0.5758520000000  0.6091880000000 1.0
C      1  0.4021670000000  0.5088040000000  0.5002700000000 1.0
C      1  0.5790720000000  0.5160020000000  0.4795240000000 1.0
C      1  0.4373350000000  0.4688160000000  0.5730840000000 1.0
C      1  0.4560660000000  0.6114130000000  0.4655450000000 1.0
C      1  0.5614900000000  0.4663870000000  0.5502950000000 1.0
C      1  0.4417140000000  0.4350750000000  0.4135980000000 1.0
C      1  0.4569250000000  0.5711470000000  0.4365470000000 1.0
C      1  0.5075970000000  0.5571170000000  0.5887370000000 1.0
C      1  0.4178080000000  0.5300880000000  0.5096450000000 1.0
C      1  0.5443790000000  0.3928880000000  0.4101910000000 1.0
C      1  0.5222000000000  0.6049640000000  0.5104160000000 1.0
C      1  0.5139190000000  0.4251610000000  0.4906400000000 1.0
C      1  0.4571160000000  0.5020290000000  0.5097890000000 1.0
C      1  0.4738870000000  0.5185050000000  0.3668060000000 1.0
C      1  0.4786210000000  0.4612090000000  0.6232670000000 1.0
C      1  0.5987430000000  0.4979940000000  0.5615730000000 1.0
C      1  0.5367930000000  0.4508870000000  0.5536930000000 1.0
C      1  0.5952220000000  0.5372280000000  0.5231630000000 1.0
C      1  0.4169160000000  0.4366230000000  0.4589540000000 1.0
C      1  0.4826590000000  0.5585530000000  0.4361910000000 1.0
C      1  0.5975620000000  0.4689340000000  0.4455290000000 1.0
C      1  0.5115870000000  0.5102370000000  0.4447140000000 1.0
C      1  0.5749390000000  0.5101530000000  0.4158920000000 1.0
C      1  0.4873760000000  0.5159590000000  0.3910930000000 1.0
C      1  0.5371550000000  0.4817040000000  0.6173460000000 1.0
C      1  0.5402740000000  0.3679570000000  0.4894180000000 1.0
C      1  0.4515060000000  0.5529940000000  0.6088970000000 1.0
C      1  0.5066610000000  0.5728730000000  0.4756230000000 1.0
C      1  0.5318850000000  0.5652230000000  0.4238980000000 1.0
C      1  0.4793280000000  0.6136210000000  0.5758220000000 1.0
C      1  0.4699160000000  0.3837240000000  0.4793080000000 1.0
C      1  0.5876890000000  0.5384870000000  0.4948960000000 1.0
C      1  0.5510490000000  0.3719390000000  0.5134840000000 1.0
C      1  0.4336250000000  0.5580920000000  0.4470850000000 1.0
C      1  0.4378750000000  0.4197610000000  0.5685710000000 1.0
C      1  0.4822190000000  0.5570580000000  0.5074700000000 1.0
C      1  0.5537540000000  0.4532700000000  0.4900300000000 1.0
END
