TITL C-247196-3112-187 4.73423219165529e-07 125000 -563.335157815502 0 0 92 (C1) n - 1
REM
REM in /home/nfs/bkarasulu/CARBON/AIRSS/Generating-Clusters/LCBOP/Only-C1/SD-CG/FIRE-HFTN
REM
REM
REM
REM
REM
REM ./C.cell (11c1c37f851c82e70ff6c80c92926a4b)
REM AIRSS Version 0.9.1 bugfix July 2018 build 013d7b7c2542+ Fri, 06 Jul 2018 19:26:36 +0100
REM compiler GCC version 9.2.1 20190827 (Red Hat 9.2.1-1)
REM options -cpp -mtune=generic -march=x86-64 -g -O0 -fpre-include=/usr/include/finclude/math-vector-fortran.h
REM seed -1606567507 -743527317 -1596101586 76231206 1585371671 1972400421 505467372 -204961299 -354723086 -1092220700 -1564543783 1523493688 -907752040 1153796010 1670865142 -1980711383 -753249072 -1431761248 2016386834 -1969407784 1208476748 -1546651023 1986257382 -23440960 -532036873 98945909 -1097451655 1133260334 347245931 -505496125 1288498627 -814060547 1502268294
REM
CELL 1.54180   50.00000   50.00000   50.00000   90.00000   90.00000   90.00000
LATT -1
SFAC C  
C      1  0.4390310000000  0.4889050000000  0.5811740000000 1.0
C      1  0.4228720000000  0.4763030000000  0.5602470000000 1.0
C      1  0.6133960000000  0.4600590000000  0.4222940000000 1.0
C      1  0.4341240000000  0.4981890000000  0.4876260000000 1.0
C      1  0.5121910000000  0.4572780000000  0.4822450000000 1.0
C      1  0.5646070000000  0.5505510000000  0.5309060000000 1.0
C      1  0.5484120000000  0.4228840000000  0.5040850000000 1.0
C      1  0.4094880000000  0.4439630000000  0.4490880000000 1.0
C      1  0.5132070000000  0.5899800000000  0.5818610000000 1.0
C      1  0.4632870000000  0.5340080000000  0.5592670000000 1.0
C      1  0.4969520000000  0.5744620000000  0.5653270000000 1.0
C      1  0.4885070000000  0.5482530000000  0.5737690000000 1.0
C      1  0.4449020000000  0.5227330000000  0.4999570000000 1.0
C      1  0.6052060000000  0.4774850000000  0.4019970000000 1.0
C      1  0.5018650000000  0.5067990000000  0.4640440000000 1.0
C      1  0.5081850000000  0.5020770000000  0.5880560000000 1.0
C      1  0.4355320000000  0.5679850000000  0.4941450000000 1.0
C      1  0.4744570000000  0.5246800000000  0.4960240000000 1.0
C      1  0.4587190000000  0.4829250000000  0.4842830000000 1.0
C      1  0.5442890000000  0.5279430000000  0.4595110000000 1.0
C      1  0.4694070000000  0.4447050000000  0.5469830000000 1.0
C      1  0.4351340000000  0.5454290000000  0.5133030000000 1.0
C      1  0.4648550000000  0.4562980000000  0.4985930000000 1.0
C      1  0.6345100000000  0.4431340000000  0.4183020000000 1.0
C      1  0.5473670000000  0.5323550000000  0.5201710000000 1.0
C      1  0.4793620000000  0.5022380000000  0.4786910000000 1.0
C      1  0.4286810000000  0.5627430000000  0.4673650000000 1.0
C      1  0.5326050000000  0.5478680000000  0.4766390000000 1.0
C      1  0.5244510000000  0.4655780000000  0.5076070000000 1.0
C      1  0.4154480000000  0.4447280000000  0.4961410000000 1.0
C      1  0.4654070000000  0.5471300000000  0.4360700000000 1.0
C      1  0.5821550000000  0.4859960000000  0.5554800000000 1.0
C      1  0.6058330000000  0.4760180000000  0.4704050000000 1.0
C      1  0.5510610000000  0.4385750000000  0.4587840000000 1.0
C      1  0.5073170000000  0.5308730000000  0.5883510000000 1.0
C      1  0.5280040000000  0.5054810000000  0.4537270000000 1.0
C      1  0.4780530000000  0.4516430000000  0.5737180000000 1.0
C      1  0.5890390000000  0.4646720000000  0.4893180000000 1.0
C      1  0.4616800000000  0.5776650000000  0.5321070000000 1.0
C      1  0.5967000000000  0.5236420000000  0.4590070000000 1.0
C      1  0.5057490000000  0.4533960000000  0.5833980000000 1.0
C      1  0.4574870000000  0.5843030000000  0.5031650000000 1.0
C      1  0.4133950000000  0.4875930000000  0.4710500000000 1.0
C      1  0.5714270000000  0.5299800000000  0.4534940000000 1.0
C      1  0.4135220000000  0.4973370000000  0.4443130000000 1.0
C      1  0.4954570000000  0.5800650000000  0.4671780000000 1.0
C      1  0.5295130000000  0.4575690000000  0.4580840000000 1.0
C      1  0.5771680000000  0.4467630000000  0.4548210000000 1.0
C      1  0.5485490000000  0.4498480000000  0.5127170000000 1.0
C      1  0.5727500000000  0.4803740000000  0.5798890000000 1.0
C      1  0.4839250000000  0.5897800000000  0.4915990000000 1.0
C      1  0.5997180000000  0.4602080000000  0.4466770000000 1.0
C      1  0.5726100000000  0.4655030000000  0.5117950000000 1.0
C      1  0.4566770000000  0.4784920000000  0.4236470000000 1.0
C      1  0.5289020000000  0.6042040000000  0.5970430000000 1.0
C      1  0.5057330000000  0.4819810000000  0.4202000000000 1.0
C      1  0.4316150000000  0.4920290000000  0.4249430000000 1.0
C      1  0.4323380000000  0.4901080000000  0.5368110000000 1.0
C      1  0.4218420000000  0.4480220000000  0.5555050000000 1.0
C      1  0.5479940000000  0.4172090000000  0.4774750000000 1.0
C      1  0.4819730000000  0.5681040000000  0.4454540000000 1.0
C      1  0.5962890000000  0.4948230000000  0.3847030000000 1.0
C      1  0.4078090000000  0.4590370000000  0.4731480000000 1.0
C      1  0.4754100000000  0.5233520000000  0.4234550000000 1.0
C      1  0.5227440000000  0.5726230000000  0.4681600000000 1.0
C      1  0.4883850000000  0.5843300000000  0.5403220000000 1.0
C      1  0.4605970000000  0.4900160000000  0.5333350000000 1.0
C      1  0.4842800000000  0.4956280000000  0.5745870000000 1.0
C      1  0.4421870000000  0.5188450000000  0.5784600000000 1.0
C      1  0.4991010000000  0.5304550000000  0.5103640000000 1.0
C      1  0.4799000000000  0.4948730000000  0.4199290000000 1.0
C      1  0.4421360000000  0.4359190000000  0.5387520000000 1.0
C      1  0.6114890000000  0.5031180000000  0.4676970000000 1.0
C      1  0.4388460000000  0.5504500000000  0.4455400000000 1.0
C      1  0.5254240000000  0.5400990000000  0.5029870000000 1.0
C      1  0.5498890000000  0.4758920000000  0.5929230000000 1.0
C      1  0.4757210000000  0.4419880000000  0.4528270000000 1.0
C      1  0.4312800000000  0.4388000000000  0.4339600000000 1.0
C      1  0.4650090000000  0.4763340000000  0.5831800000000 1.0
C      1  0.5230580000000  0.4908350000000  0.5229850000000 1.0
C      1  0.5715010000000  0.4877690000000  0.5296350000000 1.0
C      1  0.4494680000000  0.5520980000000  0.5384640000000 1.0
C      1  0.4399390000000  0.4397100000000  0.5089460000000 1.0
C      1  0.5018720000000  0.5094680000000  0.5299730000000 1.0
C      1  0.5488380000000  0.5044080000000  0.5253440000000 1.0
C      1  0.4567320000000  0.4514510000000  0.4339340000000 1.0
C      1  0.4857310000000  0.4462260000000  0.4793060000000 1.0
C      1  0.4738810000000  0.4653930000000  0.5262740000000 1.0
C      1  0.5220620000000  0.4767420000000  0.5908380000000 1.0
C      1  0.5267580000000  0.4800180000000  0.4399830000000 1.0
C      1  0.5007220000000  0.5937180000000  0.5157630000000 1.0
C      1  0.4782990000000  0.5084800000000  0.5482960000000 1.0
END
