TITL C-247198-3593-304 -4.16501786771979e-07 125000 -708.481856164778 0 0 117 (C1) n - 1
REM
REM in /home/nfs/bkarasulu/CARBON/AIRSS/Generating-Clusters/LCBOP/Only-C1/SD-CG/FIRE-HFTN
REM
REM
REM
REM
REM
REM ./C.cell (11c1c37f851c82e70ff6c80c92926a4b)
REM AIRSS Version 0.9.1 bugfix July 2018 build 013d7b7c2542+ Fri, 06 Jul 2018 19:26:36 +0100
REM compiler GCC version 9.2.1 20190827 (Red Hat 9.2.1-1)
REM options -cpp -mtune=generic -march=x86-64 -g -O0 -fpre-include=/usr/include/finclude/math-vector-fortran.h
REM seed -15576717 140917913 595097312 1300512775 468963963 -1435309503 326631952 -1526577488 -1683060801 1739748871 -2093661432 341504168 -299626866 -448447697 -1516669502 479504456 -19164199 -676325735 -1325688622 1226860059 495573932 257991414 -772933353 1866216446 544854638 1237121830 746422922 -165250019 1564120610 985026631 -1246772641 1647479789 -702468816
REM
CELL 1.54180   50.00000   50.00000   50.00000   90.00000   90.00000   90.00000
LATT -1
SFAC C  
C      1  0.5686890000000  0.4675310000000  0.4023480000000 1.0
C      1  0.5523190000000  0.4117660000000  0.4913930000000 1.0
C      1  0.4507560000000  0.4690920000000  0.3962530000000 1.0
C      1  0.5903150000000  0.5737670000000  0.4996810000000 1.0
C      1  0.4475380000000  0.5312300000000  0.4864620000000 1.0
C      1  0.5726210000000  0.5941500000000  0.4968290000000 1.0
C      1  0.3819100000000  0.5273950000000  0.4988500000000 1.0
C      1  0.5909870000000  0.5510300000000  0.5166970000000 1.0
C      1  0.4874040000000  0.5932500000000  0.5199600000000 1.0
C      1  0.4422540000000  0.4378150000000  0.5703970000000 1.0
C      1  0.4493830000000  0.4548140000000  0.4486630000000 1.0
C      1  0.5899330000000  0.5217560000000  0.5090490000000 1.0
C      1  0.4353780000000  0.4792060000000  0.4921410000000 1.0
C      1  0.4517670000000  0.5168830000000  0.3959330000000 1.0
C      1  0.4764710000000  0.5268940000000  0.3937910000000 1.0
C      1  0.5890520000000  0.5012870000000  0.4650950000000 1.0
C      1  0.5954900000000  0.4975690000000  0.4931380000000 1.0
C      1  0.5463430000000  0.5012710000000  0.5041900000000 1.0
C      1  0.4837630000000  0.5499010000000  0.5638960000000 1.0
C      1  0.5323420000000  0.4992260000000  0.4797920000000 1.0
C      1  0.5293160000000  0.5455290000000  0.5069940000000 1.0
C      1  0.4433880000000  0.5703980000000  0.5166260000000 1.0
C      1  0.4387150000000  0.4937620000000  0.4059010000000 1.0
C      1  0.5572040000000  0.4805910000000  0.5536960000000 1.0
C      1  0.5606950000000  0.4886780000000  0.5809190000000 1.0
C      1  0.5579070000000  0.5772420000000  0.5475980000000 1.0
C      1  0.4127950000000  0.4925830000000  0.4808640000000 1.0
C      1  0.3842560000000  0.5524870000000  0.5104770000000 1.0
C      1  0.4237840000000  0.5763750000000  0.5377900000000 1.0
C      1  0.5878610000000  0.4537460000000  0.4419450000000 1.0
C      1  0.5024300000000  0.5245750000000  0.3993870000000 1.0
C      1  0.4211460000000  0.5304990000000  0.5330120000000 1.0
C      1  0.4872890000000  0.3967920000000  0.5321480000000 1.0
C      1  0.5659350000000  0.4894080000000  0.4210680000000 1.0
C      1  0.5496460000000  0.6024130000000  0.5088370000000 1.0
C      1  0.5704900000000  0.5231770000000  0.4610050000000 1.0
C      1  0.4994610000000  0.4622520000000  0.4907800000000 1.0
C      1  0.5821290000000  0.4466420000000  0.4145430000000 1.0
C      1  0.5060320000000  0.4884190000000  0.4803560000000 1.0
C      1  0.5203820000000  0.5372150000000  0.5323270000000 1.0
C      1  0.4339650000000  0.4355840000000  0.4372180000000 1.0
C      1  0.5163340000000  0.5097270000000  0.5398430000000 1.0
C      1  0.5858830000000  0.4829790000000  0.4433140000000 1.0
C      1  0.4364570000000  0.5579210000000  0.4497890000000 1.0
C      1  0.4382370000000  0.4884250000000  0.5470070000000 1.0
C      1  0.4893440000000  0.4542920000000  0.5685110000000 1.0
C      1  0.5887060000000  0.5916780000000  0.4244920000000 1.0
C      1  0.4223730000000  0.4976230000000  0.4296320000000 1.0
C      1  0.4595290000000  0.4512750000000  0.5199210000000 1.0
C      1  0.4941540000000  0.4406320000000  0.4085000000000 1.0
C      1  0.5211170000000  0.4425020000000  0.5351610000000 1.0
C      1  0.4607130000000  0.5713950000000  0.4580050000000 1.0
C      1  0.4495650000000  0.4596670000000  0.4759700000000 1.0
C      1  0.4480730000000  0.5115590000000  0.5638660000000 1.0
C      1  0.4793480000000  0.4947200000000  0.4425580000000 1.0
C      1  0.4495650000000  0.4248310000000  0.5248270000000 1.0
C      1  0.5317820000000  0.4262470000000  0.4449780000000 1.0
C      1  0.3973060000000  0.5162610000000  0.5399830000000 1.0
C      1  0.5854780000000  0.4467880000000  0.4907690000000 1.0
C      1  0.5056900000000  0.5574800000000  0.5467160000000 1.0
C      1  0.5439450000000  0.5033500000000  0.5989800000000 1.0
C      1  0.4298240000000  0.5333600000000  0.4629830000000 1.0
C      1  0.5173620000000  0.4488920000000  0.5080520000000 1.0
C      1  0.5882940000000  0.4718080000000  0.5066030000000 1.0
C      1  0.3969100000000  0.5706440000000  0.5272830000000 1.0
C      1  0.4826360000000  0.5531790000000  0.4621870000000 1.0
C      1  0.5239190000000  0.5143530000000  0.4112820000000 1.0
C      1  0.5438300000000  0.4287910000000  0.5444760000000 1.0
C      1  0.4745940000000  0.5289910000000  0.4759390000000 1.0
C      1  0.5742960000000  0.4658890000000  0.5341570000000 1.0
C      1  0.4379580000000  0.5417820000000  0.5111340000000 1.0
C      1  0.4633140000000  0.5874080000000  0.5057320000000 1.0
C      1  0.5124560000000  0.3900250000000  0.5207550000000 1.0
C      1  0.4865980000000  0.5047080000000  0.4675660000000 1.0
C      1  0.5270720000000  0.5569700000000  0.4830890000000 1.0
C      1  0.4190440000000  0.4494690000000  0.5611270000000 1.0
C      1  0.4777330000000  0.5188580000000  0.5669230000000 1.0
C      1  0.5115180000000  0.4624070000000  0.5530280000000 1.0
C      1  0.5526350000000  0.4238460000000  0.4642440000000 1.0
C      1  0.4752210000000  0.4180540000000  0.4888790000000 1.0
C      1  0.5749020000000  0.5552560000000  0.5418250000000 1.0
C      1  0.5286660000000  0.4856070000000  0.5485160000000 1.0
C      1  0.5132600000000  0.4328260000000  0.4262240000000 1.0
C      1  0.4672660000000  0.4049030000000  0.5134820000000 1.0
C      1  0.5778390000000  0.5485030000000  0.4524400000000 1.0
C      1  0.5094120000000  0.5607350000000  0.4634470000000 1.0
C      1  0.5683200000000  0.4365690000000  0.5332450000000 1.0
C      1  0.4724590000000  0.4523070000000  0.3967090000000 1.0
C      1  0.4325640000000  0.5353860000000  0.5591860000000 1.0
C      1  0.3918850000000  0.4991640000000  0.4996200000000 1.0
C      1  0.4736190000000  0.4984160000000  0.5196310000000 1.0
C      1  0.5327830000000  0.3954170000000  0.5037270000000 1.0
C      1  0.4181760000000  0.5080000000000  0.4562820000000 1.0
C      1  0.4628610000000  0.5684360000000  0.5703600000000 1.0
C      1  0.5727310000000  0.4260460000000  0.5071720000000 1.0
C      1  0.4817040000000  0.4075630000000  0.5583940000000 1.0
C      1  0.4125070000000  0.4734650000000  0.5463940000000 1.0
C      1  0.4940260000000  0.5085360000000  0.5900870000000 1.0
C      1  0.4361860000000  0.5636550000000  0.5619000000000 1.0
C      1  0.4707480000000  0.4324480000000  0.5687960000000 1.0
C      1  0.5378680000000  0.5913510000000  0.5323300000000 1.0
C      1  0.5442500000000  0.5117170000000  0.4566440000000 1.0
C      1  0.4677960000000  0.4716530000000  0.4363000000000 1.0
C      1  0.3949110000000  0.4900370000000  0.5281450000000 1.0
C      1  0.5835930000000  0.5701050000000  0.4382010000000 1.0
C      1  0.4727500000000  0.4484400000000  0.4910720000000 1.0
C      1  0.4604830000000  0.5919230000000  0.4776800000000 1.0
C      1  0.5639810000000  0.5290910000000  0.5460300000000 1.0
C      1  0.5107740000000  0.4778570000000  0.6229060000000 1.0
C      1  0.5769620000000  0.4406440000000  0.4639440000000 1.0
C      1  0.5546910000000  0.5247750000000  0.6124030000000 1.0
C      1  0.5426220000000  0.5039140000000  0.4290650000000 1.0
C      1  0.5161750000000  0.4967200000000  0.6035990000000 1.0
C      1  0.5097480000000  0.5838300000000  0.5351170000000 1.0
C      1  0.4504140000000  0.4803050000000  0.5197830000000 1.0
C      1  0.4883470000000  0.5076940000000  0.5411080000000 1.0
C      1  0.5643640000000  0.5137190000000  0.5219250000000 1.0
END
