TITL C-247195-3186-615 0.536090530219388 125000 -936.954455764571 0 0 152 (C1) n - 1
REM
REM in /home/nfs/bkarasulu/CARBON/AIRSS/Generating-Clusters/LCBOP/Only-C1/SD-CG/FIRE-HFTN
REM
REM
REM
REM
REM
REM ./C.cell (11c1c37f851c82e70ff6c80c92926a4b)
REM AIRSS Version 0.9.1 bugfix July 2018 build 013d7b7c2542+ Fri, 06 Jul 2018 19:26:36 +0100
REM compiler GCC version 9.2.1 20190827 (Red Hat 9.2.1-1)
REM options -cpp -mtune=generic -march=x86-64 -g -O0 -fpre-include=/usr/include/finclude/math-vector-fortran.h
REM seed 612691017 221858112 -1979967233 -869363948 -640368373 918406599 -795238867 144825637 -1227616730 1579241283 458808498 2126551628 -1863942174 -381358491 323360490 1278371920 548691093 -808880302 2092557869 496760390 -707027770 -679695760 515456583 -1819190436 -2061561816 1951426542 -1849866982 312629881 -836762100 -1613185547 1605778458 -1113981641 -1654526994
REM
CELL 1.54180   50.00000   50.00000   50.00000   90.00000   90.00000   90.00000
LATT -1
SFAC C  
C      1  0.4033270000000  0.4622220000000  0.5548210000000 1.0
C      1  0.6196580000000  0.5278680000000  0.4937380000000 1.0
C      1  0.4234580000000  0.3866900000000  0.3783660000000 1.0
C      1  0.4709460000000  0.6144690000000  0.4767380000000 1.0
C      1  0.4029860000000  0.5635370000000  0.5234820000000 1.0
C      1  0.4691080000000  0.5722730000000  0.3964500000000 1.0
C      1  0.6104660000000  0.5442710000000  0.4714790000000 1.0
C      1  0.4458850000000  0.4857090000000  0.5312160000000 1.0
C      1  0.5593310000000  0.4317010000000  0.5783830000000 1.0
C      1  0.5313100000000  0.4280830000000  0.5843090000000 1.0
C      1  0.3944510000000  0.4532300000000  0.4428980000000 1.0
C      1  0.4222500000000  0.4254530000000  0.5265370000000 1.0
C      1  0.5306980000000  0.5432860000000  0.5472110000000 1.0
C      1  0.5473510000000  0.4954820000000  0.5851340000000 1.0
C      1  0.4260010000000  0.4093930000000  0.3917710000000 1.0
C      1  0.5144790000000  0.4272480000000  0.4227420000000 1.0
C      1  0.5136670000000  0.4949970000000  0.6500080000000 1.0
C      1  0.5657110000000  0.4202600000000  0.5273670000000 1.0
C      1  0.6030960000000  0.5671530000000  0.5262340000000 1.0
C      1  0.4087130000000  0.4416830000000  0.4236490000000 1.0
C      1  0.4085660000000  0.5514090000000  0.4981400000000 1.0
C      1  0.3964720000000  0.5323520000000  0.4327310000000 1.0
C      1  0.5372470000000  0.5419440000000  0.5963280000000 1.0
C      1  0.5313330000000  0.4737800000000  0.4038260000000 1.0
C      1  0.4661740000000  0.4721290000000  0.4088930000000 1.0
C      1  0.6058960000000  0.4458360000000  0.4925900000000 1.0
C      1  0.5702070000000  0.5341430000000  0.4390710000000 1.0
C      1  0.5737190000000  0.5620050000000  0.4427910000000 1.0
C      1  0.5701460000000  0.5298400000000  0.5603020000000 1.0
C      1  0.4885100000000  0.5813070000000  0.4405420000000 1.0
C      1  0.4288130000000  0.4332590000000  0.4059430000000 1.0
C      1  0.5662310000000  0.6008300000000  0.5292550000000 1.0
C      1  0.4209180000000  0.3639760000000  0.3649550000000 1.0
C      1  0.4554360000000  0.6095970000000  0.5293250000000 1.0
C      1  0.6124130000000  0.4411200000000  0.4645540000000 1.0
C      1  0.5534510000000  0.5228200000000  0.5830880000000 1.0
C      1  0.5604530000000  0.4251720000000  0.4820990000000 1.0
C      1  0.5118360000000  0.4943320000000  0.3976990000000 1.0
C      1  0.4906140000000  0.5690710000000  0.4142740000000 1.0
C      1  0.4277860000000  0.5708190000000  0.5672730000000 1.0
C      1  0.5676950000000  0.5165850000000  0.4892260000000 1.0
C      1  0.4799840000000  0.4816340000000  0.4813400000000 1.0
C      1  0.5680850000000  0.5189630000000  0.4613470000000 1.0
C      1  0.4088980000000  0.4801490000000  0.5743210000000 1.0
C      1  0.5199340000000  0.5217100000000  0.4965040000000 1.0
C      1  0.5996840000000  0.4475690000000  0.4400830000000 1.0
C      1  0.5896110000000  0.5637650000000  0.4678560000000 1.0
C      1  0.4158770000000  0.3189100000000  0.3383460000000 1.0
C      1  0.5227180000000  0.4006590000000  0.5832150000000 1.0
C      1  0.5432620000000  0.5960930000000  0.5450330000000 1.0
C      1  0.5113460000000  0.4465650000000  0.5726640000000 1.0
C      1  0.4528470000000  0.5636920000000  0.5802470000000 1.0
C      1  0.5649060000000  0.4774900000000  0.5718740000000 1.0
C      1  0.5497420000000  0.5770460000000  0.4471760000000 1.0
C      1  0.4360940000000  0.5547780000000  0.4893370000000 1.0
C      1  0.5231320000000  0.4869110000000  0.5975710000000 1.0
C      1  0.5157350000000  0.3917810000000  0.5582220000000 1.0
C      1  0.4939370000000  0.5626460000000  0.4608690000000 1.0
C      1  0.4178310000000  0.5373210000000  0.6522080000000 1.0
C      1  0.4183760000000  0.3412560000000  0.3515400000000 1.0
C      1  0.4745510000000  0.4911310000000  0.4545210000000 1.0
C      1  0.4524550000000  0.5643840000000  0.5096460000000 1.0
C      1  0.5507360000000  0.4825300000000  0.4229330000000 1.0
C      1  0.5703070000000  0.4775760000000  0.5439840000000 1.0
C      1  0.5147190000000  0.5183360000000  0.4140460000000 1.0
C      1  0.4839460000000  0.4917610000000  0.5647270000000 1.0
C      1  0.5419620000000  0.5758220000000  0.4755140000000 1.0
C      1  0.5249180000000  0.4653230000000  0.5166750000000 1.0
C      1  0.5167160000000  0.5099340000000  0.4425000000000 1.0
C      1  0.4577480000000  0.3704630000000  0.4926220000000 1.0
C      1  0.4190110000000  0.5000610000000  0.5895430000000 1.0
C      1  0.5843020000000  0.4982290000000  0.5017430000000 1.0
C      1  0.4706780000000  0.6006540000000  0.5517210000000 1.0
C      1  0.4662350000000  0.5493410000000  0.5282260000000 1.0
C      1  0.5185620000000  0.4905110000000  0.6248090000000 1.0
C      1  0.5761400000000  0.6264140000000  0.5278170000000 1.0
C      1  0.4368300000000  0.5115800000000  0.5351740000000 1.0
C      1  0.3868280000000  0.5067780000000  0.4929880000000 1.0
C      1  0.4858780000000  0.4843270000000  0.3928590000000 1.0
C      1  0.4386140000000  0.4747210000000  0.5062460000000 1.0
C      1  0.5927480000000  0.5449410000000  0.5667690000000 1.0
C      1  0.4517820000000  0.4490390000000  0.4026810000000 1.0
C      1  0.5006260000000  0.4982210000000  0.4964620000000 1.0
C      1  0.3865180000000  0.5379840000000  0.4568430000000 1.0
C      1  0.5109260000000  0.4141060000000  0.4458640000000 1.0
C      1  0.5784700000000  0.4846650000000  0.4181420000000 1.0
C      1  0.4371570000000  0.5129540000000  0.4697220000000 1.0
C      1  0.6198120000000  0.5470650000000  0.5149300000000 1.0
C      1  0.4759740000000  0.5808970000000  0.5723250000000 1.0
C      1  0.5798020000000  0.5802120000000  0.5143840000000 1.0
C      1  0.6011980000000  0.4715880000000  0.4252490000000 1.0
C      1  0.4346350000000  0.5028900000000  0.4259880000000 1.0
C      1  0.5540990000000  0.5324140000000  0.5356200000000 1.0
C      1  0.5149470000000  0.5661280000000  0.4803600000000 1.0
C      1  0.5812210000000  0.4299350000000  0.5029490000000 1.0
C      1  0.5226360000000  0.5925160000000  0.5617720000000 1.0
C      1  0.5041750000000  0.5780720000000  0.5782810000000 1.0
C      1  0.4515730000000  0.3936860000000  0.5027070000000 1.0
C      1  0.4188080000000  0.5246430000000  0.4176040000000 1.0
C      1  0.4325070000000  0.5217160000000  0.6026900000000 1.0
C      1  0.4778100000000  0.4480350000000  0.5368450000000 1.0
C      1  0.4459580000000  0.5604670000000  0.3903840000000 1.0
C      1  0.6123930000000  0.4995750000000  0.4986320000000 1.0
C      1  0.4674030000000  0.5186550000000  0.5699990000000 1.0
C      1  0.4773690000000  0.5391690000000  0.4616240000000 1.0
C      1  0.4072750000000  0.4495690000000  0.5294780000000 1.0
C      1  0.5372990000000  0.4883080000000  0.4487320000000 1.0
C      1  0.5072880000000  0.5456940000000  0.4097700000000 1.0
C      1  0.3930570000000  0.4794400000000  0.4892630000000 1.0
C      1  0.5454260000000  0.4689650000000  0.4703400000000 1.0
C      1  0.4655440000000  0.6156890000000  0.5032750000000 1.0
C      1  0.5230390000000  0.4467610000000  0.4063790000000 1.0
C      1  0.5081610000000  0.5476150000000  0.5004670000000 1.0
C      1  0.5705700000000  0.4201500000000  0.5550190000000 1.0
C      1  0.3914390000000  0.5332910000000  0.4841970000000 1.0
C      1  0.4556190000000  0.5293650000000  0.5449660000000 1.0
C      1  0.4247850000000  0.5295080000000  0.6283390000000 1.0
C      1  0.4618270000000  0.4628940000000  0.4939350000000 1.0
C      1  0.4160710000000  0.5800330000000  0.5427910000000 1.0
C      1  0.4542510000000  0.5353230000000  0.5894070000000 1.0
C      1  0.4468160000000  0.4189450000000  0.5133450000000 1.0
C      1  0.5475220000000  0.5242960000000  0.5073220000000 1.0
C      1  0.4497910000000  0.5372960000000  0.4713720000000 1.0
C      1  0.5064000000000  0.5312520000000  0.5433220000000 1.0
C      1  0.4276580000000  0.6041060000000  0.5326140000000 1.0
C      1  0.4779460000000  0.6052000000000  0.4520790000000 1.0
C      1  0.5170820000000  0.4075780000000  0.4712260000000 1.0
C      1  0.6193970000000  0.4710580000000  0.5009160000000 1.0
C      1  0.4113010000000  0.4669410000000  0.5067260000000 1.0
C      1  0.3876410000000  0.4664560000000  0.4649700000000 1.0
C      1  0.6036140000000  0.5660590000000  0.5543880000000 1.0
C      1  0.5153470000000  0.4121070000000  0.5378840000000 1.0
C      1  0.5724880000000  0.4549270000000  0.5872030000000 1.0
C      1  0.5470710000000  0.4698630000000  0.5001140000000 1.0
C      1  0.5729990000000  0.4378670000000  0.4392290000000 1.0
C      1  0.5165120000000  0.5590970000000  0.5952250000000 1.0
C      1  0.5363990000000  0.4118240000000  0.4910900000000 1.0
C      1  0.4663920000000  0.4729650000000  0.5472950000000 1.0
C      1  0.4665930000000  0.4398760000000  0.5116150000000 1.0
C      1  0.5030880000000  0.5029690000000  0.5439100000000 1.0
C      1  0.5038210000000  0.4736240000000  0.5811400000000 1.0
C      1  0.4931520000000  0.5469800000000  0.5239560000000 1.0
C      1  0.5698500000000  0.5735330000000  0.4884240000000 1.0
C      1  0.5376210000000  0.4126690000000  0.5196920000000 1.0
C      1  0.5567720000000  0.4436780000000  0.4612350000000 1.0
C      1  0.4904770000000  0.5149500000000  0.4530560000000 1.0
C      1  0.4574470000000  0.4869980000000  0.4316850000000 1.0
C      1  0.4283500000000  0.5418770000000  0.3976910000000 1.0
C      1  0.5696250000000  0.4789130000000  0.5156460000000 1.0
C      1  0.5009190000000  0.4358880000000  0.5475850000000 1.0
C      1  0.5074490000000  0.4862280000000  0.5216600000000 1.0
C      1  0.5903150000000  0.4556550000000  0.6077140000000 1.0
END
