TITL C-247198-3593-676 -145711.493451363 125000 -960.516496550052 0 0 160 (C1) n - 1
REM
REM in /home/nfs/bkarasulu/CARBON/AIRSS/Generating-Clusters/LCBOP/Only-C1/SD-CG/FIRE-HFTN
REM
REM
REM
REM
REM
REM ./C.cell (11c1c37f851c82e70ff6c80c92926a4b)
REM AIRSS Version 0.9.1 bugfix July 2018 build 013d7b7c2542+ Fri, 06 Jul 2018 19:26:36 +0100
REM compiler GCC version 9.2.1 20190827 (Red Hat 9.2.1-1)
REM options -cpp -mtune=generic -march=x86-64 -g -O0 -fpre-include=/usr/include/finclude/math-vector-fortran.h
REM seed 128562822 -58795629 -1671681934 774720103 1217345046 -1200071100 993600515 -1825140156 1040388770 -477658775 513307721 -180301728 -1472235342 701936664 1562953106 447834546 482908272 -1414741668 607378260 -910624246 -873725671 -1188673100 -1764978702 1689371996 -413195307 -759075286 1453649682 1382061084 -847817297 1485424260 -1146081360 -133752705 1512210034
REM
CELL 1.54180   50.00000   50.00000   50.00000   90.00000   90.00000   90.00000
LATT -1
SFAC C  
C      1  0.4566260000000  0.4856120000000  0.4736340000000 1.0
C      1  0.5392580000000  0.5374670000000  0.5007340000000 1.0
C      1  0.4775740000000  0.4849530000000  0.4927290000000 1.0
C      1  0.5647590000000  0.4432770000000  0.4812350000000 1.0
C      1  0.5208010000000  0.4241620000000  0.5920460000000 1.0
C      1  0.4944850000000  0.5079180000000  0.4899470000000 1.0
C      1  0.3951690000000  0.5032190000000  0.4791810000000 1.0
C      1  0.5633530000000  0.4074320000000  0.5614210000000 1.0
C      1  0.5641610000000  0.5774990000000  0.4824840000000 1.0
C      1  0.4201340000000  0.5129720000000  0.5801870000000 1.0
C      1  0.4068720000000  0.4570610000000  0.4492190000000 1.0
C      1  0.5407760000000  0.4643200000000  0.4430850000000 1.0
C      1  0.4327160000000  0.4479230000000  0.5172060000000 1.0
C      1  0.4334870000000  0.5192870000000  0.5037340000000 1.0
C      1  0.5785200000000  0.5402750000000  0.4205950000000 1.0
C      1  0.5414900000000  0.3979440000000  0.4700810000000 1.0
C      1  0.5434670000000  0.5023940000000  0.4144120000000 1.0
C      1  0.5961620000000  0.5850460000000  0.4286640000000 1.0
C      1  0.5955080000000  0.4832990000000  0.4234150000000 1.0
C      1  0.4022310000000  0.4878560000000  0.5246530000000 1.0
C      1  0.4713950000000  0.3855260000000  0.5374300000000 1.0
C      1  0.4733410000000  0.5474720000000  0.5166810000000 1.0
C      1  0.4680420000000  0.5243520000000  0.6003200000000 1.0
C      1  0.4903510000000  0.4473670000000  0.5612990000000 1.0
C      1  0.4921730000000  0.3868210000000  0.4885570000000 1.0
C      1  0.4563190000000  0.4639790000000  0.4566460000000 1.0
C      1  0.4067120000000  0.5072930000000  0.4508780000000 1.0
C      1  0.5038010000000  0.5854350000000  0.4101320000000 1.0
C      1  0.4534380000000  0.4801340000000  0.5922140000000 1.0
C      1  0.4529960000000  0.4627440000000  0.5323270000000 1.0
C      1  0.5517560000000  0.6021450000000  0.4193290000000 1.0
C      1  0.5157530000000  0.5493460000000  0.4566690000000 1.0
C      1  0.4925820000000  0.5227360000000  0.5860120000000 1.0
C      1  0.4995280000000  0.4556930000000  0.4639530000000 1.0
C      1  0.4971550000000  0.6127290000000  0.4052860000000 1.0
C      1  0.5596750000000  0.4878370000000  0.3963170000000 1.0
C      1  0.4910660000000  0.4387540000000  0.5113920000000 1.0
C      1  0.5184420000000  0.4748740000000  0.4572480000000 1.0
C      1  0.4604400000000  0.5524440000000  0.5652940000000 1.0
C      1  0.5418920000000  0.5123080000000  0.5896020000000 1.0
C      1  0.4401220000000  0.4195420000000  0.4608650000000 1.0
C      1  0.5466420000000  0.5692810000000  0.5862680000000 1.0
C      1  0.5272170000000  0.3962550000000  0.5851900000000 1.0
C      1  0.4808920000000  0.5396770000000  0.4062320000000 1.0
C      1  0.5466530000000  0.5157550000000  0.4791620000000 1.0
C      1  0.5407480000000  0.4788130000000  0.6012080000000 1.0
C      1  0.4860640000000  0.6036910000000  0.5135760000000 1.0
C      1  0.5950240000000  0.5623610000000  0.5801360000000 1.0
C      1  0.4960010000000  0.5778750000000  0.5825410000000 1.0
C      1  0.5549050000000  0.4506160000000  0.4219360000000 1.0
C      1  0.5237630000000  0.5419410000000  0.4313330000000 1.0
C      1  0.4303740000000  0.4653310000000  0.5818670000000 1.0
C      1  0.4734000000000  0.4874880000000  0.3867800000000 1.0
C      1  0.3997330000000  0.5428820000000  0.5161450000000 1.0
C      1  0.4594480000000  0.3983470000000  0.5603610000000 1.0
C      1  0.5719060000000  0.4696870000000  0.5415660000000 1.0
C      1  0.6176080000000  0.4413080000000  0.5409400000000 1.0
C      1  0.4910970000000  0.5192770000000  0.5577320000000 1.0
C      1  0.5744280000000  0.4960970000000  0.5286930000000 1.0
C      1  0.6448160000000  0.5705410000000  0.5658660000000 1.0
C      1  0.4118760000000  0.5585000000000  0.4634010000000 1.0
C      1  0.4755970000000  0.4454950000000  0.4178400000000 1.0
C      1  0.6255550000000  0.5211070000000  0.4600940000000 1.0
C      1  0.5346090000000  0.4362850000000  0.5394420000000 1.0
C      1  0.4156610000000  0.5362880000000  0.4437410000000 1.0
C      1  0.5462380000000  0.5543410000000  0.4188310000000 1.0
C      1  0.4780260000000  0.4490460000000  0.5365230000000 1.0
C      1  0.5735040000000  0.5163010000000  0.5486520000000 1.0
C      1  0.5567340000000  0.5069680000000  0.4492220000000 1.0
C      1  0.4373370000000  0.5881310000000  0.5026080000000 1.0
C      1  0.4694220000000  0.5789750000000  0.5695420000000 1.0
C      1  0.5248530000000  0.4943750000000  0.5272820000000 1.0
C      1  0.4276640000000  0.5007170000000  0.5232790000000 1.0
C      1  0.3987850000000  0.4791040000000  0.4969760000000 1.0
C      1  0.4462860000000  0.4472880000000  0.4152320000000 1.0
C      1  0.4419790000000  0.5280880000000  0.4804140000000 1.0
C      1  0.4685950000000  0.4044370000000  0.4795910000000 1.0
C      1  0.4793860000000  0.4518860000000  0.4451020000000 1.0
C      1  0.4905100000000  0.6379220000000  0.4059300000000 1.0
C      1  0.4998410000000  0.4728510000000  0.5698690000000 1.0
C      1  0.4501520000000  0.4902380000000  0.5363980000000 1.0
C      1  0.4189270000000  0.4407810000000  0.4704370000000 1.0
C      1  0.5611690000000  0.4163190000000  0.4723060000000 1.0
C      1  0.5049560000000  0.5848360000000  0.5228790000000 1.0
C      1  0.5058530000000  0.5287120000000  0.4137230000000 1.0
C      1  0.4311780000000  0.5803370000000  0.5311540000000 1.0
C      1  0.5169120000000  0.3877960000000  0.4742810000000 1.0
C      1  0.4948300000000  0.4273030000000  0.5804360000000 1.0
C      1  0.4539080000000  0.5791290000000  0.4562090000000 1.0
C      1  0.4537280000000  0.5388450000000  0.5387020000000 1.0
C      1  0.4313470000000  0.5770270000000  0.4749530000000 1.0
C      1  0.5451030000000  0.4608910000000  0.5497020000000 1.0
C      1  0.4544730000000  0.5111100000000  0.4627600000000 1.0
C      1  0.5264020000000  0.5234540000000  0.5243380000000 1.0
C      1  0.5684940000000  0.5968790000000  0.4646330000000 1.0
C      1  0.4368070000000  0.5434320000000  0.4242410000000 1.0
C      1  0.4491740000000  0.5931030000000  0.5528460000000 1.0
C      1  0.5619630000000  0.4962840000000  0.5012780000000 1.0
C      1  0.5179540000000  0.5006380000000  0.4747070000000 1.0
C      1  0.5654070000000  0.4291110000000  0.5791620000000 1.0
C      1  0.5632030000000  0.5250820000000  0.5737360000000 1.0
C      1  0.5436990000000  0.4438630000000  0.5924240000000 1.0
C      1  0.4955230000000  0.4767230000000  0.6186490000000 1.0
C      1  0.5989090000000  0.5573310000000  0.4320350000000 1.0
C      1  0.6224090000000  0.4943500000000  0.4622170000000 1.0
C      1  0.4358530000000  0.4140690000000  0.5640100000000 1.0
C      1  0.5615280000000  0.4803070000000  0.4542980000000 1.0
C      1  0.4427560000000  0.4218830000000  0.5145650000000 1.0
C      1  0.4947230000000  0.5547110000000  0.4738430000000 1.0
C      1  0.4539340000000  0.5257490000000  0.4080740000000 1.0
C      1  0.4856940000000  0.5355350000000  0.4931510000000 1.0
C      1  0.5229520000000  0.4805200000000  0.5528380000000 1.0
C      1  0.4822400000000  0.4770570000000  0.5936480000000 1.0
C      1  0.4903030000000  0.4598070000000  0.4905530000000 1.0
C      1  0.5412530000000  0.4517760000000  0.4978600000000 1.0
C      1  0.5736910000000  0.5999310000000  0.4371960000000 1.0
C      1  0.5903590000000  0.5128320000000  0.4178850000000 1.0
C      1  0.4952920000000  0.3835210000000  0.5202890000000 1.0
C      1  0.6176190000000  0.5442780000000  0.4488830000000 1.0
C      1  0.4382070000000  0.4234320000000  0.4313540000000 1.0
C      1  0.4513580000000  0.4972660000000  0.4020980000000 1.0
C      1  0.4676930000000  0.4206590000000  0.5019920000000 1.0
C      1  0.5465820000000  0.5653650000000  0.5004390000000 1.0
C      1  0.5182300000000  0.5317090000000  0.5938490000000 1.0
C      1  0.5209870000000  0.3845590000000  0.5361490000000 1.0
C      1  0.4144020000000  0.4818650000000  0.4360480000000 1.0
C      1  0.5753640000000  0.4670820000000  0.4088480000000 1.0
C      1  0.5197550000000  0.5611840000000  0.5900190000000 1.0
C      1  0.5818960000000  0.4640420000000  0.4662430000000 1.0
C      1  0.5689290000000  0.5526770000000  0.5805680000000 1.0
C      1  0.3939270000000  0.4820270000000  0.5507410000000 1.0
C      1  0.5168060000000  0.5047180000000  0.4055270000000 1.0
C      1  0.5222000000000  0.4778910000000  0.6222830000000 1.0
C      1  0.5386130000000  0.3916410000000  0.5588050000000 1.0
C      1  0.4102900000000  0.4855340000000  0.5736410000000 1.0
C      1  0.4533150000000  0.5687270000000  0.4292290000000 1.0
C      1  0.4231610000000  0.5497290000000  0.5366290000000 1.0
C      1  0.4351390000000  0.4763650000000  0.4153530000000 1.0
C      1  0.4793350000000  0.5680750000000  0.4135040000000 1.0
C      1  0.4131100000000  0.5359900000000  0.5639580000000 1.0
C      1  0.5318740000000  0.5840460000000  0.5157690000000 1.0
C      1  0.4780640000000  0.4048720000000  0.5805530000000 1.0
C      1  0.4661730000000  0.5112200000000  0.5453570000000 1.0
C      1  0.5949180000000  0.4539330000000  0.5432220000000 1.0
C      1  0.5394650000000  0.4787140000000  0.5067150000000 1.0
C      1  0.4608980000000  0.6051700000000  0.5037370000000 1.0
C      1  0.4453720000000  0.5084680000000  0.5946990000000 1.0
C      1  0.4152170000000  0.4547370000000  0.4953990000000 1.0
C      1  0.5085350000000  0.5365970000000  0.5418190000000 1.0
C      1  0.5222720000000  0.4351790000000  0.5136940000000 1.0
C      1  0.4288250000000  0.4378900000000  0.5750440000000 1.0
C      1  0.6203050000000  0.5677680000000  0.5743060000000 1.0
C      1  0.6048390000000  0.4750200000000  0.4508890000000 1.0
C      1  0.3897310000000  0.5274280000000  0.4956390000000 1.0
C      1  0.5341420000000  0.5808000000000  0.4122020000000 1.0
C      1  0.4736840000000  0.5174440000000  0.4451610000000 1.0
C      1  0.4956150000000  0.5596930000000  0.5310210000000 1.0
C      1  0.4929000000000  0.4343460000000  0.4002450000000 1.0
C      1  0.4792920000000  0.5772530000000  0.4680380000000 1.0
C      1  0.5001960000000  0.4885600000000  0.3897040000000 1.0
END
