TITL C-247197-3123-336 0.00886802294152263 125000 -338.025000664017 0 0 56 (C1) n - 1
REM
REM in /home/nfs/bkarasulu/CARBON/AIRSS/Generating-Clusters/LCBOP/Only-C1/SD-CG/FIRE-HFTN
REM
REM
REM
REM
REM
REM ./C.cell (11c1c37f851c82e70ff6c80c92926a4b)
REM AIRSS Version 0.9.1 bugfix July 2018 build 013d7b7c2542+ Fri, 06 Jul 2018 19:26:36 +0100
REM compiler GCC version 9.2.1 20190827 (Red Hat 9.2.1-1)
REM options -cpp -mtune=generic -march=x86-64 -g -O0 -fpre-include=/usr/include/finclude/math-vector-fortran.h
REM seed -985304809 660770884 -502179608 -938427613 46505773 -400206343 -722679914 -1037260286 -1501550629 -383248421 -105271537 -1453721680 781307554 1811084577 -1788659444 116687413 1761305198 -857311390 1354580273 -1027320839 1229157507 -1040299892 -1023164571 -1032568706 1178372074 1290580604 -274633148 -2060811170 1679865790 -1837489636 -63330217 -72336623 2056692238
REM
CELL 1.54180   50.00000   50.00000   50.00000   90.00000   90.00000   90.00000
LATT -1
SFAC C  
C      1  0.4720650000000  0.4347390000000  0.5216380000000 1.0
C      1  0.5011860000000  0.4563200000000  0.5592000000000 1.0
C      1  0.5485970000000  0.4658350000000  0.5405090000000 1.0
C      1  0.5463210000000  0.5258170000000  0.4621990000000 1.0
C      1  0.5038490000000  0.5763070000000  0.5330290000000 1.0
C      1  0.5220470000000  0.4918840000000  0.4874660000000 1.0
C      1  0.5720290000000  0.4754260000000  0.4839270000000 1.0
C      1  0.4280090000000  0.5304080000000  0.5156940000000 1.0
C      1  0.4448240000000  0.4343950000000  0.5130700000000 1.0
C      1  0.5702470000000  0.5134030000000  0.4530480000000 1.0
C      1  0.5465440000000  0.5143850000000  0.5408330000000 1.0
C      1  0.4340510000000  0.4391930000000  0.4270110000000 1.0
C      1  0.4452360000000  0.5476470000000  0.5032070000000 1.0
C      1  0.5104430000000  0.4914430000000  0.5112620000000 1.0
C      1  0.5257030000000  0.5065760000000  0.4643720000000 1.0
C      1  0.5133600000000  0.4992030000000  0.4396350000000 1.0
C      1  0.5246470000000  0.4737800000000  0.4320700000000 1.0
C      1  0.5531720000000  0.4717200000000  0.4371750000000 1.0
C      1  0.4867690000000  0.5040400000000  0.5185120000000 1.0
C      1  0.5825300000000  0.5213000000000  0.5030590000000 1.0
C      1  0.4338580000000  0.4788340000000  0.5298020000000 1.0
C      1  0.4998010000000  0.4784030000000  0.5777100000000 1.0
C      1  0.4276170000000  0.4194070000000  0.4113030000000 1.0
C      1  0.5190830000000  0.5532790000000  0.4921940000000 1.0
C      1  0.4928810000000  0.4265670000000  0.5046390000000 1.0
C      1  0.5323210000000  0.5367460000000  0.5366270000000 1.0
C      1  0.4695830000000  0.6113120000000  0.5531650000000 1.0
C      1  0.4516860000000  0.6283000000000  0.5628410000000 1.0
C      1  0.4766640000000  0.4526850000000  0.5436430000000 1.0
C      1  0.4412030000000  0.4589980000000  0.4431070000000 1.0
C      1  0.5182180000000  0.5556920000000  0.5209730000000 1.0
C      1  0.5122570000000  0.4298260000000  0.4845100000000 1.0
C      1  0.5046640000000  0.4343570000000  0.4576910000000 1.0
C      1  0.4608650000000  0.4937440000000  0.4778090000000 1.0
C      1  0.4239270000000  0.5049260000000  0.5240820000000 1.0
C      1  0.5613310000000  0.4496370000000  0.4889310000000 1.0
C      1  0.5454700000000  0.5460900000000  0.4819010000000 1.0
C      1  0.4591330000000  0.4766010000000  0.5433130000000 1.0
C      1  0.4895670000000  0.5020740000000  0.5685250000000 1.0
C      1  0.4934930000000  0.5499530000000  0.4772900000000 1.0
C      1  0.4269290000000  0.4546490000000  0.5166650000000 1.0
C      1  0.5395580000000  0.4340860000000  0.4904280000000 1.0
C      1  0.4719420000000  0.5118390000000  0.4958870000000 1.0
C      1  0.4872930000000  0.5941980000000  0.5433850000000 1.0
C      1  0.5693330000000  0.5446240000000  0.4976240000000 1.0
C      1  0.4754070000000  0.5002320000000  0.5440290000000 1.0
C      1  0.4932060000000  0.5433170000000  0.4492060000000 1.0
C      1  0.4969280000000  0.5215300000000  0.4329120000000 1.0
C      1  0.5094850000000  0.4504960000000  0.4367940000000 1.0
C      1  0.5272570000000  0.4518500000000  0.5491610000000 1.0
C      1  0.5582540000000  0.4904340000000  0.5305700000000 1.0
C      1  0.5740320000000  0.4941150000000  0.5064440000000 1.0
C      1  0.4702100000000  0.5401000000000  0.4915600000000 1.0
C      1  0.4340790000000  0.6450070000000  0.5723570000000 1.0
C      1  0.5705140000000  0.4848560000000  0.4561790000000 1.0
C      1  0.4503210000000  0.4774160000000  0.4598270000000 1.0
END
