TITL C-247202-1916-576 8.59086223753532e-08 125000 -601.006897833905 0 0 98 (C1) n - 1
REM
REM in /home/nfs/bkarasulu/CARBON/AIRSS/Generating-Clusters/LCBOP/Only-C1/SD-CG/FIRE-HFTN
REM
REM
REM
REM
REM
REM ./C.cell (11c1c37f851c82e70ff6c80c92926a4b)
REM AIRSS Version 0.9.1 bugfix July 2018 build 013d7b7c2542+ Fri, 06 Jul 2018 19:26:36 +0100
REM compiler GCC version 9.2.1 20190827 (Red Hat 9.2.1-1)
REM options -cpp -mtune=generic -march=x86-64 -g -O0 -fpre-include=/usr/include/finclude/math-vector-fortran.h
REM seed -1965500968 -1155280573 177453102 -1558576939 1269106644 -1043097999 1591813467 -1177501938 1094314157 -1886380248 -923782113 2083484940 -1378321201 677893148 838802832 -771507542 411641363 -1709738983 -428022716 1497351260 245021096 -806266135 -177769494 -2136978760 -816524996 1812827916 -650786605 -1218986779 -1455192461 -269398582 901254200 -1216676483 -1352083921
REM
CELL 1.54180   50.00000   50.00000   50.00000   90.00000   90.00000   90.00000
LATT -1
SFAC C  
C      1  0.5531020000000  0.4987160000000  0.4226360000000 1.0
C      1  0.4824700000000  0.4321200000000  0.5546400000000 1.0
C      1  0.4283370000000  0.5539120000000  0.5618120000000 1.0
C      1  0.4892830000000  0.5039740000000  0.5355440000000 1.0
C      1  0.5081710000000  0.4779570000000  0.4572630000000 1.0
C      1  0.4434210000000  0.5375360000000  0.4398300000000 1.0
C      1  0.4781760000000  0.4985230000000  0.5607100000000 1.0
C      1  0.3973760000000  0.5314810000000  0.4245100000000 1.0
C      1  0.4847180000000  0.4626290000000  0.4635300000000 1.0
C      1  0.5225790000000  0.3906810000000  0.5136040000000 1.0
C      1  0.5561680000000  0.4555050000000  0.4638060000000 1.0
C      1  0.5301930000000  0.5836980000000  0.5479050000000 1.0
C      1  0.4204850000000  0.5205440000000  0.4345540000000 1.0
C      1  0.5289160000000  0.4491540000000  0.5460260000000 1.0
C      1  0.5811630000000  0.5027070000000  0.5202950000000 1.0
C      1  0.5767750000000  0.4746770000000  0.5079160000000 1.0
C      1  0.5050960000000  0.5059940000000  0.4619920000000 1.0
C      1  0.5302940000000  0.4618750000000  0.4492690000000 1.0
C      1  0.5552150000000  0.5580660000000  0.5081630000000 1.0
C      1  0.4478550000000  0.4054510000000  0.4950560000000 1.0
C      1  0.5521390000000  0.5520070000000  0.4375120000000 1.0
C      1  0.5870250000000  0.5421140000000  0.4782030000000 1.0
C      1  0.5394710000000  0.5256840000000  0.5443690000000 1.0
C      1  0.4429370000000  0.5682830000000  0.5788960000000 1.0
C      1  0.6137740000000  0.5429520000000  0.4726840000000 1.0
C      1  0.4704640000000  0.4479800000000  0.5753620000000 1.0
C      1  0.4124200000000  0.4956850000000  0.4872590000000 1.0
C      1  0.5025780000000  0.5922000000000  0.5498600000000 1.0
C      1  0.4906890000000  0.5838410000000  0.5244580000000 1.0
C      1  0.5643690000000  0.4785760000000  0.5637980000000 1.0
C      1  0.4992220000000  0.5388850000000  0.5016330000000 1.0
C      1  0.5949420000000  0.5059450000000  0.4427350000000 1.0
C      1  0.5341370000000  0.4989320000000  0.4036540000000 1.0
C      1  0.4701880000000  0.4016650000000  0.5145740000000 1.0
C      1  0.4965210000000  0.4896510000000  0.5816360000000 1.0
C      1  0.5285780000000  0.5250270000000  0.5692370000000 1.0
C      1  0.4464760000000  0.4617580000000  0.5699100000000 1.0
C      1  0.5143710000000  0.5218740000000  0.4833520000000 1.0
C      1  0.4703580000000  0.4279570000000  0.5289170000000 1.0
C      1  0.5086760000000  0.4511950000000  0.5018550000000 1.0
C      1  0.5392540000000  0.5126790000000  0.4931570000000 1.0
C      1  0.4313830000000  0.5127500000000  0.4991560000000 1.0
C      1  0.4627120000000  0.5240360000000  0.4557770000000 1.0
C      1  0.4832800000000  0.4561020000000  0.4909040000000 1.0
C      1  0.5799300000000  0.4982390000000  0.5492060000000 1.0
C      1  0.4276010000000  0.5195750000000  0.5265960000000 1.0
C      1  0.5656650000000  0.4747540000000  0.4818070000000 1.0
C      1  0.4952840000000  0.3880760000000  0.5140850000000 1.0
C      1  0.5268510000000  0.5484810000000  0.4281360000000 1.0
C      1  0.4641420000000  0.5839580000000  0.5829620000000 1.0
C      1  0.4888970000000  0.4637720000000  0.5911220000000 1.0
C      1  0.4406380000000  0.4338850000000  0.4907430000000 1.0
C      1  0.5683270000000  0.4334640000000  0.4495600000000 1.0
C      1  0.4080730000000  0.4781860000000  0.5497910000000 1.0
C      1  0.4618720000000  0.4464610000000  0.5068160000000 1.0
C      1  0.4668510000000  0.5924640000000  0.5132510000000 1.0
C      1  0.4328220000000  0.4748770000000  0.4201260000000 1.0
C      1  0.4239760000000  0.5673040000000  0.5161300000000 1.0
C      1  0.4512020000000  0.4897160000000  0.5607480000000 1.0
C      1  0.5132470000000  0.4912520000000  0.5275890000000 1.0
C      1  0.4864920000000  0.5941770000000  0.5724760000000 1.0
C      1  0.4172320000000  0.4780060000000  0.4658010000000 1.0
C      1  0.4887290000000  0.5207600000000  0.4446090000000 1.0
C      1  0.4534670000000  0.5646600000000  0.4382350000000 1.0
C      1  0.5229800000000  0.5009060000000  0.5833130000000 1.0
C      1  0.5346170000000  0.5663700000000  0.5253790000000 1.0
C      1  0.5675680000000  0.5044720000000  0.4462300000000 1.0
C      1  0.4816190000000  0.5247690000000  0.5187160000000 1.0
C      1  0.4533220000000  0.5187530000000  0.4820890000000 1.0
C      1  0.5165760000000  0.4640860000000  0.5251570000000 1.0
C      1  0.5648550000000  0.4236790000000  0.5136350000000 1.0
C      1  0.5348510000000  0.5089410000000  0.5218610000000 1.0
C      1  0.5710620000000  0.4502640000000  0.5238740000000 1.0
C      1  0.4756000000000  0.5778280000000  0.4478200000000 1.0
C      1  0.5107590000000  0.5125080000000  0.4022320000000 1.0
C      1  0.5489070000000  0.5689640000000  0.4811270000000 1.0
C      1  0.5243430000000  0.4308720000000  0.4912010000000 1.0
C      1  0.4278480000000  0.4990270000000  0.5458160000000 1.0
C      1  0.5573860000000  0.5008350000000  0.4735050000000 1.0
C      1  0.4997660000000  0.5823730000000  0.4596240000000 1.0
C      1  0.4243050000000  0.5464620000000  0.5349810000000 1.0
C      1  0.5659520000000  0.5555490000000  0.4620640000000 1.0
C      1  0.4414100000000  0.5860830000000  0.5085170000000 1.0
C      1  0.5110620000000  0.4303330000000  0.5569940000000 1.0
C      1  0.5466500000000  0.4850810000000  0.5851520000000 1.0
C      1  0.4703760000000  0.4521990000000  0.4420350000000 1.0
C      1  0.4214730000000  0.4914880000000  0.4399870000000 1.0
C      1  0.5765030000000  0.5351590000000  0.5055740000000 1.0
C      1  0.5303410000000  0.4430030000000  0.4268150000000 1.0
C      1  0.4249720000000  0.4511810000000  0.4740950000000 1.0
C      1  0.5076940000000  0.5633890000000  0.5132200000000 1.0
C      1  0.4189480000000  0.4567550000000  0.5635440000000 1.0
C      1  0.5566980000000  0.4556360000000  0.5483910000000 1.0
C      1  0.5527360000000  0.4266070000000  0.4277080000000 1.0
C      1  0.5044140000000  0.5312220000000  0.4226730000000 1.0
C      1  0.4530680000000  0.4574330000000  0.4223970000000 1.0
C      1  0.5398840000000  0.4119390000000  0.5051900000000 1.0
C      1  0.5244010000000  0.5807910000000  0.4713370000000 1.0
END
