TITL C-247199-3331-13 1645.34229237715 125000 -1106.8345679506 0 0 180 (C1) n - 1
REM
REM in /home/nfs/bkarasulu/CARBON/AIRSS/Generating-Clusters/LCBOP/Only-C1/SD-CG/FIRE-HFTN
REM
REM
REM
REM
REM
REM ./C.cell (11c1c37f851c82e70ff6c80c92926a4b)
REM AIRSS Version 0.9.1 bugfix July 2018 build 013d7b7c2542+ Fri, 06 Jul 2018 19:26:36 +0100
REM compiler GCC version 9.2.1 20190827 (Red Hat 9.2.1-1)
REM options -cpp -mtune=generic -march=x86-64 -g -O0 -fpre-include=/usr/include/finclude/math-vector-fortran.h
REM seed 1438773564 1988036551 -1680618422 1416642079 -1178641726 -1673743290 -600177411 -1915670 668196602 -2034517113 -1084624804 -1808807388 -2035693676 979372851 -231793416 61430783 -1318086294 1485915295 1898691088 1926439276 -997694396 851430909 316735782 1031678862 1522647038 -501327310 2128033544 291627974 -509477804 954211733 -115154700 -980490109 -309448329
REM
CELL 1.54180   50.00000   50.00000   50.00000   90.00000   90.00000   90.00000
LATT -1
SFAC C  
C      1  0.5903440000000  0.5635310000000  0.5524160000000 1.0
C      1  0.4369350000000  0.5186410000000  0.5976940000000 1.0
C      1  0.4470850000000  0.4057550000000  0.4505570000000 1.0
C      1  0.4808800000000  0.6050950000000  0.5098210000000 1.0
C      1  0.5215800000000  0.4633040000000  0.4737560000000 1.0
C      1  0.5973400000000  0.4604930000000  0.5329410000000 1.0
C      1  0.4308200000000  0.5814280000000  0.5016370000000 1.0
C      1  0.4944610000000  0.4111390000000  0.4481970000000 1.0
C      1  0.4286360000000  0.3962040000000  0.4959870000000 1.0
C      1  0.4719370000000  0.4468270000000  0.5995880000000 1.0
C      1  0.4339430000000  0.5081440000000  0.4176430000000 1.0
C      1  0.3755230000000  0.5498270000000  0.4553710000000 1.0
C      1  0.5829180000000  0.5516160000000  0.4384190000000 1.0
C      1  0.5452360000000  0.4814500000000  0.4722630000000 1.0
C      1  0.5443950000000  0.4111400000000  0.4490990000000 1.0
C      1  0.5104260000000  0.6224680000000  0.5044070000000 1.0
C      1  0.5833140000000  0.5160790000000  0.5419350000000 1.0
C      1  0.5362570000000  0.5209930000000  0.5576780000000 1.0
C      1  0.4474180000000  0.4383450000000  0.4063670000000 1.0
C      1  0.5314950000000  0.5298930000000  0.4736970000000 1.0
C      1  0.4404560000000  0.5385980000000  0.5552920000000 1.0
C      1  0.6022370000000  0.4452350000000  0.5092110000000 1.0
C      1  0.5388930000000  0.3827060000000  0.4907940000000 1.0
C      1  0.3702120000000  0.5813380000000  0.5222200000000 1.0
C      1  0.4813770000000  0.5487940000000  0.5337100000000 1.0
C      1  0.5535680000000  0.5403610000000  0.5998420000000 1.0
C      1  0.4693020000000  0.5997180000000  0.5584620000000 1.0
C      1  0.5424360000000  0.5045110000000  0.5158350000000 1.0
C      1  0.5349810000000  0.5874630000000  0.4903050000000 1.0
C      1  0.4248300000000  0.4546500000000  0.4489790000000 1.0
C      1  0.5944600000000  0.5019570000000  0.4393560000000 1.0
C      1  0.4939280000000  0.4086000000000  0.5685610000000 1.0
C      1  0.4649640000000  0.4849310000000  0.3692140000000 1.0
C      1  0.4705790000000  0.4828540000000  0.3966840000000 1.0
C      1  0.5245230000000  0.3905520000000  0.5140060000000 1.0
C      1  0.5801100000000  0.5738060000000  0.5751200000000 1.0
C      1  0.5042650000000  0.5466090000000  0.4795830000000 1.0
C      1  0.4084620000000  0.4555260000000  0.5343220000000 1.0
C      1  0.4827190000000  0.5291740000000  0.6190170000000 1.0
C      1  0.5286250000000  0.4115740000000  0.5737490000000 1.0
C      1  0.5031830000000  0.5020740000000  0.5863540000000 1.0
C      1  0.4996220000000  0.4075750000000  0.4753040000000 1.0
C      1  0.4674130000000  0.4798890000000  0.6113320000000 1.0
C      1  0.4692900000000  0.4246060000000  0.4490150000000 1.0
C      1  0.5080690000000  0.4571390000000  0.5708350000000 1.0
C      1  0.5024060000000  0.4072930000000  0.4214730000000 1.0
C      1  0.5561380000000  0.5203240000000  0.5789480000000 1.0
C      1  0.5544090000000  0.3992020000000  0.4734640000000 1.0
C      1  0.6121130000000  0.4791380000000  0.4445240000000 1.0
C      1  0.4689740000000  0.6082480000000  0.4830080000000 1.0
C      1  0.4184690000000  0.5283530000000  0.4119880000000 1.0
C      1  0.4879290000000  0.5251890000000  0.5188770000000 1.0
C      1  0.5610770000000  0.5494570000000  0.5152420000000 1.0
C      1  0.5234170000000  0.4801020000000  0.5795210000000 1.0
C      1  0.5495150000000  0.4350820000000  0.5759840000000 1.0
C      1  0.4668850000000  0.3705310000000  0.4153810000000 1.0
C      1  0.4877710000000  0.5569110000000  0.4537690000000 1.0
C      1  0.5499070000000  0.4580110000000  0.5234530000000 1.0
C      1  0.4841090000000  0.4549540000000  0.5280880000000 1.0
C      1  0.4298580000000  0.4412220000000  0.4745770000000 1.0
C      1  0.4545400000000  0.4809790000000  0.5549860000000 1.0
C      1  0.5388730000000  0.4596840000000  0.4287070000000 1.0
C      1  0.4963070000000  0.5017170000000  0.5315390000000 1.0
C      1  0.4325140000000  0.6026800000000  0.5212510000000 1.0
C      1  0.5572320000000  0.5685770000000  0.5908280000000 1.0
C      1  0.4630780000000  0.5973620000000  0.4594360000000 1.0
C      1  0.5689410000000  0.5476630000000  0.4123570000000 1.0
C      1  0.5072350000000  0.5465410000000  0.6188160000000 1.0
C      1  0.5070710000000  0.4485890000000  0.5437210000000 1.0
C      1  0.4639700000000  0.4267600000000  0.5798880000000 1.0
C      1  0.4388870000000  0.3905060000000  0.5202090000000 1.0
C      1  0.4374210000000  0.4591210000000  0.4233370000000 1.0
C      1  0.3431490000000  0.5614600000000  0.4848250000000 1.0
C      1  0.6024500000000  0.4553650000000  0.4576450000000 1.0
C      1  0.5238240000000  0.6267780000000  0.4541380000000 1.0
C      1  0.4927020000000  0.5775010000000  0.5223850000000 1.0
C      1  0.4992330000000  0.4317830000000  0.4063360000000 1.0
C      1  0.4006760000000  0.4798860000000  0.5478300000000 1.0
C      1  0.5968770000000  0.4609000000000  0.4854270000000 1.0
C      1  0.5131960000000  0.6335820000000  0.4781850000000 1.0
C      1  0.5795840000000  0.4107280000000  0.5382820000000 1.0
C      1  0.4448500000000  0.4208740000000  0.5587040000000 1.0
C      1  0.4721950000000  0.4496150000000  0.4628480000000 1.0
C      1  0.4295320000000  0.5436280000000  0.5302190000000 1.0
C      1  0.5459130000000  0.4891930000000  0.4418890000000 1.0
C      1  0.4722570000000  0.4335170000000  0.3963340000000 1.0
C      1  0.5772820000000  0.4769420000000  0.5746600000000 1.0
C      1  0.5828140000000  0.4350980000000  0.4527850000000 1.0
C      1  0.5655270000000  0.5201450000000  0.4061310000000 1.0
C      1  0.4682270000000  0.5375900000000  0.5570380000000 1.0
C      1  0.5439800000000  0.3880490000000  0.5650970000000 1.0
C      1  0.4541300000000  0.3984770000000  0.5426620000000 1.0
C      1  0.5778730000000  0.4133810000000  0.4818640000000 1.0
C      1  0.5436830000000  0.5775700000000  0.3814650000000 1.0
C      1  0.5270130000000  0.5473520000000  0.5530220000000 1.0
C      1  0.6287130000000  0.5335290000000  0.4524030000000 1.0
C      1  0.4880810000000  0.5001500000000  0.6117840000000 1.0
C      1  0.3483150000000  0.5529110000000  0.4591270000000 1.0
C      1  0.5142450000000  0.5258170000000  0.4242030000000 1.0
C      1  0.5559470000000  0.4362870000000  0.4395790000000 1.0
C      1  0.5693500000000  0.5000800000000  0.5233470000000 1.0
C      1  0.4515310000000  0.4908860000000  0.3167770000000 1.0
C      1  0.4760470000000  0.4811150000000  0.5363180000000 1.0
C      1  0.4481040000000  0.4843560000000  0.4148150000000 1.0
C      1  0.4587480000000  0.6088610000000  0.5317860000000 1.0
C      1  0.5698110000000  0.4992810000000  0.4255840000000 1.0
C      1  0.4966730000000  0.5919760000000  0.5534420000000 1.0
C      1  0.5133510000000  0.4570500000000  0.4121080000000 1.0
C      1  0.5104250000000  0.5065680000000  0.4045330000000 1.0
C      1  0.5102430000000  0.5654370000000  0.5963900000000 1.0
C      1  0.5156130000000  0.5666510000000  0.5037980000000 1.0
C      1  0.5340390000000  0.6077780000000  0.5121050000000 1.0
C      1  0.4436080000000  0.5567340000000  0.5099280000000 1.0
C      1  0.4239190000000  0.5231650000000  0.5713250000000 1.0
C      1  0.5532300000000  0.5890610000000  0.4291560000000 1.0
C      1  0.5395210000000  0.5949580000000  0.5374480000000 1.0
C      1  0.4366930000000  0.4771530000000  0.5774210000000 1.0
C      1  0.4622330000000  0.4743170000000  0.2977860000000 1.0
C      1  0.4538730000000  0.5666040000000  0.5988660000000 1.0
C      1  0.4241300000000  0.4359980000000  0.5457930000000 1.0
C      1  0.5071430000000  0.5495060000000  0.5729640000000 1.0
C      1  0.5880530000000  0.4192970000000  0.5094340000000 1.0
C      1  0.3678150000000  0.5655090000000  0.4996140000000 1.0
C      1  0.4600720000000  0.3472230000000  0.4029180000000 1.0
C      1  0.4568780000000  0.5870990000000  0.5810290000000 1.0
C      1  0.5555310000000  0.5738440000000  0.4749600000000 1.0
C      1  0.4295160000000  0.4119210000000  0.4726060000000 1.0
C      1  0.4996000000000  0.4463530000000  0.5956510000000 1.0
C      1  0.4561060000000  0.5392170000000  0.6084840000000 1.0
C      1  0.4733270000000  0.4382670000000  0.5073960000000 1.0
C      1  0.4964780000000  0.4627680000000  0.4649150000000 1.0
C      1  0.4339800000000  0.5107040000000  0.3097740000000 1.0
C      1  0.5318880000000  0.5832350000000  0.5872840000000 1.0
C      1  0.4612340000000  0.5697390000000  0.4538220000000 1.0
C      1  0.5544340000000  0.5718220000000  0.4057620000000 1.0
C      1  0.4341180000000  0.5588060000000  0.4586630000000 1.0
C      1  0.5308610000000  0.5176260000000  0.4452280000000 1.0
C      1  0.6465550000000  0.5129630000000  0.4519140000000 1.0
C      1  0.5919840000000  0.4551360000000  0.5605620000000 1.0
C      1  0.3912720000000  0.5557450000000  0.4813650000000 1.0
C      1  0.6393720000000  0.4871500000000  0.4469880000000 1.0
C      1  0.4491880000000  0.3834340000000  0.4335470000000 1.0
C      1  0.5714600000000  0.4737350000000  0.4829420000000 1.0
C      1  0.4327990000000  0.5327160000000  0.4734750000000 1.0
C      1  0.4821380000000  0.5298420000000  0.4924220000000 1.0
C      1  0.3840640000000  0.6004490000000  0.5345860000000 1.0
C      1  0.5239900000000  0.5957770000000  0.5614380000000 1.0
C      1  0.4158370000000  0.5752350000000  0.4769220000000 1.0
C      1  0.4551080000000  0.5370800000000  0.4909240000000 1.0
C      1  0.5358180000000  0.5046260000000  0.4890750000000 1.0
C      1  0.5729020000000  0.4732170000000  0.5255450000000 1.0
C      1  0.5352530000000  0.4141750000000  0.5246330000000 1.0
C      1  0.5762320000000  0.4304740000000  0.5612010000000 1.0
C      1  0.4829580000000  0.3950810000000  0.5450670000000 1.0
C      1  0.4963040000000  0.3937780000000  0.5201010000000 1.0
C      1  0.4045850000000  0.5075530000000  0.5435490000000 1.0
C      1  0.5345320000000  0.5364490000000  0.6214460000000 1.0
C      1  0.5502350000000  0.4664320000000  0.5819660000000 1.0
C      1  0.5788900000000  0.5055280000000  0.5693680000000 1.0
C      1  0.6013430000000  0.5303100000000  0.4455000000000 1.0
C      1  0.4981210000000  0.5479460000000  0.4292130000000 1.0
C      1  0.4586120000000  0.4875330000000  0.3436480000000 1.0
C      1  0.4556090000000  0.4488880000000  0.4866620000000 1.0
C      1  0.4071970000000  0.5297950000000  0.4905840000000 1.0
C      1  0.4438710000000  0.4907640000000  0.6008640000000 1.0
C      1  0.5657480000000  0.3871160000000  0.5481290000000 1.0
C      1  0.5364130000000  0.5609930000000  0.5287880000000 1.0
C      1  0.5681920000000  0.5749030000000  0.4499640000000 1.0
C      1  0.4983180000000  0.4812230000000  0.4042580000000 1.0
C      1  0.4871100000000  0.4128960000000  0.5003650000000 1.0
C      1  0.4086990000000  0.6107690000000  0.5334590000000 1.0
C      1  0.5552750000000  0.5474540000000  0.4864660000000 1.0
C      1  0.5245440000000  0.5037580000000  0.5375800000000 1.0
C      1  0.4090470000000  0.4735750000000  0.5744270000000 1.0
C      1  0.5372520000000  0.6111210000000  0.4366740000000 1.0
C      1  0.4096440000000  0.5246200000000  0.5202520000000 1.0
C      1  0.4899820000000  0.5266550000000  0.5731230000000 1.0
C      1  0.5823940000000  0.5436420000000  0.5340830000000 1.0
C      1  0.5301290000000  0.4405110000000  0.5301440000000 1.0
C      1  0.4920870000000  0.3830750000000  0.4107390000000 1.0
END
