TITL C-247197-3123-159 966.521351959822 125000 -330.511362430383 0 0 56 (C1) n - 1
REM
REM in /home/nfs/bkarasulu/CARBON/AIRSS/Generating-Clusters/LCBOP/Only-C1/SD-CG/FIRE-HFTN
REM
REM
REM
REM
REM
REM ./C.cell (11c1c37f851c82e70ff6c80c92926a4b)
REM AIRSS Version 0.9.1 bugfix July 2018 build 013d7b7c2542+ Fri, 06 Jul 2018 19:26:36 +0100
REM compiler GCC version 9.2.1 20190827 (Red Hat 9.2.1-1)
REM options -cpp -mtune=generic -march=x86-64 -g -O0 -fpre-include=/usr/include/finclude/math-vector-fortran.h
REM seed 1985023315 -1765137185 -390123514 57448153 358475499 -1638704818 859292908 -1923818455 -682185111 869986369 -1692483260 -883607872 -1269907472 301521469 -2074474375 1889357731 -591897900 299073146 -671988439 593812064 1234362276 -862278943 -723786017 1590603032 -1215920646 57364626 969381872 -732125993 -949082607 528346764 -184778230 1874040900 -205986955
REM
CELL 1.54180   50.00000   50.00000   50.00000   90.00000   90.00000   90.00000
LATT -1
SFAC C  
C      1  0.5968940000000  0.4870700000000  0.4852020000000 1.0
C      1  0.4812480000000  0.4780450000000  0.5924290000000 1.0
C      1  0.5140490000000  0.5241200000000  0.5660370000000 1.0
C      1  0.4622230000000  0.5568360000000  0.4844910000000 1.0
C      1  0.5372110000000  0.5090720000000  0.5593260000000 1.0
C      1  0.5367230000000  0.5889990000000  0.4260670000000 1.0
C      1  0.5152480000000  0.5484590000000  0.4829550000000 1.0
C      1  0.4955660000000  0.5117150000000  0.5105420000000 1.0
C      1  0.4841510000000  0.4557800000000  0.4597700000000 1.0
C      1  0.5719400000000  0.5218060000000  0.4692880000000 1.0
C      1  0.4950070000000  0.5598550000000  0.5208590000000 1.0
C      1  0.5238950000000  0.4837110000000  0.4515430000000 1.0
C      1  0.5830100000000  0.5108850000000  0.4942750000000 1.0
C      1  0.4880360000000  0.5495970000000  0.4675090000000 1.0
C      1  0.5129270000000  0.4215060000000  0.5461350000000 1.0
C      1  0.4543820000000  0.4483700000000  0.5588490000000 1.0
C      1  0.5462570000000  0.4931390000000  0.4371900000000 1.0
C      1  0.5358940000000  0.5589600000000  0.4661470000000 1.0
C      1  0.4650390000000  0.5425120000000  0.5580400000000 1.0
C      1  0.5116210000000  0.4689450000000  0.4976710000000 1.0
C      1  0.4733610000000  0.4456260000000  0.5369580000000 1.0
C      1  0.4528720000000  0.5543710000000  0.5366810000000 1.0
C      1  0.4789360000000  0.5022760000000  0.4432340000000 1.0
C      1  0.4577730000000  0.4474590000000  0.4551880000000 1.0
C      1  0.4936360000000  0.4245660000000  0.5001720000000 1.0
C      1  0.4378000000000  0.5294410000000  0.4484380000000 1.0
C      1  0.5562890000000  0.5175600000000  0.5404260000000 1.0
C      1  0.4294630000000  0.4906680000000  0.4945950000000 1.0
C      1  0.5261810000000  0.4603020000000  0.5791970000000 1.0
C      1  0.5092970000000  0.5378220000000  0.5093420000000 1.0
C      1  0.4840960000000  0.4728210000000  0.5385170000000 1.0
C      1  0.4956280000000  0.4787590000000  0.4454780000000 1.0
C      1  0.4130930000000  0.4289960000000  0.4556250000000 1.0
C      1  0.4959150000000  0.5668490000000  0.4443400000000 1.0
C      1  0.4659070000000  0.4792450000000  0.5697840000000 1.0
C      1  0.4241960000000  0.4671500000000  0.4831670000000 1.0
C      1  0.5730300000000  0.5166430000000  0.5196400000000 1.0
C      1  0.5296200000000  0.4803370000000  0.4794550000000 1.0
C      1  0.4411140000000  0.5368360000000  0.4763480000000 1.0
C      1  0.4461520000000  0.5128020000000  0.4927960000000 1.0
C      1  0.5608800000000  0.5470610000000  0.4664590000000 1.0
C      1  0.5710300000000  0.5005220000000  0.4486470000000 1.0
C      1  0.4839940000000  0.5196900000000  0.4650840000000 1.0
C      1  0.4913170000000  0.4257870000000  0.5283230000000 1.0
C      1  0.5258070000000  0.4359100000000  0.5649420000000 1.0
C      1  0.4887080000000  0.5331690000000  0.5671260000000 1.0
C      1  0.5904900000000  0.4814020000000  0.4587950000000 1.0
C      1  0.5398820000000  0.4829230000000  0.5696350000000 1.0
C      1  0.4671040000000  0.5622260000000  0.5131220000000 1.0
C      1  0.4530880000000  0.5113690000000  0.4338670000000 1.0
C      1  0.5006300000000  0.4849200000000  0.5191840000000 1.0
C      1  0.5240370000000  0.5729910000000  0.4438940000000 1.0
C      1  0.5050130000000  0.4662580000000  0.5970020000000 1.0
C      1  0.4963890000000  0.4480340000000  0.4848270000000 1.0
C      1  0.4312130000000  0.4474010000000  0.4644300000000 1.0
C      1  0.4747360000000  0.5104250000000  0.4909630000000 1.0
END
