TITL C-247198-3593-568 2.64111321835816e-07 125000 -556.357254247501 0 0 92 (C1) n - 1
REM
REM in /home/nfs/bkarasulu/CARBON/AIRSS/Generating-Clusters/LCBOP/Only-C1/SD-CG/FIRE-HFTN
REM
REM
REM
REM
REM
REM ./C.cell (11c1c37f851c82e70ff6c80c92926a4b)
REM AIRSS Version 0.9.1 bugfix July 2018 build 013d7b7c2542+ Fri, 06 Jul 2018 19:26:36 +0100
REM compiler GCC version 9.2.1 20190827 (Red Hat 9.2.1-1)
REM options -cpp -mtune=generic -march=x86-64 -g -O0 -fpre-include=/usr/include/finclude/math-vector-fortran.h
REM seed 1282867937 1929053702 -849214381 818903926 -1490782554 -1925739906 -279906071 267350636 -935079107 1443027065 208743147 -97864040 1521753070 -351691257 -117247941 -1712570664 1031910952 -380792049 1924114346 899522606 592366635 -618301890 2140689870 1209543350 1198567565 -52581406 1965776832 1348185929 -1668462713 1128262250 54507842 -1314276444 2062457235
REM
CELL 1.54180   50.00000   50.00000   50.00000   90.00000   90.00000   90.00000
LATT -1
SFAC C  
C      1  0.5011500000000  0.4734070000000  0.4912470000000 1.0
C      1  0.4758110000000  0.5303710000000  0.4754340000000 1.0
C      1  0.4711730000000  0.5582870000000  0.4712520000000 1.0
C      1  0.4808320000000  0.5224260000000  0.5865320000000 1.0
C      1  0.4388410000000  0.5587940000000  0.5370430000000 1.0
C      1  0.4711120000000  0.5248130000000  0.4244220000000 1.0
C      1  0.4312060000000  0.5014060000000  0.4431370000000 1.0
C      1  0.5766190000000  0.4752290000000  0.5156600000000 1.0
C      1  0.4691050000000  0.4196890000000  0.5034830000000 1.0
C      1  0.4916450000000  0.5109350000000  0.4619200000000 1.0
C      1  0.5375330000000  0.4908490000000  0.4674780000000 1.0
C      1  0.5395740000000  0.5903710000000  0.5216980000000 1.0
C      1  0.5777260000000  0.4340930000000  0.4817870000000 1.0
C      1  0.5636260000000  0.5293850000000  0.4463940000000 1.0
C      1  0.5454760000000  0.4279890000000  0.4404190000000 1.0
C      1  0.4968950000000  0.4262530000000  0.5009720000000 1.0
C      1  0.5328270000000  0.4967680000000  0.5315260000000 1.0
C      1  0.5453630000000  0.5518590000000  0.4421420000000 1.0
C      1  0.4814820000000  0.5009460000000  0.4369370000000 1.0
C      1  0.5385740000000  0.4551940000000  0.4355690000000 1.0
C      1  0.4843270000000  0.5623730000000  0.5622860000000 1.0
C      1  0.5670890000000  0.5233060000000  0.5039490000000 1.0
C      1  0.5657270000000  0.5437490000000  0.5485650000000 1.0
C      1  0.5709860000000  0.5250720000000  0.4747210000000 1.0
C      1  0.4707290000000  0.4555830000000  0.4430540000000 1.0
C      1  0.5382240000000  0.4057840000000  0.4831250000000 1.0
C      1  0.4569510000000  0.5193950000000  0.4923020000000 1.0
C      1  0.4052700000000  0.5062000000000  0.4985490000000 1.0
C      1  0.4087100000000  0.4598820000000  0.5028580000000 1.0
C      1  0.4496190000000  0.5069730000000  0.5165870000000 1.0
C      1  0.5155480000000  0.4792780000000  0.5497800000000 1.0
C      1  0.5291320000000  0.4731840000000  0.4886750000000 1.0
C      1  0.5183840000000  0.5941870000000  0.5375820000000 1.0
C      1  0.4323160000000  0.4498980000000  0.5148160000000 1.0
C      1  0.4944690000000  0.4477620000000  0.4820870000000 1.0
C      1  0.5687250000000  0.4907320000000  0.5906190000000 1.0
C      1  0.5572130000000  0.5725360000000  0.5120810000000 1.0
C      1  0.4764190000000  0.4293560000000  0.5627670000000 1.0
C      1  0.4555610000000  0.5254160000000  0.5720960000000 1.0
C      1  0.4857810000000  0.4745790000000  0.5446970000000 1.0
C      1  0.4294130000000  0.5725210000000  0.4896380000000 1.0
C      1  0.5324510000000  0.4059760000000  0.4277940000000 1.0
C      1  0.5602180000000  0.4985330000000  0.5193140000000 1.0
C      1  0.5055070000000  0.4791520000000  0.5967610000000 1.0
C      1  0.5229760000000  0.3848980000000  0.4423380000000 1.0
C      1  0.4330890000000  0.5504040000000  0.4430830000000 1.0
C      1  0.4698710000000  0.5864120000000  0.5091620000000 1.0
C      1  0.4218970000000  0.5152210000000  0.5196750000000 1.0
C      1  0.5199190000000  0.5145150000000  0.4597860000000 1.0
C      1  0.4380480000000  0.5032310000000  0.5685650000000 1.0
C      1  0.4577310000000  0.5514150000000  0.5572300000000 1.0
C      1  0.4952140000000  0.5426010000000  0.4257090000000 1.0
C      1  0.4482450000000  0.4581330000000  0.4634000000000 1.0
C      1  0.4687490000000  0.4522050000000  0.5501080000000 1.0
C      1  0.4934090000000  0.4954000000000  0.5065260000000 1.0
C      1  0.4726640000000  0.4925980000000  0.5255790000000 1.0
C      1  0.4884970000000  0.4748270000000  0.4292560000000 1.0
C      1  0.5680950000000  0.5174260000000  0.5884350000000 1.0
C      1  0.4841780000000  0.5792980000000  0.4855360000000 1.0
C      1  0.5558370000000  0.5108580000000  0.4239290000000 1.0
C      1  0.5660120000000  0.5471110000000  0.5204320000000 1.0
C      1  0.5199070000000  0.5390900000000  0.4420890000000 1.0
C      1  0.5688470000000  0.4511720000000  0.5030710000000 1.0
C      1  0.5817470000000  0.4753710000000  0.4491290000000 1.0
C      1  0.5544460000000  0.4745840000000  0.4505550000000 1.0
C      1  0.5138730000000  0.5125020000000  0.5162570000000 1.0
C      1  0.4413620000000  0.4576700000000  0.5417650000000 1.0
C      1  0.4286260000000  0.4799400000000  0.4623030000000 1.0
C      1  0.5576360000000  0.4204640000000  0.4662700000000 1.0
C      1  0.5242270000000  0.4731670000000  0.5765100000000 1.0
C      1  0.4887070000000  0.4996610000000  0.6005010000000 1.0
C      1  0.4428020000000  0.5259320000000  0.4323500000000 1.0
C      1  0.4181680000000  0.5396410000000  0.5330830000000 1.0
C      1  0.5257890000000  0.4237180000000  0.5019970000000 1.0
C      1  0.5179100000000  0.4719810000000  0.4218550000000 1.0
C      1  0.5512960000000  0.4715780000000  0.5835790000000 1.0
C      1  0.4099250000000  0.4818930000000  0.4847840000000 1.0
C      1  0.5346640000000  0.4957280000000  0.4135390000000 1.0
C      1  0.4978910000000  0.5843490000000  0.5516670000000 1.0
C      1  0.5128460000000  0.5395010000000  0.5150620000000 1.0
C      1  0.4496750000000  0.4395550000000  0.4941840000000 1.0
C      1  0.5257110000000  0.3842480000000  0.4694970000000 1.0
C      1  0.4306180000000  0.4795120000000  0.5573240000000 1.0
C      1  0.5272630000000  0.5425970000000  0.5794290000000 1.0
C      1  0.5052170000000  0.5933930000000  0.4756530000000 1.0
C      1  0.5541270000000  0.5364460000000  0.5731100000000 1.0
C      1  0.4992340000000  0.5433010000000  0.5784860000000 1.0
C      1  0.5401610000000  0.4499010000000  0.5020380000000 1.0
C      1  0.4428400000000  0.5636410000000  0.4659550000000 1.0
C      1  0.4439190000000  0.5759480000000  0.5145370000000 1.0
C      1  0.5518700000000  0.5778430000000  0.4384480000000 1.0
C      1  0.4889310000000  0.4386270000000  0.4564680000000 1.0
END
