TITL C-247196-3112-439 34265.9183029946 125000 -983.334608018092 0 0 160 (C1) n - 1
REM
REM in /home/nfs/bkarasulu/CARBON/AIRSS/Generating-Clusters/LCBOP/Only-C1/SD-CG/FIRE-HFTN
REM
REM
REM
REM
REM
REM ./C.cell (11c1c37f851c82e70ff6c80c92926a4b)
REM AIRSS Version 0.9.1 bugfix July 2018 build 013d7b7c2542+ Fri, 06 Jul 2018 19:26:36 +0100
REM compiler GCC version 9.2.1 20190827 (Red Hat 9.2.1-1)
REM options -cpp -mtune=generic -march=x86-64 -g -O0 -fpre-include=/usr/include/finclude/math-vector-fortran.h
REM seed 1807139648 -1504132411 221921876 1490546116 471672261 -329398407 -1487092742 1849441649 -1687756838 -1262661712 2112483234 487381698 -1442243974 -1827846253 -1802512150 -1902132617 -178973480 1994261854 984904487 1096504421 583593110 129952950 -1549747081 1357852972 157284953 2122945012 1157419551 1156932689 425321845 1253012266 -439957866 1294990024 -1164772397
REM
CELL 1.54180   50.00000   50.00000   50.00000   90.00000   90.00000   90.00000
LATT -1
SFAC C  
C      1  0.5511950000000  0.5106800000000  0.6128510000000 1.0
C      1  0.4030750000000  0.4693600000000  0.5166930000000 1.0
C      1  0.5339850000000  0.5589250000000  0.6235860000000 1.0
C      1  0.5694590000000  0.4551630000000  0.4729270000000 1.0
C      1  0.4715010000000  0.4511610000000  0.3913850000000 1.0
C      1  0.4494800000000  0.4636560000000  0.5132570000000 1.0
C      1  0.4879630000000  0.4433320000000  0.5436380000000 1.0
C      1  0.5634640000000  0.5208250000000  0.4273380000000 1.0
C      1  0.4108600000000  0.5627620000000  0.5374330000000 1.0
C      1  0.5198940000000  0.4935380000000  0.5421930000000 1.0
C      1  0.5036090000000  0.4871450000000  0.3877510000000 1.0
C      1  0.4222190000000  0.3725670000000  0.6198900000000 1.0
C      1  0.4954730000000  0.3835490000000  0.5201960000000 1.0
C      1  0.5335180000000  0.4077560000000  0.4764620000000 1.0
C      1  0.5134140000000  0.4449580000000  0.4558810000000 1.0
C      1  0.5254900000000  0.5691390000000  0.4074830000000 1.0
C      1  0.5929630000000  0.4514170000000  0.6107520000000 1.0
C      1  0.5104580000000  0.5924930000000  0.5928610000000 1.0
C      1  0.5249940000000  0.4447890000000  0.3981860000000 1.0
C      1  0.5844190000000  0.5386090000000  0.5295990000000 1.0
C      1  0.5092550000000  0.4303380000000  0.5994070000000 1.0
C      1  0.5719320000000  0.5650900000000  0.5297640000000 1.0
C      1  0.4917560000000  0.4632070000000  0.5626170000000 1.0
C      1  0.4713630000000  0.4256130000000  0.4908380000000 1.0
C      1  0.4867560000000  0.5536680000000  0.4745070000000 1.0
C      1  0.5755480000000  0.5840220000000  0.5050620000000 1.0
C      1  0.4596850000000  0.4838890000000  0.5335340000000 1.0
C      1  0.3873940000000  0.4732420000000  0.4909890000000 1.0
C      1  0.5714630000000  0.5420680000000  0.4855970000000 1.0
C      1  0.5214340000000  0.5802090000000  0.6137880000000 1.0
C      1  0.5170230000000  0.4773900000000  0.5658000000000 1.0
C      1  0.5210850000000  0.3959400000000  0.5267310000000 1.0
C      1  0.5161800000000  0.4299440000000  0.4786110000000 1.0
C      1  0.3784880000000  0.5007900000000  0.4841350000000 1.0
C      1  0.5100330000000  0.4886960000000  0.4408720000000 1.0
C      1  0.5300100000000  0.6057010000000  0.5223240000000 1.0
C      1  0.5228600000000  0.5139040000000  0.4907780000000 1.0
C      1  0.4308330000000  0.5834610000000  0.5312520000000 1.0
C      1  0.5294210000000  0.5910960000000  0.5483390000000 1.0
C      1  0.5268040000000  0.4696290000000  0.4523230000000 1.0
C      1  0.3831100000000  0.5487670000000  0.4936920000000 1.0
C      1  0.5628080000000  0.5027160000000  0.4532160000000 1.0
C      1  0.4257460000000  0.4489800000000  0.5245460000000 1.0
C      1  0.4442450000000  0.3967500000000  0.5248260000000 1.0
C      1  0.5719770000000  0.4162500000000  0.4419360000000 1.0
C      1  0.5262570000000  0.5495390000000  0.5257800000000 1.0
C      1  0.5097950000000  0.4579740000000  0.6078900000000 1.0
C      1  0.5512770000000  0.4846290000000  0.6027230000000 1.0
C      1  0.5812000000000  0.4892160000000  0.5344650000000 1.0
C      1  0.4045930000000  0.5295510000000  0.4518310000000 1.0
C      1  0.4529050000000  0.4385620000000  0.4343220000000 1.0
C      1  0.5478140000000  0.5093520000000  0.5057370000000 1.0
C      1  0.4830540000000  0.5250500000000  0.5516600000000 1.0
C      1  0.4539440000000  0.5514310000000  0.5078320000000 1.0
C      1  0.4295970000000  0.5929770000000  0.5039020000000 1.0
C      1  0.4786610000000  0.5777110000000  0.5589270000000 1.0
C      1  0.4499530000000  0.4550700000000  0.4100280000000 1.0
C      1  0.4788900000000  0.4997370000000  0.4898810000000 1.0
C      1  0.5043900000000  0.4938800000000  0.4971400000000 1.0
C      1  0.4637060000000  0.5128800000000  0.5305490000000 1.0
C      1  0.4254010000000  0.5106940000000  0.5038430000000 1.0
C      1  0.5801730000000  0.5180940000000  0.4722640000000 1.0
C      1  0.5553200000000  0.6053050000000  0.5080440000000 1.0
C      1  0.5052290000000  0.5895160000000  0.5652030000000 1.0
C      1  0.3909620000000  0.5592290000000  0.5171450000000 1.0
C      1  0.4583630000000  0.4972520000000  0.4724630000000 1.0
C      1  0.4854430000000  0.6089720000000  0.4936540000000 1.0
C      1  0.5450700000000  0.4091860000000  0.4429910000000 1.0
C      1  0.3901860000000  0.4565780000000  0.4679900000000 1.0
C      1  0.4750850000000  0.4974620000000  0.6191890000000 1.0
C      1  0.4297350000000  0.5718410000000  0.4564800000000 1.0
C      1  0.4052860000000  0.5143940000000  0.5470480000000 1.0
C      1  0.3996190000000  0.4611420000000  0.4428490000000 1.0
C      1  0.5307670000000  0.5577340000000  0.4744810000000 1.0
C      1  0.5021410000000  0.4291490000000  0.4348020000000 1.0
C      1  0.5687730000000  0.4466690000000  0.5008470000000 1.0
C      1  0.5737660000000  0.4683650000000  0.6058950000000 1.0
C      1  0.4917730000000  0.5337480000000  0.4372500000000 1.0
C      1  0.5416240000000  0.5190740000000  0.4051300000000 1.0
C      1  0.5535760000000  0.4761640000000  0.4600250000000 1.0
C      1  0.4754490000000  0.4213740000000  0.4328010000000 1.0
C      1  0.5650140000000  0.4193540000000  0.5107730000000 1.0
C      1  0.5115650000000  0.5159860000000  0.4395250000000 1.0
C      1  0.5825520000000  0.4372820000000  0.4551270000000 1.0
C      1  0.5463450000000  0.5513390000000  0.4967090000000 1.0
C      1  0.5116270000000  0.4774030000000  0.5186690000000 1.0
C      1  0.4316060000000  0.5025770000000  0.4772750000000 1.0
C      1  0.6606180000000  0.5364420000000  0.5334230000000 1.0
C      1  0.5038800000000  0.4121000000000  0.5775700000000 1.0
C      1  0.5757340000000  0.4657410000000  0.5202730000000 1.0
C      1  0.5330720000000  0.5756410000000  0.4538870000000 1.0
C      1  0.5860110000000  0.5671290000000  0.4469140000000 1.0
C      1  0.5125490000000  0.5221330000000  0.5414630000000 1.0
C      1  0.4365570000000  0.4811230000000  0.4128540000000 1.0
C      1  0.4167620000000  0.5037330000000  0.4530010000000 1.0
C      1  0.5013050000000  0.5685910000000  0.5156430000000 1.0
C      1  0.4035260000000  0.3660790000000  0.6368640000000 1.0
C      1  0.5213730000000  0.4045210000000  0.5550790000000 1.0
C      1  0.5016020000000  0.4501490000000  0.5199590000000 1.0
C      1  0.5012200000000  0.5840720000000  0.4095450000000 1.0
C      1  0.5835320000000  0.5687240000000  0.4783730000000 1.0
C      1  0.4092930000000  0.4976120000000  0.5242060000000 1.0
C      1  0.4134720000000  0.5406590000000  0.5564480000000 1.0
C      1  0.5413450000000  0.4035610000000  0.5047670000000 1.0
C      1  0.4973930000000  0.4332320000000  0.4982940000000 1.0
C      1  0.4762060000000  0.5046650000000  0.5733680000000 1.0
C      1  0.5219600000000  0.5413470000000  0.3983770000000 1.0
C      1  0.4548820000000  0.5884760000000  0.5465520000000 1.0
C      1  0.5277770000000  0.4739310000000  0.5915490000000 1.0
C      1  0.4397670000000  0.5900450000000  0.4773530000000 1.0
C      1  0.6032150000000  0.5241270000000  0.4554120000000 1.0
C      1  0.4587880000000  0.3922420000000  0.5871520000000 1.0
C      1  0.4505930000000  0.5053470000000  0.4043540000000 1.0
C      1  0.5107860000000  0.5374370000000  0.4762350000000 1.0
C      1  0.4896510000000  0.4741660000000  0.6208380000000 1.0
C      1  0.4797440000000  0.5578000000000  0.5015550000000 1.0
C      1  0.4752820000000  0.4088010000000  0.5721950000000 1.0
C      1  0.5056190000000  0.5970330000000  0.5099120000000 1.0
C      1  0.4810600000000  0.5773040000000  0.4582470000000 1.0
C      1  0.5436460000000  0.5779040000000  0.4277870000000 1.0
C      1  0.4748890000000  0.5504530000000  0.5668490000000 1.0
C      1  0.4662740000000  0.4262720000000  0.5511490000000 1.0
C      1  0.5699520000000  0.5134080000000  0.5241730000000 1.0
C      1  0.4453530000000  0.5267690000000  0.5152610000000 1.0
C      1  0.4512840000000  0.4534840000000  0.4592740000000 1.0
C      1  0.4562960000000  0.5409710000000  0.5884620000000 1.0
C      1  0.4677280000000  0.5969730000000  0.4745430000000 1.0
C      1  0.5324140000000  0.4927610000000  0.3946110000000 1.0
C      1  0.6382270000000  0.5343710000000  0.5179130000000 1.0
C      1  0.5971180000000  0.4889230000000  0.5566340000000 1.0
C      1  0.6401550000000  0.5288110000000  0.4904300000000 1.0
C      1  0.5446560000000  0.5346620000000  0.6220850000000 1.0
C      1  0.5720490000000  0.4621280000000  0.3948000000000 1.0
C      1  0.5887020000000  0.5395750000000  0.4347730000000 1.0
C      1  0.5451570000000  0.4663420000000  0.3962890000000 1.0
C      1  0.3851470000000  0.5280470000000  0.4744720000000 1.0
C      1  0.4650560000000  0.4018420000000  0.4788340000000 1.0
C      1  0.4860540000000  0.5854050000000  0.4317970000000 1.0
C      1  0.4157860000000  0.4827800000000  0.4336140000000 1.0
C      1  0.4924080000000  0.5337890000000  0.3934910000000 1.0
C      1  0.6284790000000  0.5248040000000  0.4667640000000 1.0
C      1  0.4627340000000  0.4784370000000  0.4530410000000 1.0
C      1  0.4842000000000  0.4798390000000  0.4361590000000 1.0
C      1  0.6126290000000  0.5377050000000  0.5290280000000 1.0
C      1  0.4824950000000  0.5064870000000  0.3891210000000 1.0
C      1  0.4409520000000  0.3807750000000  0.6030270000000 1.0
C      1  0.5452750000000  0.5668210000000  0.5433160000000 1.0
C      1  0.4252040000000  0.5476240000000  0.4408610000000 1.0
C      1  0.4696710000000  0.4802090000000  0.5611540000000 1.0
C      1  0.4475150000000  0.5326750000000  0.4183020000000 1.0
C      1  0.4751160000000  0.5419690000000  0.4162280000000 1.0
C      1  0.4674110000000  0.5152740000000  0.5982280000000 1.0
C      1  0.4681760000000  0.3831150000000  0.5220650000000 1.0
C      1  0.4289760000000  0.5430290000000  0.5802910000000 1.0
C      1  0.5710880000000  0.5836800000000  0.4291440000000 1.0
C      1  0.4405760000000  0.4235620000000  0.5358910000000 1.0
C      1  0.5250150000000  0.4235430000000  0.4187830000000 1.0
C      1  0.4989990000000  0.4582290000000  0.3894700000000 1.0
C      1  0.4544040000000  0.4481220000000  0.4874990000000 1.0
C      1  0.5850260000000  0.4078420000000  0.5257390000000 1.0
END
