TITL C-247202-1916-513 1.56504698405669e-05 125000 -181.115121843443 0 0 31 (C1) n - 1
REM
REM in /home/nfs/bkarasulu/CARBON/AIRSS/Generating-Clusters/LCBOP/Only-C1/SD-CG/FIRE-HFTN
REM
REM
REM
REM
REM
REM ./C.cell (11c1c37f851c82e70ff6c80c92926a4b)
REM AIRSS Version 0.9.1 bugfix July 2018 build 013d7b7c2542+ Fri, 06 Jul 2018 19:26:36 +0100
REM compiler GCC version 9.2.1 20190827 (Red Hat 9.2.1-1)
REM options -cpp -mtune=generic -march=x86-64 -g -O0 -fpre-include=/usr/include/finclude/math-vector-fortran.h
REM seed 833015872 1344682825 1303126578 -875119228 1082713358 1029770885 -160864243 -656731088 -1103068705 1450988502 1310237210 127716431 -1927351693 1908804784 1497598243 -27809178 767081246 1092829480 -805735224 -756727766 -75188353 -105941295 170359847 -702880056 -2143422524 915229609 1453471897 -229110821 -420839483 1743836685 -1263128282 503384447 1166503684
REM
CELL 1.54180   50.00000   50.00000   50.00000   90.00000   90.00000   90.00000
LATT -1
SFAC C  
C      1  0.4404160000000  0.5021040000000  0.5227460000000 1.0
C      1  0.4897530000000  0.4492870000000  0.4116510000000 1.0
C      1  0.5783780000000  0.5766930000000  0.5634630000000 1.0
C      1  0.5356910000000  0.5219770000000  0.5407140000000 1.0
C      1  0.4951240000000  0.4727710000000  0.5006880000000 1.0
C      1  0.4831320000000  0.5174430000000  0.5431670000000 1.0
C      1  0.4667850000000  0.4973570000000  0.5320860000000 1.0
C      1  0.4856390000000  0.4321740000000  0.3918320000000 1.0
C      1  0.3894170000000  0.5176360000000  0.4729230000000 1.0
C      1  0.4938200000000  0.4663640000000  0.4314840000000 1.0
C      1  0.4118600000000  0.5094460000000  0.4833360000000 1.0
C      1  0.4815930000000  0.4153430000000  0.3723390000000 1.0
C      1  0.4828030000000  0.4813120000000  0.4766760000000 1.0
C      1  0.4563480000000  0.4904810000000  0.4783710000000 1.0
C      1  0.4976700000000  0.4840800000000  0.4526640000000 1.0
C      1  0.5232110000000  0.4698520000000  0.5047240000000 1.0
C      1  0.5163610000000  0.5048410000000  0.4508810000000 1.0
C      1  0.5520860000000  0.5460230000000  0.5024120000000 1.0
C      1  0.4801210000000  0.4729680000000  0.5256340000000 1.0
C      1  0.5653050000000  0.5604810000000  0.5470870000000 1.0
C      1  0.5185400000000  0.4560220000000  0.5496320000000 1.0
C      1  0.5453040000000  0.4954470000000  0.5393730000000 1.0
C      1  0.5083550000000  0.5257050000000  0.5464160000000 1.0
C      1  0.4914110000000  0.4568610000000  0.5463090000000 1.0
C      1  0.5344720000000  0.4708620000000  0.5310950000000 1.0
C      1  0.4201090000000  0.5073950000000  0.5402810000000 1.0
C      1  0.5513310000000  0.5432390000000  0.5302740000000 1.0
C      1  0.4358440000000  0.5007190000000  0.4945610000000 1.0
C      1  0.5912200000000  0.5926190000000  0.5796210000000 1.0
C      1  0.5452600000000  0.5386500000000  0.4778220000000 1.0
C      1  0.5326420000000  0.5238470000000  0.4597380000000 1.0
END
