TITL C-247201-3759-54 1537.81098796005 125000 -1218.08404366282 0 0 200 (C1) n - 1
REM
REM in /home/nfs/bkarasulu/CARBON/AIRSS/Generating-Clusters/LCBOP/Only-C1/SD-CG/FIRE-HFTN
REM
REM
REM
REM
REM
REM ./C.cell (11c1c37f851c82e70ff6c80c92926a4b)
REM AIRSS Version 0.9.1 bugfix July 2018 build 013d7b7c2542+ Fri, 06 Jul 2018 19:26:36 +0100
REM compiler GCC version 9.2.1 20190827 (Red Hat 9.2.1-1)
REM options -cpp -mtune=generic -march=x86-64 -g -O0 -fpre-include=/usr/include/finclude/math-vector-fortran.h
REM seed -1386182200 -2094097336 730381560 -62047263 1490290720 1019942144 -1645154383 1140342039 -106460922 797767069 21891597 -2013591558 -1492901559 -1011963258 101853778 -63439207 -1992386232 -100371477 204626162 -1265056753 868046752 -1745593893 894090944 414315060 -1920521566 1128239729 1164689232 -1676462869 -450645073 810283430 -300474476 1181509926 1522200684
REM
CELL 1.54180   50.00000   50.00000   50.00000   90.00000   90.00000   90.00000
LATT -1
SFAC C  
C      1  0.4505010000000  0.5586130000000  0.5248950000000 1.0
C      1  0.4485180000000  0.6222970000000  0.3530370000000 1.0
C      1  0.5760520000000  0.4601100000000  0.5630640000000 1.0
C      1  0.5633280000000  0.5657160000000  0.4587380000000 1.0
C      1  0.6034160000000  0.5408170000000  0.5391000000000 1.0
C      1  0.4801970000000  0.6251250000000  0.5229560000000 1.0
C      1  0.5365150000000  0.5415710000000  0.4922480000000 1.0
C      1  0.5442110000000  0.3754330000000  0.4731540000000 1.0
C      1  0.5412750000000  0.5318970000000  0.5639250000000 1.0
C      1  0.4708310000000  0.5459280000000  0.4779160000000 1.0
C      1  0.5354150000000  0.5048630000000  0.5658860000000 1.0
C      1  0.4844510000000  0.3995620000000  0.5540240000000 1.0
C      1  0.3891950000000  0.5163040000000  0.4414000000000 1.0
C      1  0.4330600000000  0.4752920000000  0.3844370000000 1.0
C      1  0.5030960000000  0.5540250000000  0.3857790000000 1.0
C      1  0.4825780000000  0.4984670000000  0.4181200000000 1.0
C      1  0.5206270000000  0.4246180000000  0.5284490000000 1.0
C      1  0.4040350000000  0.5728800000000  0.5424190000000 1.0
C      1  0.5316500000000  0.4954000000000  0.5932410000000 1.0
C      1  0.4089700000000  0.4771230000000  0.5690610000000 1.0
C      1  0.3623440000000  0.4588890000000  0.5048330000000 1.0
C      1  0.5517340000000  0.6252040000000  0.4980030000000 1.0
C      1  0.5452010000000  0.4405170000000  0.5291270000000 1.0
C      1  0.4639430000000  0.4016680000000  0.4662220000000 1.0
C      1  0.5632080000000  0.4502470000000  0.5093740000000 1.0
C      1  0.5109260000000  0.4778470000000  0.6041340000000 1.0
C      1  0.3895430000000  0.5263640000000  0.5738450000000 1.0
C      1  0.5380000000000  0.4928650000000  0.5402690000000 1.0
C      1  0.5046640000000  0.5382420000000  0.6224070000000 1.0
C      1  0.5434970000000  0.3772420000000  0.5014780000000 1.0
C      1  0.4571970000000  0.4491920000000  0.5174130000000 1.0
C      1  0.4456590000000  0.4871330000000  0.4564610000000 1.0
C      1  0.5242350000000  0.5870930000000  0.4429140000000 1.0
C      1  0.5859240000000  0.5379190000000  0.4290410000000 1.0
C      1  0.4556390000000  0.4238500000000  0.6364640000000 1.0
C      1  0.5413160000000  0.5774940000000  0.4190240000000 1.0
C      1  0.5065670000000  0.5070510000000  0.4317840000000 1.0
C      1  0.5215160000000  0.4592800000000  0.5646380000000 1.0
C      1  0.4259600000000  0.5338120000000  0.6046320000000 1.0
C      1  0.4185070000000  0.5690790000000  0.5672730000000 1.0
C      1  0.4486540000000  0.5642680000000  0.4816570000000 1.0
C      1  0.5574640000000  0.4063260000000  0.4396830000000 1.0
C      1  0.5987770000000  0.4708020000000  0.4390290000000 1.0
C      1  0.3679810000000  0.5341390000000  0.5573010000000 1.0
C      1  0.4975520000000  0.5079050000000  0.4780400000000 1.0
C      1  0.4490250000000  0.4480920000000  0.5468480000000 1.0
C      1  0.4449310000000  0.5093720000000  0.5268950000000 1.0
C      1  0.5105200000000  0.6127060000000  0.5703410000000 1.0
C      1  0.4100230000000  0.5401030000000  0.5058190000000 1.0
C      1  0.5238610000000  0.6205010000000  0.4951540000000 1.0
C      1  0.4216570000000  0.4537700000000  0.4322410000000 1.0
C      1  0.5435980000000  0.4595620000000  0.4407390000000 1.0
C      1  0.4353180000000  0.4197370000000  0.5439170000000 1.0
C      1  0.5783230000000  0.5123610000000  0.4119670000000 1.0
C      1  0.4431300000000  0.5984560000000  0.3621040000000 1.0
C      1  0.5888200000000  0.3938850000000  0.4946410000000 1.0
C      1  0.5285440000000  0.4681280000000  0.3924490000000 1.0
C      1  0.4417600000000  0.5028010000000  0.3864160000000 1.0
C      1  0.5091440000000  0.6218100000000  0.5212240000000 1.0
C      1  0.6089850000000  0.4765200000000  0.4990980000000 1.0
C      1  0.5363850000000  0.3906050000000  0.4507440000000 1.0
C      1  0.5393080000000  0.5553510000000  0.4690210000000 1.0
C      1  0.4577630000000  0.4994430000000  0.4319120000000 1.0
C      1  0.3970950000000  0.4890420000000  0.4877250000000 1.0
C      1  0.4919120000000  0.3803610000000  0.5028360000000 1.0
C      1  0.6180430000000  0.4955050000000  0.5178950000000 1.0
C      1  0.4633350000000  0.4317460000000  0.6123680000000 1.0
C      1  0.5176210000000  0.4482800000000  0.4397190000000 1.0
C      1  0.5654270000000  0.6177530000000  0.5202100000000 1.0
C      1  0.4644900000000  0.5589300000000  0.5718000000000 1.0
C      1  0.4983220000000  0.5140520000000  0.6327400000000 1.0
C      1  0.4150950000000  0.6167920000000  0.4982740000000 1.0
C      1  0.4944530000000  0.4888110000000  0.5295780000000 1.0
C      1  0.5177610000000  0.5214570000000  0.4914460000000 1.0
C      1  0.4372030000000  0.4386000000000  0.4524960000000 1.0
C      1  0.4186660000000  0.5331180000000  0.4782340000000 1.0
C      1  0.5189250000000  0.5671860000000  0.5294320000000 1.0
C      1  0.6102130000000  0.5345620000000  0.4838650000000 1.0
C      1  0.4447130000000  0.5788080000000  0.5051360000000 1.0
C      1  0.5844520000000  0.5281250000000  0.5851650000000 1.0
C      1  0.5907990000000  0.4841770000000  0.4136300000000 1.0
C      1  0.4966290000000  0.5821610000000  0.4860500000000 1.0
C      1  0.5007900000000  0.4324880000000  0.5106410000000 1.0
C      1  0.5044330000000  0.5485960000000  0.5958030000000 1.0
C      1  0.4319370000000  0.4923530000000  0.5032380000000 1.0
C      1  0.4749380000000  0.5155340000000  0.5179390000000 1.0
C      1  0.5120060000000  0.4083750000000  0.5513220000000 1.0
C      1  0.5144630000000  0.4285870000000  0.4208910000000 1.0
C      1  0.6039220000000  0.5241450000000  0.5635580000000 1.0
C      1  0.4121070000000  0.5428290000000  0.3999720000000 1.0
C      1  0.4632630000000  0.6227120000000  0.5004740000000 1.0
C      1  0.4686960000000  0.5110360000000  0.5751880000000 1.0
C      1  0.5324760000000  0.4076680000000  0.5720660000000 1.0
C      1  0.4922310000000  0.4327350000000  0.4036670000000 1.0
C      1  0.5484150000000  0.5117240000000  0.4039200000000 1.0
C      1  0.5667160000000  0.5623450000000  0.4295720000000 1.0
C      1  0.4380460000000  0.5086250000000  0.4144860000000 1.0
C      1  0.4821280000000  0.5381770000000  0.5785110000000 1.0
C      1  0.4648820000000  0.5004840000000  0.6022640000000 1.0
C      1  0.4609270000000  0.6050970000000  0.5689370000000 1.0
C      1  0.4989650000000  0.4655590000000  0.4506470000000 1.0
C      1  0.5216760000000  0.4863350000000  0.5178820000000 1.0
C      1  0.5958600000000  0.4262460000000  0.5285960000000 1.0
C      1  0.3884400000000  0.4654960000000  0.5009560000000 1.0
C      1  0.5029720000000  0.4523490000000  0.4917590000000 1.0
C      1  0.6033470000000  0.5369320000000  0.4562740000000 1.0
C      1  0.4426150000000  0.5624950000000  0.4382910000000 1.0
C      1  0.5618900000000  0.5437310000000  0.5798420000000 1.0
C      1  0.6089070000000  0.4954300000000  0.5644470000000 1.0
C      1  0.5243730000000  0.5671560000000  0.3972490000000 1.0
C      1  0.4343920000000  0.4733380000000  0.5577270000000 1.0
C      1  0.5169890000000  0.3741320000000  0.5108630000000 1.0
C      1  0.4381080000000  0.5742100000000  0.3715210000000 1.0
C      1  0.5144210000000  0.6030840000000  0.4744060000000 1.0
C      1  0.5483290000000  0.4541400000000  0.5544700000000 1.0
C      1  0.5336720000000  0.5148570000000  0.4288030000000 1.0
C      1  0.5706150000000  0.5029260000000  0.4684280000000 1.0
C      1  0.4354490000000  0.4639180000000  0.5067740000000 1.0
C      1  0.5567880000000  0.5404700000000  0.5109460000000 1.0
C      1  0.5878800000000  0.4815230000000  0.5799050000000 1.0
C      1  0.4172380000000  0.4789380000000  0.4466120000000 1.0
C      1  0.4352690000000  0.5488100000000  0.3828520000000 1.0
C      1  0.5988870000000  0.4522390000000  0.5434540000000 1.0
C      1  0.4708480000000  0.5171790000000  0.4865700000000 1.0
C      1  0.5541380000000  0.4989080000000  0.6099650000000 1.0
C      1  0.4228830000000  0.4088170000000  0.4914330000000 1.0
C      1  0.5974070000000  0.4421950000000  0.4498100000000 1.0
C      1  0.4254010000000  0.4572570000000  0.4039200000000 1.0
C      1  0.5266420000000  0.4246560000000  0.5949680000000 1.0
C      1  0.5166360000000  0.5605590000000  0.4524800000000 1.0
C      1  0.3914370000000  0.5560750000000  0.5218790000000 1.0
C      1  0.4481610000000  0.4163860000000  0.6602960000000 1.0
C      1  0.4103790000000  0.5447670000000  0.5831450000000 1.0
C      1  0.5253030000000  0.5687870000000  0.5899760000000 1.0
C      1  0.5021560000000  0.5059490000000  0.3781490000000 1.0
C      1  0.6129470000000  0.5253490000000  0.5133930000000 1.0
C      1  0.4892090000000  0.5631630000000  0.4624170000000 1.0
C      1  0.5252090000000  0.4704040000000  0.4931750000000 1.0
C      1  0.6017940000000  0.4193600000000  0.4986610000000 1.0
C      1  0.4995200000000  0.4591780000000  0.3921170000000 1.0
C      1  0.4401060000000  0.6063540000000  0.5013600000000 1.0
C      1  0.5748890000000  0.4042630000000  0.5375050000000 1.0
C      1  0.5802900000000  0.4716190000000  0.5018090000000 1.0
C      1  0.5502250000000  0.5127030000000  0.4518850000000 1.0
C      1  0.4437110000000  0.5058100000000  0.4796090000000 1.0
C      1  0.5533060000000  0.5713090000000  0.5799270000000 1.0
C      1  0.6155420000000  0.4796860000000  0.5422860000000 1.0
C      1  0.5680900000000  0.5167480000000  0.5150190000000 1.0
C      1  0.4420710000000  0.5137190000000  0.6134890000000 1.0
C      1  0.5752870000000  0.4643450000000  0.4004730000000 1.0
C      1  0.5687760000000  0.4968220000000  0.4958500000000 1.0
C      1  0.4570110000000  0.4009580000000  0.5512650000000 1.0
C      1  0.6101880000000  0.4360200000000  0.4759490000000 1.0
C      1  0.4559670000000  0.4587150000000  0.4636570000000 1.0
C      1  0.5247440000000  0.6142720000000  0.5457330000000 1.0
C      1  0.4868350000000  0.5311140000000  0.3776840000000 1.0
C      1  0.4731700000000  0.4255180000000  0.5090440000000 1.0
C      1  0.4772300000000  0.5485280000000  0.5228670000000 1.0
C      1  0.4891690000000  0.4926970000000  0.6160580000000 1.0
C      1  0.3941990000000  0.4984620000000  0.5759710000000 1.0
C      1  0.4103690000000  0.4495290000000  0.5100810000000 1.0
C      1  0.4830190000000  0.4550510000000  0.4708840000000 1.0
C      1  0.4376460000000  0.4137750000000  0.4665940000000 1.0
C      1  0.4866720000000  0.6070310000000  0.5821710000000 1.0
C      1  0.5307740000000  0.4976130000000  0.3847650000000 1.0
C      1  0.5879320000000  0.5666340000000  0.5431420000000 1.0
C      1  0.5674570000000  0.3877590000000  0.5134730000000 1.0
C      1  0.5495560000000  0.4607760000000  0.4112270000000 1.0
C      1  0.4696330000000  0.5697940000000  0.4390680000000 1.0
C      1  0.4740580000000  0.4508790000000  0.5627630000000 1.0
C      1  0.5589470000000  0.4024690000000  0.5614670000000 1.0
C      1  0.4643260000000  0.6222950000000  0.5465640000000 1.0
C      1  0.5938330000000  0.4914580000000  0.4575730000000 1.0
C      1  0.4558570000000  0.5278830000000  0.3775250000000 1.0
C      1  0.4955010000000  0.4673150000000  0.5520400000000 1.0
C      1  0.6247090000000  0.4583630000000  0.4852740000000 1.0
C      1  0.5791000000000  0.4224610000000  0.4400850000000 1.0
C      1  0.5529800000000  0.6059890000000  0.5429700000000 1.0
C      1  0.5438660000000  0.4673580000000  0.4695120000000 1.0
C      1  0.4868260000000  0.4851330000000  0.3930650000000 1.0
C      1  0.4808040000000  0.4011040000000  0.4419310000000 1.0
C      1  0.4180460000000  0.4216400000000  0.5175720000000 1.0
C      1  0.4292280000000  0.5546430000000  0.4627440000000 1.0
C      1  0.5660900000000  0.5837120000000  0.5562590000000 1.0
C      1  0.3970180000000  0.4945690000000  0.4590850000000 1.0
C      1  0.3965460000000  0.5318030000000  0.4198350000000 1.0
C      1  0.5275930000000  0.5484340000000  0.5461920000000 1.0
C      1  0.5181010000000  0.4519650000000  0.5928500000000 1.0
C      1  0.4458850000000  0.5800640000000  0.5703280000000 1.0
C      1  0.4321320000000  0.5365050000000  0.5245440000000 1.0
C      1  0.4716880000000  0.4411880000000  0.5890480000000 1.0
C      1  0.4966680000000  0.5677760000000  0.5125160000000 1.0
C      1  0.4496910000000  0.4983990000000  0.5547620000000 1.0
C      1  0.3680010000000  0.5439450000000  0.5320660000000 1.0
C      1  0.5788040000000  0.5022880000000  0.5976410000000 1.0
C      1  0.4513480000000  0.4044340000000  0.4012780000000 1.0
C      1  0.4731000000000  0.4134560000000  0.4152430000000 1.0
C      1  0.5082240000000  0.3916610000000  0.4448170000000 1.0
C      1  0.5033620000000  0.4929020000000  0.4557610000000 1.0
C      1  0.4741060000000  0.4003410000000  0.4933160000000 1.0
END
