TITL C-247202-1916-608 0.00164541721731283 125000 -121.844776488962 0 0 22 (C1) n - 1
REM
REM in /home/nfs/bkarasulu/CARBON/AIRSS/Generating-Clusters/LCBOP/Only-C1/SD-CG/FIRE-HFTN
REM
REM
REM
REM
REM
REM ./C.cell (11c1c37f851c82e70ff6c80c92926a4b)
REM AIRSS Version 0.9.1 bugfix July 2018 build 013d7b7c2542+ Fri, 06 Jul 2018 19:26:36 +0100
REM compiler GCC version 9.2.1 20190827 (Red Hat 9.2.1-1)
REM options -cpp -mtune=generic -march=x86-64 -g -O0 -fpre-include=/usr/include/finclude/math-vector-fortran.h
REM seed 190021057 -119691725 -209317843 748813543 893749377 695618928 -1194812318 -2084870873 -775239284 685000243 -930751893 754790683 -148762318 741262098 -2093721225 1316578536 -1780489771 1897703669 99958200 -452745466 -1976654861 -1558808024 2045914895 1963501894 1156035673 -192614178 -293368995 1431100671 -1176903120 363595070 303378512 -1205037590 -1143207453
REM
CELL 1.54180   50.00000   50.00000   50.00000   90.00000   90.00000   90.00000
LATT -1
SFAC C  
C      1  0.5729920000000  0.4833920000000  0.5241740000000 1.0
C      1  0.4897470000000  0.5278150000000  0.5371690000000 1.0
C      1  0.4721240000000  0.4514810000000  0.4602170000000 1.0
C      1  0.5300690000000  0.4732130000000  0.4949730000000 1.0
C      1  0.4953930000000  0.4892150000000  0.4394480000000 1.0
C      1  0.4627280000000  0.5490280000000  0.4717030000000 1.0
C      1  0.4850420000000  0.5124960000000  0.4485880000000 1.0
C      1  0.4679700000000  0.5198010000000  0.5215680000000 1.0
C      1  0.5051040000000  0.4728010000000  0.4833090000000 1.0
C      1  0.5522810000000  0.4772470000000  0.5088280000000 1.0
C      1  0.5357950000000  0.5361910000000  0.5610460000000 1.0
C      1  0.5927490000000  0.4906820000000  0.5402700000000 1.0
C      1  0.4729910000000  0.5076790000000  0.4964280000000 1.0
C      1  0.4362940000000  0.4524030000000  0.4960230000000 1.0
C      1  0.4596940000000  0.4602590000000  0.4849540000000 1.0
C      1  0.4970350000000  0.4660060000000  0.4555600000000 1.0
C      1  0.4735810000000  0.5233060000000  0.4721500000000 1.0
C      1  0.4525130000000  0.5730000000000  0.4721170000000 1.0
C      1  0.4790760000000  0.4799130000000  0.4950750000000 1.0
C      1  0.4423320000000  0.5232740000000  0.5304270000000 1.0
C      1  0.5126260000000  0.5325920000000  0.5496510000000 1.0
C      1  0.6118640000000  0.4982060000000  0.5563210000000 1.0
END
