TITL C-247201-3759-423 -2.58797943712138e-06 125000 -893.648140270966 0 0 144 (C1) n - 1
REM
REM in /home/nfs/bkarasulu/CARBON/AIRSS/Generating-Clusters/LCBOP/Only-C1/SD-CG/FIRE-HFTN
REM
REM
REM
REM
REM
REM ./C.cell (11c1c37f851c82e70ff6c80c92926a4b)
REM AIRSS Version 0.9.1 bugfix July 2018 build 013d7b7c2542+ Fri, 06 Jul 2018 19:26:36 +0100
REM compiler GCC version 9.2.1 20190827 (Red Hat 9.2.1-1)
REM options -cpp -mtune=generic -march=x86-64 -g -O0 -fpre-include=/usr/include/finclude/math-vector-fortran.h
REM seed -724242521 -1556049065 -1102980175 -859355763 1875737635 -1131615474 75705764 -1752590870 1206551826 -1956022425 -1655482463 81671396 1214032273 -1408421205 1081290301 -2145261147 -557559367 336418345 1720019157 -885420826 943894503 -1851322720 1201190955 -820022677 -752241983 -894148283 -329214323 1816405191 412283587 1474827903 1727962010 -1793737148 -2029993702
REM
CELL 1.54180   50.00000   50.00000   50.00000   90.00000   90.00000   90.00000
LATT -1
SFAC C  
C      1  0.4477930000000  0.5742210000000  0.4283840000000 1.0
C      1  0.4489110000000  0.5778680000000  0.5229010000000 1.0
C      1  0.4578190000000  0.5189510000000  0.5027180000000 1.0
C      1  0.4863400000000  0.6081420000000  0.4888020000000 1.0
C      1  0.4571340000000  0.5895490000000  0.4530120000000 1.0
C      1  0.5873590000000  0.4417480000000  0.5215650000000 1.0
C      1  0.6282340000000  0.5296840000000  0.4933150000000 1.0
C      1  0.4262180000000  0.3734870000000  0.4411010000000 1.0
C      1  0.6140790000000  0.4849880000000  0.4806540000000 1.0
C      1  0.4138250000000  0.4521300000000  0.5542680000000 1.0
C      1  0.5527100000000  0.3819270000000  0.4972950000000 1.0
C      1  0.5663290000000  0.4043290000000  0.5508340000000 1.0
C      1  0.5607360000000  0.5780590000000  0.6086500000000 1.0
C      1  0.5246810000000  0.5050470000000  0.4026830000000 1.0
C      1  0.5907940000000  0.4141730000000  0.4789240000000 1.0
C      1  0.5008010000000  0.5195120000000  0.4151360000000 1.0
C      1  0.5703370000000  0.5559370000000  0.5963160000000 1.0
C      1  0.5178870000000  0.4762850000000  0.4005360000000 1.0
C      1  0.3869650000000  0.5150980000000  0.5117060000000 1.0
C      1  0.5630850000000  0.4875810000000  0.5145650000000 1.0
C      1  0.5316260000000  0.5990570000000  0.5405640000000 1.0
C      1  0.5248540000000  0.4628280000000  0.4987870000000 1.0
C      1  0.5325710000000  0.5186680000000  0.4601990000000 1.0
C      1  0.4307230000000  0.4614820000000  0.4357080000000 1.0
C      1  0.6121550000000  0.5127300000000  0.4771750000000 1.0
C      1  0.5431920000000  0.5674280000000  0.4275130000000 1.0
C      1  0.5814570000000  0.5323780000000  0.6088480000000 1.0
C      1  0.4885830000000  0.5476490000000  0.4187010000000 1.0
C      1  0.4849270000000  0.5821310000000  0.5590150000000 1.0
C      1  0.5466570000000  0.5486980000000  0.4083300000000 1.0
C      1  0.4749760000000  0.4274470000000  0.5720390000000 1.0
C      1  0.6060720000000  0.4178290000000  0.4547080000000 1.0
C      1  0.4525970000000  0.5279240000000  0.5508720000000 1.0
C      1  0.5528310000000  0.5386930000000  0.5242820000000 1.0
C      1  0.5310510000000  0.4430950000000  0.5897020000000 1.0
C      1  0.3906850000000  0.5349970000000  0.5319720000000 1.0
C      1  0.4727130000000  0.5904500000000  0.5341110000000 1.0
C      1  0.4071850000000  0.5267670000000  0.5548340000000 1.0
C      1  0.4945310000000  0.5430170000000  0.5295450000000 1.0
C      1  0.4597060000000  0.4782850000000  0.5410390000000 1.0
C      1  0.5538950000000  0.5558930000000  0.5480470000000 1.0
C      1  0.3895000000000  0.5236220000000  0.4832420000000 1.0
C      1  0.4583330000000  0.4477520000000  0.5837810000000 1.0
C      1  0.4297370000000  0.4484030000000  0.5782750000000 1.0
C      1  0.4268330000000  0.4392440000000  0.5324500000000 1.0
C      1  0.4152760000000  0.5667320000000  0.4625900000000 1.0
C      1  0.4703370000000  0.4721710000000  0.5934860000000 1.0
C      1  0.5098830000000  0.4829120000000  0.5392520000000 1.0
C      1  0.5702700000000  0.4633300000000  0.5287070000000 1.0
C      1  0.5963670000000  0.4384640000000  0.4950300000000 1.0
C      1  0.5468500000000  0.4544160000000  0.5435370000000 1.0
C      1  0.5931990000000  0.5237990000000  0.4591250000000 1.0
C      1  0.5325590000000  0.5687590000000  0.4542370000000 1.0
C      1  0.6113850000000  0.4575540000000  0.4783630000000 1.0
C      1  0.5100750000000  0.5505040000000  0.5092140000000 1.0
C      1  0.4883780000000  0.5228200000000  0.5775460000000 1.0
C      1  0.4816640000000  0.5087680000000  0.4582180000000 1.0
C      1  0.6664230000000  0.5602540000000  0.4705890000000 1.0
C      1  0.4180440000000  0.4144750000000  0.4867940000000 1.0
C      1  0.4526830000000  0.4586830000000  0.4975360000000 1.0
C      1  0.4184310000000  0.4208470000000  0.5129270000000 1.0
C      1  0.5393860000000  0.3803240000000  0.5204410000000 1.0
C      1  0.4494070000000  0.4558220000000  0.5262400000000 1.0
C      1  0.6481490000000  0.5454890000000  0.4818690000000 1.0
C      1  0.5488640000000  0.5204710000000  0.4041220000000 1.0
C      1  0.5719890000000  0.3944070000000  0.4838160000000 1.0
C      1  0.4663560000000  0.5631500000000  0.4093730000000 1.0
C      1  0.5902190000000  0.5132070000000  0.4331680000000 1.0
C      1  0.3930060000000  0.4865420000000  0.5192010000000 1.0
C      1  0.5141310000000  0.6170790000000  0.5277960000000 1.0
C      1  0.4805940000000  0.5021870000000  0.5061270000000 1.0
C      1  0.5027290000000  0.4316740000000  0.4144050000000 1.0
C      1  0.4129930000000  0.4423120000000  0.4465500000000 1.0
C      1  0.5725030000000  0.4659360000000  0.5831450000000 1.0
C      1  0.3934050000000  0.5034180000000  0.4622560000000 1.0
C      1  0.3993380000000  0.5626160000000  0.5268340000000 1.0
C      1  0.4772540000000  0.4465600000000  0.4880410000000 1.0
C      1  0.5140970000000  0.4565630000000  0.4223350000000 1.0
C      1  0.5737230000000  0.5423710000000  0.4680620000000 1.0
C      1  0.5290610000000  0.5028800000000  0.5455060000000 1.0
C      1  0.4891980000000  0.5542330000000  0.4470870000000 1.0
C      1  0.4619570000000  0.5430120000000  0.4891130000000 1.0
C      1  0.4358260000000  0.4892270000000  0.4379820000000 1.0
C      1  0.4362470000000  0.5039380000000  0.4944870000000 1.0
C      1  0.4890040000000  0.4918710000000  0.4813210000000 1.0
C      1  0.4626330000000  0.4985730000000  0.4365700000000 1.0
C      1  0.6115860000000  0.5273910000000  0.5442980000000 1.0
C      1  0.5472400000000  0.4801510000000  0.4915910000000 1.0
C      1  0.3966650000000  0.5503320000000  0.4760980000000 1.0
C      1  0.4968750000000  0.4735750000000  0.3808360000000 1.0
C      1  0.4601310000000  0.4057690000000  0.4304220000000 1.0
C      1  0.5165320000000  0.4016590000000  0.5579130000000 1.0
C      1  0.5922590000000  0.5138240000000  0.5894620000000 1.0
C      1  0.4897670000000  0.6065780000000  0.5168130000000 1.0
C      1  0.4751810000000  0.5375110000000  0.4648300000000 1.0
C      1  0.4472960000000  0.4992120000000  0.5600490000000 1.0
C      1  0.4823820000000  0.4150050000000  0.4190910000000 1.0
C      1  0.4220380000000  0.4182130000000  0.4589220000000 1.0
C      1  0.4362050000000  0.3988870000000  0.4434640000000 1.0
C      1  0.4833340000000  0.4123040000000  0.5258650000000 1.0
C      1  0.4160870000000  0.5330340000000  0.4285030000000 1.0
C      1  0.5327080000000  0.5744070000000  0.5544020000000 1.0
C      1  0.4750030000000  0.5029200000000  0.4108430000000 1.0
C      1  0.4503600000000  0.5680010000000  0.4960790000000 1.0
C      1  0.4740320000000  0.4871390000000  0.3873030000000 1.0
C      1  0.5009570000000  0.4641040000000  0.4788980000000 1.0
C      1  0.4309520000000  0.4765260000000  0.4914980000000 1.0
C      1  0.5089890000000  0.5141150000000  0.4451420000000 1.0
C      1  0.5046080000000  0.5761400000000  0.4561130000000 1.0
C      1  0.3884780000000  0.4763270000000  0.4712110000000 1.0
C      1  0.6236370000000  0.5299450000000  0.5208610000000 1.0
C      1  0.4800700000000  0.5327050000000  0.5508390000000 1.0
C      1  0.3881840000000  0.4538540000000  0.4542780000000 1.0
C      1  0.4842160000000  0.4881820000000  0.5301230000000 1.0
C      1  0.5733780000000  0.5095360000000  0.4126340000000 1.0
C      1  0.5436900000000  0.5459220000000  0.4720010000000 1.0
C      1  0.5113180000000  0.4605320000000  0.4504530000000 1.0
C      1  0.5881890000000  0.4864020000000  0.5896060000000 1.0
C      1  0.5736580000000  0.5508890000000  0.5676670000000 1.0
C      1  0.5406020000000  0.3937930000000  0.5452510000000 1.0
C      1  0.5199080000000  0.6437450000000  0.5262150000000 1.0
C      1  0.5228850000000  0.4600000000000  0.5281620000000 1.0
C      1  0.6180350000000  0.4426920000000  0.4544270000000 1.0
C      1  0.4378860000000  0.5808460000000  0.4740190000000 1.0
C      1  0.4831480000000  0.4219300000000  0.5008490000000 1.0
C      1  0.5048060000000  0.5448620000000  0.5862370000000 1.0
C      1  0.4026970000000  0.4723240000000  0.4958410000000 1.0
C      1  0.5497460000000  0.4536560000000  0.5719360000000 1.0
C      1  0.4262570000000  0.5678880000000  0.5370820000000 1.0
C      1  0.4842580000000  0.5956760000000  0.4635160000000 1.0
C      1  0.4699140000000  0.4988280000000  0.5832790000000 1.0
C      1  0.4165080000000  0.4998920000000  0.5596160000000 1.0
C      1  0.5370050000000  0.5475010000000  0.5016250000000 1.0
C      1  0.5932570000000  0.5295020000000  0.5648860000000 1.0
C      1  0.5854370000000  0.4194360000000  0.5391810000000 1.0
C      1  0.4234140000000  0.5593390000000  0.4355180000000 1.0
C      1  0.4304530000000  0.5448600000000  0.5537860000000 1.0
C      1  0.5518560000000  0.5102750000000  0.5294570000000 1.0
C      1  0.4909770000000  0.4131590000000  0.5531040000000 1.0
C      1  0.5085510000000  0.5685180000000  0.5696280000000 1.0
C      1  0.4031210000000  0.4783820000000  0.5462050000000 1.0
C      1  0.5197040000000  0.4345140000000  0.6115670000000 1.0
C      1  0.5464950000000  0.4959160000000  0.4688920000000 1.0
C      1  0.4137520000000  0.5078350000000  0.4415170000000 1.0
END
