TITL C-247199-3331-63 -8.67663591110495e-07 125000 -1229.0944652636 0 0 200 (C1) n - 1
REM
REM in /home/nfs/bkarasulu/CARBON/AIRSS/Generating-Clusters/LCBOP/Only-C1/SD-CG/FIRE-HFTN
REM
REM
REM
REM
REM
REM ./C.cell (11c1c37f851c82e70ff6c80c92926a4b)
REM AIRSS Version 0.9.1 bugfix July 2018 build 013d7b7c2542+ Fri, 06 Jul 2018 19:26:36 +0100
REM compiler GCC version 9.2.1 20190827 (Red Hat 9.2.1-1)
REM options -cpp -mtune=generic -march=x86-64 -g -O0 -fpre-include=/usr/include/finclude/math-vector-fortran.h
REM seed 446142704 -103220230 -1385870695 426920845 1945042411 203647268 547657047 1120481040 -468568306 -1997857864 -1492321575 519197634 649904850 1600828739 682543036 2095023873 263105100 -1942150270 -1081982442 -1787345582 -1262436618 1845422070 -374669792 1338364267 1003674173 -415861924 -1630529511 -1742202354 859316182 -532256788 -84597956 1392654093 -983458033
REM
CELL 1.54180   50.00000   50.00000   50.00000   90.00000   90.00000   90.00000
LATT -1
SFAC C  
C      1  0.5240500000000  0.5419220000000  0.3837320000000 1.0
C      1  0.4861180000000  0.6282060000000  0.5589440000000 1.0
C      1  0.5354520000000  0.5343460000000  0.5334390000000 1.0
C      1  0.5750260000000  0.3655060000000  0.4956580000000 1.0
C      1  0.5348120000000  0.3429920000000  0.5122210000000 1.0
C      1  0.5709580000000  0.5333340000000  0.4084490000000 1.0
C      1  0.4198830000000  0.5941950000000  0.5355320000000 1.0
C      1  0.5717260000000  0.4782520000000  0.4538720000000 1.0
C      1  0.4174160000000  0.4883710000000  0.5923660000000 1.0
C      1  0.5794250000000  0.5299340000000  0.5077250000000 1.0
C      1  0.6169230000000  0.4749640000000  0.4570910000000 1.0
C      1  0.6119260000000  0.4602980000000  0.5581640000000 1.0
C      1  0.4902320000000  0.6318940000000  0.5297640000000 1.0
C      1  0.4820070000000  0.5978240000000  0.4246850000000 1.0
C      1  0.5530020000000  0.4838650000000  0.5069240000000 1.0
C      1  0.4393460000000  0.5085560000000  0.4229700000000 1.0
C      1  0.6209200000000  0.5551580000000  0.4997620000000 1.0
C      1  0.6045940000000  0.4544340000000  0.5041940000000 1.0
C      1  0.3871050000000  0.5323240000000  0.4712180000000 1.0
C      1  0.5630710000000  0.5858850000000  0.5692710000000 1.0
C      1  0.4039250000000  0.4454380000000  0.5784290000000 1.0
C      1  0.4374250000000  0.4882280000000  0.4696810000000 1.0
C      1  0.5637400000000  0.5439420000000  0.5308550000000 1.0
C      1  0.5663320000000  0.4901950000000  0.5796670000000 1.0
C      1  0.4484970000000  0.3980740000000  0.4098400000000 1.0
C      1  0.4224620000000  0.5548250000000  0.4467060000000 1.0
C      1  0.5728640000000  0.5973520000000  0.4820010000000 1.0
C      1  0.5678290000000  0.5970120000000  0.4120510000000 1.0
C      1  0.5817360000000  0.5704910000000  0.4735150000000 1.0
C      1  0.5337110000000  0.5735780000000  0.5015530000000 1.0
C      1  0.5195390000000  0.5593680000000  0.4539420000000 1.0
C      1  0.4580370000000  0.5091950000000  0.6086980000000 1.0
C      1  0.4637240000000  0.5623210000000  0.5318060000000 1.0
C      1  0.5043620000000  0.5845620000000  0.5383380000000 1.0
C      1  0.4874360000000  0.5877840000000  0.4899870000000 1.0
C      1  0.5514890000000  0.3644710000000  0.5114670000000 1.0
C      1  0.4878230000000  0.5244110000000  0.4726220000000 1.0
C      1  0.4571190000000  0.4676340000000  0.4720810000000 1.0
C      1  0.5163340000000  0.5542150000000  0.6170290000000 1.0
C      1  0.4233660000000  0.5414530000000  0.5032390000000 1.0
C      1  0.4070960000000  0.4578780000000  0.4990330000000 1.0
C      1  0.5035890000000  0.4539540000000  0.6000490000000 1.0
C      1  0.6096400000000  0.4510920000000  0.4749700000000 1.0
C      1  0.4673880000000  0.6038110000000  0.4491360000000 1.0
C      1  0.4972810000000  0.6155140000000  0.5807230000000 1.0
C      1  0.4434560000000  0.5386330000000  0.4593840000000 1.0
C      1  0.5258660000000  0.6034510000000  0.5431690000000 1.0
C      1  0.5246600000000  0.4415460000000  0.4912870000000 1.0
C      1  0.4828570000000  0.4748680000000  0.4794150000000 1.0
C      1  0.4997770000000  0.5389880000000  0.4497190000000 1.0
C      1  0.4728180000000  0.5582120000000  0.5741080000000 1.0
C      1  0.4585540000000  0.5095130000000  0.4013370000000 1.0
C      1  0.5142010000000  0.4060090000000  0.4561560000000 1.0
C      1  0.4280730000000  0.5332630000000  0.5759240000000 1.0
C      1  0.3886950000000  0.5093690000000  0.5575600000000 1.0
C      1  0.3914720000000  0.4959410000000  0.5827420000000 1.0
C      1  0.4800220000000  0.3711090000000  0.5207110000000 1.0
C      1  0.5577610000000  0.5791650000000  0.4303940000000 1.0
C      1  0.6025450000000  0.4841630000000  0.5458320000000 1.0
C      1  0.5110370000000  0.4176830000000  0.5026890000000 1.0
C      1  0.5529070000000  0.4444660000000  0.5316810000000 1.0
C      1  0.5851380000000  0.4370320000000  0.4629980000000 1.0
C      1  0.4126670000000  0.4104310000000  0.5179520000000 1.0
C      1  0.4594130000000  0.4218760000000  0.4872840000000 1.0
C      1  0.4493150000000  0.5467880000000  0.4872450000000 1.0
C      1  0.4204030000000  0.4526430000000  0.4293860000000 1.0
C      1  0.4939020000000  0.4460670000000  0.5530800000000 1.0
C      1  0.5643980000000  0.5044580000000  0.4566220000000 1.0
C      1  0.3917390000000  0.4779990000000  0.4580380000000 1.0
C      1  0.4241640000000  0.4362130000000  0.4539100000000 1.0
C      1  0.5866940000000  0.5395450000000  0.4318480000000 1.0
C      1  0.5853770000000  0.5023400000000  0.5600550000000 1.0
C      1  0.6079900000000  0.5225030000000  0.4416880000000 1.0
C      1  0.4223710000000  0.5230500000000  0.5256300000000 1.0
C      1  0.6410660000000  0.5142970000000  0.4764860000000 1.0
C      1  0.5186680000000  0.4084930000000  0.4044590000000 1.0
C      1  0.5019230000000  0.4603180000000  0.4929060000000 1.0
C      1  0.5110720000000  0.5985800000000  0.4287530000000 1.0
C      1  0.4108770000000  0.4786140000000  0.4792290000000 1.0
C      1  0.5399690000000  0.5116840000000  0.4655130000000 1.0
C      1  0.4726160000000  0.3969030000000  0.4820400000000 1.0
C      1  0.4724930000000  0.5320820000000  0.3903590000000 1.0
C      1  0.4010860000000  0.5791570000000  0.4804370000000 1.0
C      1  0.4280450000000  0.3984720000000  0.5372860000000 1.0
C      1  0.5031370000000  0.4061000000000  0.4291410000000 1.0
C      1  0.5935280000000  0.4535160000000  0.4173580000000 1.0
C      1  0.5766010000000  0.5630780000000  0.4458810000000 1.0
C      1  0.5534780000000  0.5662130000000  0.5873850000000 1.0
C      1  0.4726900000000  0.5302460000000  0.4962130000000 1.0
C      1  0.4527480000000  0.4499250000000  0.5808400000000 1.0
C      1  0.5490970000000  0.5367310000000  0.3927570000000 1.0
C      1  0.4968840000000  0.5415930000000  0.3827820000000 1.0
C      1  0.4210480000000  0.5829220000000  0.4593070000000 1.0
C      1  0.5743640000000  0.4358000000000  0.4288620000000 1.0
C      1  0.5993020000000  0.4817540000000  0.5169180000000 1.0
C      1  0.5281900000000  0.4943050000000  0.5135690000000 1.0
C      1  0.5558480000000  0.5729830000000  0.5224270000000 1.0
C      1  0.3887810000000  0.4020060000000  0.4591190000000 1.0
C      1  0.4979530000000  0.4740320000000  0.5479120000000 1.0
C      1  0.5140310000000  0.4568870000000  0.3877030000000 1.0
C      1  0.4422020000000  0.6043600000000  0.4641150000000 1.0
C      1  0.4057250000000  0.4290920000000  0.4972310000000 1.0
C      1  0.3729930000000  0.4666520000000  0.5433110000000 1.0
C      1  0.4340890000000  0.5108950000000  0.5942050000000 1.0
C      1  0.4113570000000  0.5268870000000  0.5521600000000 1.0
C      1  0.6064820000000  0.4515520000000  0.3937560000000 1.0
C      1  0.5526930000000  0.4431840000000  0.5609100000000 1.0
C      1  0.5009240000000  0.4005600000000  0.4806590000000 1.0
C      1  0.5634920000000  0.5393010000000  0.5827180000000 1.0
C      1  0.4903220000000  0.6065020000000  0.4684850000000 1.0
C      1  0.4000910000000  0.5326970000000  0.4437540000000 1.0
C      1  0.4504730000000  0.4633480000000  0.3904970000000 1.0
C      1  0.6281290000000  0.5773510000000  0.5139700000000 1.0
C      1  0.5328510000000  0.5568950000000  0.4788470000000 1.0
C      1  0.4985630000000  0.4513980000000  0.4329140000000 1.0
C      1  0.5241700000000  0.3995320000000  0.5704230000000 1.0
C      1  0.4826840000000  0.4476840000000  0.5813030000000 1.0
C      1  0.3911350000000  0.5992470000000  0.4971520000000 1.0
C      1  0.5897560000000  0.3881210000000  0.4989330000000 1.0
C      1  0.5936060000000  0.5506850000000  0.4919610000000 1.0
C      1  0.3747910000000  0.4944200000000  0.5370190000000 1.0
C      1  0.5132870000000  0.5974340000000  0.5936660000000 1.0
C      1  0.4396100000000  0.5766000000000  0.5320740000000 1.0
C      1  0.4656740000000  0.4321570000000  0.5134900000000 1.0
C      1  0.3708010000000  0.5147200000000  0.4864690000000 1.0
C      1  0.5655070000000  0.4557630000000  0.4724550000000 1.0
C      1  0.4975490000000  0.3965790000000  0.5828910000000 1.0
C      1  0.4935210000000  0.3928570000000  0.6096260000000 1.0
C      1  0.5222020000000  0.5339610000000  0.5575270000000 1.0
C      1  0.4034300000000  0.4775530000000  0.4318960000000 1.0
C      1  0.4725240000000  0.5354070000000  0.5243790000000 1.0
C      1  0.5778720000000  0.5320890000000  0.5569800000000 1.0
C      1  0.5536250000000  0.6191680000000  0.4845470000000 1.0
C      1  0.5302480000000  0.4345860000000  0.3976480000000 1.0
C      1  0.4980340000000  0.4802440000000  0.3947400000000 1.0
C      1  0.4103400000000  0.5053480000000  0.4243190000000 1.0
C      1  0.5349400000000  0.5301490000000  0.4855940000000 1.0
C      1  0.5279980000000  0.4312330000000  0.4626880000000 1.0
C      1  0.4767240000000  0.5176300000000  0.5465740000000 1.0
C      1  0.4469210000000  0.4355620000000  0.5562980000000 1.0
C      1  0.5201520000000  0.6268580000000  0.5263050000000 1.0
C      1  0.4677820000000  0.6292340000000  0.5098080000000 1.0
C      1  0.5092280000000  0.5008540000000  0.4111160000000 1.0
C      1  0.5510260000000  0.4544490000000  0.5007580000000 1.0
C      1  0.5445130000000  0.4186430000000  0.5733110000000 1.0
C      1  0.4491770000000  0.6205060000000  0.4900720000000 1.0
C      1  0.5134580000000  0.6149860000000  0.4535140000000 1.0
C      1  0.4519850000000  0.4778270000000  0.5303750000000 1.0
C      1  0.4939130000000  0.4973220000000  0.4683330000000 1.0
C      1  0.5007590000000  0.5324170000000  0.6168690000000 1.0
C      1  0.5795550000000  0.4070780000000  0.5174020000000 1.0
C      1  0.4327370000000  0.4966570000000  0.5223330000000 1.0
C      1  0.4487360000000  0.4406190000000  0.4687380000000 1.0
C      1  0.5254700000000  0.5120300000000  0.5746520000000 1.0
C      1  0.4829080000000  0.4277480000000  0.4266670000000 1.0
C      1  0.4804740000000  0.5299080000000  0.5731310000000 1.0
C      1  0.5412130000000  0.6309590000000  0.5076170000000 1.0
C      1  0.5285340000000  0.5736950000000  0.6006710000000 1.0
C      1  0.5524320000000  0.4647630000000  0.5804900000000 1.0
C      1  0.5970920000000  0.4306920000000  0.5218940000000 1.0
C      1  0.4261790000000  0.4612020000000  0.5882770000000 1.0
C      1  0.4925410000000  0.3925050000000  0.5371010000000 1.0
C      1  0.5381680000000  0.6245900000000  0.4615670000000 1.0
C      1  0.3844590000000  0.4487500000000  0.5599460000000 1.0
C      1  0.5300920000000  0.4610680000000  0.5993030000000 1.0
C      1  0.5267060000000  0.4485020000000  0.4405840000000 1.0
C      1  0.5070280000000  0.5812030000000  0.5094250000000 1.0
C      1  0.4441760000000  0.5568620000000  0.5797160000000 1.0
C      1  0.3994080000000  0.6050740000000  0.5220830000000 1.0
C      1  0.4919020000000  0.4222190000000  0.5262490000000 1.0
C      1  0.4692840000000  0.4839200000000  0.3922420000000 1.0
C      1  0.4823340000000  0.5726170000000  0.5511990000000 1.0
C      1  0.5779730000000  0.4992850000000  0.5074250000000 1.0
C      1  0.4051870000000  0.4211710000000  0.4693090000000 1.0
C      1  0.5481700000000  0.3887790000000  0.5268620000000 1.0
C      1  0.4756500000000  0.4897620000000  0.5407410000000 1.0
C      1  0.6395780000000  0.5354970000000  0.4926500000000 1.0
C      1  0.5040560000000  0.5224860000000  0.4266130000000 1.0
C      1  0.6237490000000  0.5032650000000  0.4574600000000 1.0
C      1  0.4489130000000  0.4066520000000  0.5558630000000 1.0
C      1  0.4448530000000  0.5110830000000  0.4517240000000 1.0
C      1  0.5517240000000  0.5915520000000  0.5442580000000 1.0
C      1  0.4758480000000  0.3960020000000  0.5627450000000 1.0
C      1  0.4627720000000  0.5735080000000  0.4888740000000 1.0
C      1  0.4663940000000  0.3740430000000  0.4973800000000 1.0
C      1  0.4402980000000  0.4458970000000  0.4097640000000 1.0
C      1  0.3678990000000  0.5044530000000  0.5113750000000 1.0
C      1  0.5469530000000  0.4415380000000  0.4208620000000 1.0
C      1  0.5160590000000  0.4880920000000  0.5638380000000 1.0
C      1  0.5952830000000  0.4736150000000  0.4371950000000 1.0
C      1  0.5503270000000  0.5134270000000  0.5884010000000 1.0
C      1  0.6077220000000  0.4352980000000  0.5482220000000 1.0
C      1  0.4508040000000  0.4491270000000  0.5312520000000 1.0
C      1  0.4002110000000  0.5516140000000  0.4888590000000 1.0
C      1  0.5196650000000  0.4941290000000  0.4586360000000 1.0
C      1  0.5292560000000  0.5768880000000  0.4338710000000 1.0
C      1  0.5263190000000  0.5214500000000  0.5108230000000 1.0
C      1  0.5234880000000  0.3900460000000  0.5427660000000 1.0
C      1  0.4823330000000  0.5197070000000  0.5998620000000 1.0
C      1  0.4572540000000  0.4234000000000  0.4155510000000 1.0
END
