TITL C-247201-3759-417 0.034411869799531 125000 -240.703669776441 0 0 41 (C1) n - 1
REM
REM in /home/nfs/bkarasulu/CARBON/AIRSS/Generating-Clusters/LCBOP/Only-C1/SD-CG/FIRE-HFTN
REM
REM
REM
REM
REM
REM ./C.cell (11c1c37f851c82e70ff6c80c92926a4b)
REM AIRSS Version 0.9.1 bugfix July 2018 build 013d7b7c2542+ Fri, 06 Jul 2018 19:26:36 +0100
REM compiler GCC version 9.2.1 20190827 (Red Hat 9.2.1-1)
REM options -cpp -mtune=generic -march=x86-64 -g -O0 -fpre-include=/usr/include/finclude/math-vector-fortran.h
REM seed 65711818 -1352348496 -411508764 -267249436 -1207174082 1637368209 1360533742 1732844121 -1950516838 944537884 930701614 -1394547121 243154905 -222683555 1231633055 -358256568 977833932 -1680713683 1767657027 710889415 1352869403 -1691109519 -342807580 1687411663 -237515955 1148610163 -539172249 -1674786356 827940707 -1819090468 976305329 -499417531 -221762901
REM
CELL 1.54180   50.00000   50.00000   50.00000   90.00000   90.00000   90.00000
LATT -1
SFAC C  
C      1  0.5256050000000  0.5478870000000  0.5083910000000 1.0
C      1  0.5074460000000  0.5864000000000  0.4846540000000 1.0
C      1  0.4723530000000  0.4789530000000  0.5268920000000 1.0
C      1  0.4877390000000  0.4630330000000  0.4366180000000 1.0
C      1  0.4275020000000  0.4581540000000  0.5167870000000 1.0
C      1  0.4919980000000  0.5019180000000  0.4702080000000 1.0
C      1  0.3980070000000  0.5010320000000  0.5225070000000 1.0
C      1  0.5227000000000  0.6657700000000  0.4167490000000 1.0
C      1  0.5633400000000  0.3926600000000  0.5610910000000 1.0
C      1  0.5374790000000  0.4256780000000  0.5271670000000 1.0
C      1  0.5189180000000  0.6461700000000  0.4335160000000 1.0
C      1  0.4791360000000  0.5609820000000  0.5148020000000 1.0
C      1  0.5150720000000  0.6262410000000  0.4505650000000 1.0
C      1  0.4932530000000  0.4357230000000  0.4339300000000 1.0
C      1  0.4872210000000  0.4864640000000  0.4491110000000 1.0
C      1  0.5236080000000  0.4777930000000  0.5281100000000 1.0
C      1  0.3717380000000  0.5082320000000  0.5209470000000 1.0
C      1  0.5802230000000  0.4957440000000  0.5508630000000 1.0
C      1  0.4800870000000  0.4093820000000  0.3887120000000 1.0
C      1  0.5623320000000  0.5120030000000  0.5371910000000 1.0
C      1  0.5507230000000  0.4084670000000  0.5446540000000 1.0
C      1  0.5283010000000  0.4166300000000  0.5022980000000 1.0
C      1  0.4864430000000  0.4221110000000  0.4105480000000 1.0
C      1  0.4064170000000  0.4745850000000  0.5176760000000 1.0
C      1  0.5330980000000  0.4524650000000  0.5340010000000 1.0
C      1  0.5387530000000  0.5022320000000  0.5249050000000 1.0
C      1  0.5040340000000  0.5653100000000  0.5026060000000 1.0
C      1  0.5231410000000  0.5196750000000  0.5067140000000 1.0
C      1  0.5495160000000  0.5565160000000  0.5208860000000 1.0
C      1  0.4540800000000  0.4586580000000  0.5204060000000 1.0
C      1  0.5960470000000  0.4791940000000  0.5633080000000 1.0
C      1  0.4455180000000  0.5241730000000  0.5328270000000 1.0
C      1  0.4613400000000  0.5018120000000  0.5392960000000 1.0
C      1  0.5112280000000  0.6063170000000  0.4676080000000 1.0
C      1  0.5662550000000  0.5399300000000  0.5342400000000 1.0
C      1  0.5057200000000  0.4222820000000  0.4551000000000 1.0
C      1  0.4586290000000  0.5477130000000  0.5253360000000 1.0
C      1  0.5174360000000  0.4161000000000  0.4780920000000 1.0
C      1  0.4180930000000  0.5196810000000  0.5290320000000 1.0
C      1  0.5016710000000  0.5037370000000  0.4960880000000 1.0
C      1  0.4978000000000  0.4821900000000  0.5155700000000 1.0
END
