TITL C-247197-3123-436 -4.83546251886483e-07 125000 -112.43965057307 0 0 20 (C1) n - 1
REM
REM in /home/nfs/bkarasulu/CARBON/AIRSS/Generating-Clusters/LCBOP/Only-C1/SD-CG/FIRE-HFTN
REM
REM
REM
REM
REM
REM ./C.cell (11c1c37f851c82e70ff6c80c92926a4b)
REM AIRSS Version 0.9.1 bugfix July 2018 build 013d7b7c2542+ Fri, 06 Jul 2018 19:26:36 +0100
REM compiler GCC version 9.2.1 20190827 (Red Hat 9.2.1-1)
REM options -cpp -mtune=generic -march=x86-64 -g -O0 -fpre-include=/usr/include/finclude/math-vector-fortran.h
REM seed 1587119423 1970710239 1300019188 -1469550649 -1034521769 1950788689 -1821630711 -776293096 1975345794 -842858551 383206058 -1579390270 10704832 -581094736 -847354594 -624937647 1325567537 -989039303 -1937151529 -1010505163 -1385341219 -251031901 -1770612742 960217835 -1519050285 -748443040 -612918797 148739487 -1966099099 -1885362260 165184912 922096988 -1453925300
REM
CELL 1.54180   50.00000   50.00000   50.00000   90.00000   90.00000   90.00000
LATT -1
SFAC C  
C      1  0.5394170000000  0.5205560000000  0.5152690000000 1.0
C      1  0.5353010000000  0.5326950000000  0.4919750000000 1.0
C      1  0.4916530000000  0.5033210000000  0.5619130000000 1.0
C      1  0.4347200000000  0.5014170000000  0.5127250000000 1.0
C      1  0.4741130000000  0.4947230000000  0.4764950000000 1.0
C      1  0.4458100000000  0.5033840000000  0.5383850000000 1.0
C      1  0.5168550000000  0.5012900000000  0.5536080000000 1.0
C      1  0.5317840000000  0.4574900000000  0.4978360000000 1.0
C      1  0.5408000000000  0.4319230000000  0.4949160000000 1.0
C      1  0.5138270000000  0.5118320000000  0.4535450000000 1.0
C      1  0.5008480000000  0.4916440000000  0.4688800000000 1.0
C      1  0.5172080000000  0.5085100000000  0.4265730000000 1.0
C      1  0.5380940000000  0.4730010000000  0.5203920000000 1.0
C      1  0.5156530000000  0.4698740000000  0.4784860000000 1.0
C      1  0.4521790000000  0.4979690000000  0.4910610000000 1.0
C      1  0.5210170000000  0.5598440000000  0.4549480000000 1.0
C      1  0.4077040000000  0.5028160000000  0.5089280000000 1.0
C      1  0.4657550000000  0.5040580000000  0.5559200000000 1.0
C      1  0.5337040000000  0.4984080000000  0.5314900000000 1.0
C      1  0.5235560000000  0.5352440000000  0.4666540000000 1.0
END
