TITL C-247202-1916-738 1.34234538427518 125000 -344.774440863146 0 0 59 (C1) n - 1
REM
REM in /home/nfs/bkarasulu/CARBON/AIRSS/Generating-Clusters/LCBOP/Only-C1/SD-CG/FIRE-HFTN
REM
REM
REM
REM
REM
REM ./C.cell (11c1c37f851c82e70ff6c80c92926a4b)
REM AIRSS Version 0.9.1 bugfix July 2018 build 013d7b7c2542+ Fri, 06 Jul 2018 19:26:36 +0100
REM compiler GCC version 9.2.1 20190827 (Red Hat 9.2.1-1)
REM options -cpp -mtune=generic -march=x86-64 -g -O0 -fpre-include=/usr/include/finclude/math-vector-fortran.h
REM seed -2053542836 1227937504 -938541116 -278086976 -65855419 -1925470739 1985031279 661689005 36219933 1371275561 -925876554 -1983752557 367253134 -1834758381 1952608291 461374999 -36210213 1440736965 219431364 804647854 1081323443 -2075965926 -1866839937 1452465761 -200871219 1939768584 -847453914 793303455 553457202 1149813128 1980798220 -1188528510 1500382403
REM
CELL 1.54180   50.00000   50.00000   50.00000   90.00000   90.00000   90.00000
LATT -1
SFAC C  
C      1  0.5122570000000  0.4254410000000  0.4453310000000 1.0
C      1  0.5305450000000  0.6406810000000  0.4350980000000 1.0
C      1  0.4869010000000  0.4215370000000  0.4381850000000 1.0
C      1  0.6325410000000  0.5734960000000  0.5442440000000 1.0
C      1  0.4497810000000  0.4561930000000  0.4454300000000 1.0
C      1  0.4486270000000  0.4291340000000  0.5985670000000 1.0
C      1  0.4372280000000  0.4585530000000  0.4707900000000 1.0
C      1  0.4627400000000  0.4328180000000  0.4374700000000 1.0
C      1  0.5798340000000  0.5049540000000  0.5636780000000 1.0
C      1  0.4950110000000  0.5003090000000  0.4891220000000 1.0
C      1  0.5490040000000  0.5835900000000  0.4788240000000 1.0
C      1  0.5719760000000  0.5852280000000  0.4946380000000 1.0
C      1  0.4577650000000  0.4814290000000  0.4347700000000 1.0
C      1  0.4260430000000  0.4707240000000  0.5343330000000 1.0
C      1  0.5121020000000  0.4628610000000  0.5839490000000 1.0
C      1  0.5148220000000  0.6459470000000  0.4574870000000 1.0
C      1  0.5451640000000  0.6172780000000  0.4397310000000 1.0
C      1  0.4002690000000  0.4341790000000  0.4934840000000 1.0
C      1  0.4499750000000  0.4776950000000  0.4901850000000 1.0
C      1  0.4024880000000  0.4310670000000  0.5202690000000 1.0
C      1  0.4287340000000  0.4838280000000  0.5094640000000 1.0
C      1  0.3616770000000  0.5048880000000  0.4929020000000 1.0
C      1  0.5932330000000  0.5840910000000  0.5104000000000 1.0
C      1  0.3994370000000  0.5244700000000  0.4699230000000 1.0
C      1  0.5193400000000  0.6259280000000  0.4765060000000 1.0
C      1  0.5163670000000  0.4783990000000  0.5628660000000 1.0
C      1  0.4208620000000  0.5334010000000  0.4567480000000 1.0
C      1  0.5255100000000  0.5348720000000  0.4732710000000 1.0
C      1  0.3878590000000  0.5039180000000  0.4852500000000 1.0
C      1  0.5851410000000  0.4829730000000  0.5471950000000 1.0
C      1  0.6509070000000  0.5665040000000  0.5613730000000 1.0
C      1  0.5389260000000  0.6064590000000  0.4663670000000 1.0
C      1  0.4740830000000  0.4344820000000  0.6038400000000 1.0
C      1  0.5309030000000  0.4418400000000  0.4548180000000 1.0
C      1  0.5732990000000  0.5184790000000  0.5208810000000 1.0
C      1  0.5627980000000  0.4686510000000  0.4798170000000 1.0
C      1  0.4456700000000  0.5265580000000  0.4493630000000 1.0
C      1  0.5007570000000  0.4966770000000  0.5162070000000 1.0
C      1  0.5268670000000  0.4955720000000  0.4265750000000 1.0
C      1  0.3800450000000  0.4443920000000  0.5777480000000 1.0
C      1  0.5161290000000  0.5085870000000  0.4718900000000 1.0
C      1  0.4692220000000  0.4953870000000  0.4787630000000 1.0
C      1  0.5111480000000  0.4901440000000  0.5396780000000 1.0
C      1  0.6099980000000  0.4646930000000  0.4894740000000 1.0
C      1  0.5407290000000  0.4667750000000  0.4628910000000 1.0
C      1  0.5725930000000  0.5265620000000  0.5476550000000 1.0
C      1  0.5278630000000  0.4903740000000  0.4534630000000 1.0
C      1  0.5846940000000  0.4745040000000  0.4961220000000 1.0
C      1  0.4120200000000  0.4470480000000  0.5417140000000 1.0
C      1  0.4970720000000  0.4467820000000  0.5988030000000 1.0
C      1  0.4616450000000  0.5036860000000  0.4521010000000 1.0
C      1  0.4044400000000  0.4823810000000  0.4923870000000 1.0
C      1  0.4091760000000  0.4564980000000  0.4786570000000 1.0
C      1  0.5361390000000  0.5590140000000  0.4755030000000 1.0
C      1  0.6134570000000  0.5799210000000  0.5270080000000 1.0
C      1  0.5813370000000  0.4902500000000  0.5189430000000 1.0
C      1  0.4055950000000  0.4408780000000  0.5685850000000 1.0
C      1  0.4255560000000  0.4314010000000  0.5857060000000 1.0
C      1  0.6337040000000  0.4556230000000  0.4835600000000 1.0
END
