TITL C-247198-3593-669 -9.75811376275364e-07 125000 -555.324726374137 0 0 91 (C1) n - 1
REM
REM in /home/nfs/bkarasulu/CARBON/AIRSS/Generating-Clusters/LCBOP/Only-C1/SD-CG/FIRE-HFTN
REM
REM
REM
REM
REM
REM ./C.cell (11c1c37f851c82e70ff6c80c92926a4b)
REM AIRSS Version 0.9.1 bugfix July 2018 build 013d7b7c2542+ Fri, 06 Jul 2018 19:26:36 +0100
REM compiler GCC version 9.2.1 20190827 (Red Hat 9.2.1-1)
REM options -cpp -mtune=generic -march=x86-64 -g -O0 -fpre-include=/usr/include/finclude/math-vector-fortran.h
REM seed 1199830755 593734133 -1027729412 -428029264 -419441370 1406253990 786990720 -66113636 -1929130765 -1978343472 866443494 -1314009940 1254309783 -1369060913 1424651994 628722261 -915832618 1073580632 -205861559 1079391499 -977640123 -1691547653 -832710509 1077200656 -796139414 -1545250202 704906777 1734821952 2137471098 758993802 -1376522357 -1520782511 799534623
REM
CELL 1.54180   50.00000   50.00000   50.00000   90.00000   90.00000   90.00000
LATT -1
SFAC C  
C      1  0.5323010000000  0.4768000000000  0.5747290000000 1.0
C      1  0.5306740000000  0.5089250000000  0.4183420000000 1.0
C      1  0.5628460000000  0.4866040000000  0.5323210000000 1.0
C      1  0.5548730000000  0.4344540000000  0.4510600000000 1.0
C      1  0.4320720000000  0.5542230000000  0.4722540000000 1.0
C      1  0.5243270000000  0.5105730000000  0.5445050000000 1.0
C      1  0.5748070000000  0.4837940000000  0.5051520000000 1.0
C      1  0.4701210000000  0.5777040000000  0.4429030000000 1.0
C      1  0.5176500000000  0.4833730000000  0.4080930000000 1.0
C      1  0.5496350000000  0.4164030000000  0.5388670000000 1.0
C      1  0.4891420000000  0.4206330000000  0.4414170000000 1.0
C      1  0.4722010000000  0.5255290000000  0.4814460000000 1.0
C      1  0.5164190000000  0.4805340000000  0.5051590000000 1.0
C      1  0.4291350000000  0.4327330000000  0.5668290000000 1.0
C      1  0.5749550000000  0.5614920000000  0.5366720000000 1.0
C      1  0.4252470000000  0.4991120000000  0.4716310000000 1.0
C      1  0.4383820000000  0.4749160000000  0.5417400000000 1.0
C      1  0.5172340000000  0.5516290000000  0.4958260000000 1.0
C      1  0.4259020000000  0.4525180000000  0.4902300000000 1.0
C      1  0.5733990000000  0.5214840000000  0.4445280000000 1.0
C      1  0.5288330000000  0.5263240000000  0.4890470000000 1.0
C      1  0.4372230000000  0.5746260000000  0.4927400000000 1.0
C      1  0.4715870000000  0.4261220000000  0.4896150000000 1.0
C      1  0.4780050000000  0.5281960000000  0.5086250000000 1.0
C      1  0.5833780000000  0.5212280000000  0.4694930000000 1.0
C      1  0.5843680000000  0.5077160000000  0.4927050000000 1.0
C      1  0.4592630000000  0.5654670000000  0.5408140000000 1.0
C      1  0.4729570000000  0.4904650000000  0.5723760000000 1.0
C      1  0.4912120000000  0.4464400000000  0.5804390000000 1.0
C      1  0.4695030000000  0.4824660000000  0.5015390000000 1.0
C      1  0.5626650000000  0.4183710000000  0.4733310000000 1.0
C      1  0.5735680000000  0.4620760000000  0.4863260000000 1.0
C      1  0.5159530000000  0.4580700000000  0.5892890000000 1.0
C      1  0.5189050000000  0.5032720000000  0.5715920000000 1.0
C      1  0.5018280000000  0.5985330000000  0.4742000000000 1.0
C      1  0.4749640000000  0.5956330000000  0.4645860000000 1.0
C      1  0.4739300000000  0.4009330000000  0.4336520000000 1.0
C      1  0.5171520000000  0.5751760000000  0.4801900000000 1.0
C      1  0.5114280000000  0.4936300000000  0.4586860000000 1.0
C      1  0.4864450000000  0.5697320000000  0.5327780000000 1.0
C      1  0.5331860000000  0.4394410000000  0.4330280000000 1.0
C      1  0.5055010000000  0.4055130000000  0.5520770000000 1.0
C      1  0.5610370000000  0.4765910000000  0.4318150000000 1.0
C      1  0.5130280000000  0.5162090000000  0.4397240000000 1.0
C      1  0.4617610000000  0.4870970000000  0.4283780000000 1.0
C      1  0.4204030000000  0.5277060000000  0.4740560000000 1.0
C      1  0.5516890000000  0.5128310000000  0.5374680000000 1.0
C      1  0.5146620000000  0.6296070000000  0.5113610000000 1.0
C      1  0.5069030000000  0.4972790000000  0.5267500000000 1.0
C      1  0.5254020000000  0.4036040000000  0.5315050000000 1.0
C      1  0.4999640000000  0.4691040000000  0.4476390000000 1.0
C      1  0.5150900000000  0.4064980000000  0.5048530000000 1.0
C      1  0.4591940000000  0.4980580000000  0.5466430000000 1.0
C      1  0.5526580000000  0.4678420000000  0.5533850000000 1.0
C      1  0.4194610000000  0.4882170000000  0.5225950000000 1.0
C      1  0.5658330000000  0.5366600000000  0.5381470000000 1.0
C      1  0.4179750000000  0.5152380000000  0.5337310000000 1.0
C      1  0.4192050000000  0.4803690000000  0.4946350000000 1.0
C      1  0.5104130000000  0.6227240000000  0.4857290000000 1.0
C      1  0.4950740000000  0.4312010000000  0.5569660000000 1.0
C      1  0.4563740000000  0.5443330000000  0.5598110000000 1.0
C      1  0.4945850000000  0.5369410000000  0.4387470000000 1.0
C      1  0.4919080000000  0.5105180000000  0.5797080000000 1.0
C      1  0.4528700000000  0.5967440000000  0.4826880000000 1.0
C      1  0.4676950000000  0.4629430000000  0.5781390000000 1.0
C      1  0.5109320000000  0.6159370000000  0.5341450000000 1.0
C      1  0.5672300000000  0.4619480000000  0.4565050000000 1.0
C      1  0.4956610000000  0.5498950000000  0.5147200000000 1.0
C      1  0.4521560000000  0.5555550000000  0.4514590000000 1.0
C      1  0.4898200000000  0.4792210000000  0.4212540000000 1.0
C      1  0.5735160000000  0.4339210000000  0.4933460000000 1.0
C      1  0.5389170000000  0.4628380000000  0.4162680000000 1.0
C      1  0.5072090000000  0.4415820000000  0.4443260000000 1.0
C      1  0.4787790000000  0.5365090000000  0.5772330000000 1.0
C      1  0.4976330000000  0.4485510000000  0.5349160000000 1.0
C      1  0.5227090000000  0.4984460000000  0.4837660000000 1.0
C      1  0.4409860000000  0.5223640000000  0.5498870000000 1.0
C      1  0.4457420000000  0.4340600000000  0.4894310000000 1.0
C      1  0.5072280000000  0.4535120000000  0.5085070000000 1.0
C      1  0.4995660000000  0.4286720000000  0.4952690000000 1.0
C      1  0.4774770000000  0.5019890000000  0.5234750000000 1.0
C      1  0.4651180000000  0.4778790000000  0.4756730000000 1.0
C      1  0.5580660000000  0.5049080000000  0.4278880000000 1.0
C      1  0.4922010000000  0.5641620000000  0.4294790000000 1.0
C      1  0.4395370000000  0.5705460000000  0.5207620000000 1.0
C      1  0.5817210000000  0.5865080000000  0.5338460000000 1.0
C      1  0.5572750000000  0.4400830000000  0.5491510000000 1.0
C      1  0.5008090000000  0.5921690000000  0.5409630000000 1.0
C      1  0.4439720000000  0.4551440000000  0.5624550000000 1.0
C      1  0.4482390000000  0.4884180000000  0.4547930000000 1.0
C      1  0.4711410000000  0.5340040000000  0.4551820000000 1.0
END
