TITL C-247195-3186-682 50509.0816224933 125000 -839.691544710779 0 0 138 (C1) n - 1
REM
REM in /home/nfs/bkarasulu/CARBON/AIRSS/Generating-Clusters/LCBOP/Only-C1/SD-CG/FIRE-HFTN
REM
REM
REM
REM
REM
REM ./C.cell (11c1c37f851c82e70ff6c80c92926a4b)
REM AIRSS Version 0.9.1 bugfix July 2018 build 013d7b7c2542+ Fri, 06 Jul 2018 19:26:36 +0100
REM compiler GCC version 9.2.1 20190827 (Red Hat 9.2.1-1)
REM options -cpp -mtune=generic -march=x86-64 -g -O0 -fpre-include=/usr/include/finclude/math-vector-fortran.h
REM seed 1781331196 -1182742434 2101670364 -780760978 -602305671 -804750593 -526492100 -1746474099 -217585426 -491306389 598975453 -1694620569 1178973113 904760987 -1804954495 1233575100 684846217 1177974234 -922782959 -1316727302 1791386391 1958100388 -1323578658 -1147499592 -208592995 478042959 1869663404 -651205211 -243734688 2034237270 -1144861380 -907247324 -957584046
REM
CELL 1.54180   50.00000   50.00000   50.00000   90.00000   90.00000   90.00000
LATT -1
SFAC C  
C      1  0.5823540000000  0.4947170000000  0.4839000000000 1.0
C      1  0.4976170000000  0.4335960000000  0.5324570000000 1.0
C      1  0.4665140000000  0.4953150000000  0.4468940000000 1.0
C      1  0.4481720000000  0.4916250000000  0.5227330000000 1.0
C      1  0.4479820000000  0.5161930000000  0.5989160000000 1.0
C      1  0.4125450000000  0.5437710000000  0.5322040000000 1.0
C      1  0.4101250000000  0.5158550000000  0.5396170000000 1.0
C      1  0.5046400000000  0.4514300000000  0.4865500000000 1.0
C      1  0.5427050000000  0.5669590000000  0.4131810000000 1.0
C      1  0.5944130000000  0.5174410000000  0.5737310000000 1.0
C      1  0.5814920000000  0.4936640000000  0.5711350000000 1.0
C      1  0.3919590000000  0.4332860000000  0.4963500000000 1.0
C      1  0.5222060000000  0.5541530000000  0.4003280000000 1.0
C      1  0.4801660000000  0.4916830000000  0.5074490000000 1.0
C      1  0.5809520000000  0.5537720000000  0.4501090000000 1.0
C      1  0.5107840000000  0.5295840000000  0.3984510000000 1.0
C      1  0.5871540000000  0.4389700000000  0.4987190000000 1.0
C      1  0.5581760000000  0.4832520000000  0.4856140000000 1.0
C      1  0.4512230000000  0.4879120000000  0.5966270000000 1.0
C      1  0.4595970000000  0.6798600000000  0.4731450000000 1.0
C      1  0.4544830000000  0.4908670000000  0.5498350000000 1.0
C      1  0.5199220000000  0.3145560000000  0.4506570000000 1.0
C      1  0.4394120000000  0.4323720000000  0.4876850000000 1.0
C      1  0.4721450000000  0.6371000000000  0.5010360000000 1.0
C      1  0.5728320000000  0.4843090000000  0.4386000000000 1.0
C      1  0.4792850000000  0.4164550000000  0.4184440000000 1.0
C      1  0.4493470000000  0.4735660000000  0.5717280000000 1.0
C      1  0.4304850000000  0.4696320000000  0.4331390000000 1.0
C      1  0.5345910000000  0.4540840000000  0.3744750000000 1.0
C      1  0.4945690000000  0.5386320000000  0.5920690000000 1.0
C      1  0.5152930000000  0.4483020000000  0.5137930000000 1.0
C      1  0.4242240000000  0.5235500000000  0.4390320000000 1.0
C      1  0.5221960000000  0.5493990000000  0.4999570000000 1.0
C      1  0.4407200000000  0.4281330000000  0.4597050000000 1.0
C      1  0.5291620000000  0.5051520000000  0.4555740000000 1.0
C      1  0.5855860000000  0.4458070000000  0.4723270000000 1.0
C      1  0.5009650000000  0.5074170000000  0.4135830000000 1.0
C      1  0.5269100000000  0.5704910000000  0.4820800000000 1.0
C      1  0.5258080000000  0.4731220000000  0.5256400000000 1.0
C      1  0.5956550000000  0.5036150000000  0.4379950000000 1.0
C      1  0.5499740000000  0.5030790000000  0.4352590000000 1.0
C      1  0.4635140000000  0.3966400000000  0.4312930000000 1.0
C      1  0.4527840000000  0.5629220000000  0.5929120000000 1.0
C      1  0.4763920000000  0.4432640000000  0.4295460000000 1.0
C      1  0.4776160000000  0.4658290000000  0.4897190000000 1.0
C      1  0.4848790000000  0.5162140000000  0.4375320000000 1.0
C      1  0.5576060000000  0.5890780000000  0.5187200000000 1.0
C      1  0.4563590000000  0.5880550000000  0.6024090000000 1.0
C      1  0.5641580000000  0.5786740000000  0.5792060000000 1.0
C      1  0.4801680000000  0.5350090000000  0.5460420000000 1.0
C      1  0.5441010000000  0.4426310000000  0.4486100000000 1.0
C      1  0.5251340000000  0.4711330000000  0.3925860000000 1.0
C      1  0.4611600000000  0.4440480000000  0.5018660000000 1.0
C      1  0.4344300000000  0.5639140000000  0.4671090000000 1.0
C      1  0.5003380000000  0.4603020000000  0.4344620000000 1.0
C      1  0.3824820000000  0.4566710000000  0.4874220000000 1.0
C      1  0.5027720000000  0.4881180000000  0.5317520000000 1.0
C      1  0.4173430000000  0.4245300000000  0.5042010000000 1.0
C      1  0.5267260000000  0.3389720000000  0.4445530000000 1.0
C      1  0.4068370000000  0.5024040000000  0.4939590000000 1.0
C      1  0.4869190000000  0.5894640000000  0.5226700000000 1.0
C      1  0.5091610000000  0.4260580000000  0.5569700000000 1.0
C      1  0.4425530000000  0.5367340000000  0.4217540000000 1.0
C      1  0.5734010000000  0.5723680000000  0.4722950000000 1.0
C      1  0.4678170000000  0.5386840000000  0.6002290000000 1.0
C      1  0.5074210000000  0.5876560000000  0.5441470000000 1.0
C      1  0.6031310000000  0.5410800000000  0.5636260000000 1.0
C      1  0.5571840000000  0.5252070000000  0.4199440000000 1.0
C      1  0.5342770000000  0.4823490000000  0.4712280000000 1.0
C      1  0.5347320000000  0.5927140000000  0.5337380000000 1.0
C      1  0.4656880000000  0.6587720000000  0.4872100000000 1.0
C      1  0.4606020000000  0.5519960000000  0.5343430000000 1.0
C      1  0.5669770000000  0.4758830000000  0.5540350000000 1.0
C      1  0.3899500000000  0.4821560000000  0.4849430000000 1.0
C      1  0.4071160000000  0.5111450000000  0.5675820000000 1.0
C      1  0.5116730000000  0.5058960000000  0.5848170000000 1.0
C      1  0.5588540000000  0.5117130000000  0.5235550000000 1.0
C      1  0.4273620000000  0.5855130000000  0.4516360000000 1.0
C      1  0.5373210000000  0.5172490000000  0.5776740000000 1.0
C      1  0.5197980000000  0.4576150000000  0.4608960000000 1.0
C      1  0.5025980000000  0.5673130000000  0.5664330000000 1.0
C      1  0.4688780000000  0.5391180000000  0.4279220000000 1.0
C      1  0.5958210000000  0.5286920000000  0.4540520000000 1.0
C      1  0.4246070000000  0.4185920000000  0.5309760000000 1.0
C      1  0.5733880000000  0.4482410000000  0.5485160000000 1.0
C      1  0.5532930000000  0.5596820000000  0.5648700000000 1.0
C      1  0.4208560000000  0.4951660000000  0.4350730000000 1.0
C      1  0.5970320000000  0.5591770000000  0.5154780000000 1.0
C      1  0.4345900000000  0.5557620000000  0.5458520000000 1.0
C      1  0.4736680000000  0.5099400000000  0.5558510000000 1.0
C      1  0.4213250000000  0.4991600000000  0.5183570000000 1.0
C      1  0.4326070000000  0.5537130000000  0.5745170000000 1.0
C      1  0.5079170000000  0.5437640000000  0.5511130000000 1.0
C      1  0.4057910000000  0.5296910000000  0.4853940000000 1.0
C      1  0.4446640000000  0.4017890000000  0.4499810000000 1.0
C      1  0.4735500000000  0.5639160000000  0.5097940000000 1.0
C      1  0.5467190000000  0.5820960000000  0.4683980000000 1.0
C      1  0.4939030000000  0.4093820000000  0.3958610000000 1.0
C      1  0.4986080000000  0.4971590000000  0.5588400000000 1.0
C      1  0.5355790000000  0.5385590000000  0.5595760000000 1.0
C      1  0.5081280000000  0.4795190000000  0.4132960000000 1.0
C      1  0.4461630000000  0.4311360000000  0.5452900000000 1.0
C      1  0.5495110000000  0.4866600000000  0.5340740000000 1.0
C      1  0.4653160000000  0.4774300000000  0.4659310000000 1.0
C      1  0.4018970000000  0.5485710000000  0.5066110000000 1.0
C      1  0.4790400000000  0.6146190000000  0.5132210000000 1.0
C      1  0.5419190000000  0.5315100000000  0.5110490000000 1.0
C      1  0.5960360000000  0.5195640000000  0.4807420000000 1.0
C      1  0.3934810000000  0.4633790000000  0.5820720000000 1.0
C      1  0.5918810000000  0.4465330000000  0.5259730000000 1.0
C      1  0.5334410000000  0.3641680000000  0.4397950000000 1.0
C      1  0.5628670000000  0.5522490000000  0.4271220000000 1.0
C      1  0.5565940000000  0.4310810000000  0.5633610000000 1.0
C      1  0.5152410000000  0.4800870000000  0.5994400000000 1.0
C      1  0.6040380000000  0.5592170000000  0.5432710000000 1.0
C      1  0.3919860000000  0.4897660000000  0.5774840000000 1.0
C      1  0.5419110000000  0.4162760000000  0.4398820000000 1.0
C      1  0.4487830000000  0.4484390000000  0.4402020000000 1.0
C      1  0.5034380000000  0.5166890000000  0.4614160000000 1.0
C      1  0.6071200000000  0.4933760000000  0.5294240000000 1.0
C      1  0.5784430000000  0.5763370000000  0.5019150000000 1.0
C      1  0.4539840000000  0.5676110000000  0.4873880000000 1.0
C      1  0.4945320000000  0.5425460000000  0.5011240000000 1.0
C      1  0.5881250000000  0.5136600000000  0.5235930000000 1.0
C      1  0.5295880000000  0.4288830000000  0.3670210000000 1.0
C      1  0.4691270000000  0.4352700000000  0.5282250000000 1.0
C      1  0.4383790000000  0.4477340000000  0.5673240000000 1.0
C      1  0.5390280000000  0.3900100000000  0.4380120000000 1.0
C      1  0.5301430000000  0.4351730000000  0.5735720000000 1.0
C      1  0.5698530000000  0.4566310000000  0.4503890000000 1.0
C      1  0.5120980000000  0.4110290000000  0.3765320000000 1.0
C      1  0.5238750000000  0.4551470000000  0.5929550000000 1.0
C      1  0.6118020000000  0.4669030000000  0.5282730000000 1.0
C      1  0.5980790000000  0.5331860000000  0.5050050000000 1.0
C      1  0.4203180000000  0.5387290000000  0.4631580000000 1.0
C      1  0.4901810000000  0.5171560000000  0.4885610000000 1.0
C      1  0.4125490000000  0.4446440000000  0.5786560000000 1.0
C      1  0.4246360000000  0.5268290000000  0.5838690000000 1.0
END
