TITL C-247200-3482-597 2.19785867635981e-07 125000 -982.281055763676 0 0 162 (C1) n - 1
REM
REM in /home/nfs/bkarasulu/CARBON/AIRSS/Generating-Clusters/LCBOP/Only-C1/SD-CG/FIRE-HFTN
REM
REM
REM
REM
REM
REM ./C.cell (11c1c37f851c82e70ff6c80c92926a4b)
REM AIRSS Version 0.9.1 bugfix July 2018 build 013d7b7c2542+ Fri, 06 Jul 2018 19:26:36 +0100
REM compiler GCC version 9.2.1 20190827 (Red Hat 9.2.1-1)
REM options -cpp -mtune=generic -march=x86-64 -g -O0 -fpre-include=/usr/include/finclude/math-vector-fortran.h
REM seed -723855276 859329239 -1793849951 -795052418 -2006941505 -634599309 -378449615 1993768214 1892696708 14193730 1846690015 1702351466 -1770988942 -129096972 1446100966 -1403032197 359238194 -1413978039 -993303514 -610142388 329220456 -1892562768 20484840 -1794679432 265255421 186989373 -852702401 166856847 1262428653 -960034185 -146611965 2003425173 -1838657222
REM
CELL 1.54180   50.00000   50.00000   50.00000   90.00000   90.00000   90.00000
LATT -1
SFAC C  
C      1  0.4234130000000  0.5718970000000  0.4812070000000 1.0
C      1  0.4841270000000  0.5345480000000  0.5311340000000 1.0
C      1  0.4424980000000  0.4659330000000  0.4367650000000 1.0
C      1  0.5220080000000  0.4006440000000  0.5755150000000 1.0
C      1  0.4928850000000  0.5371340000000  0.5007260000000 1.0
C      1  0.5195660000000  0.4101220000000  0.4449560000000 1.0
C      1  0.4596980000000  0.6160810000000  0.4777930000000 1.0
C      1  0.4251960000000  0.5109050000000  0.5630520000000 1.0
C      1  0.4648430000000  0.4472320000000  0.4697220000000 1.0
C      1  0.5570460000000  0.5161670000000  0.5355780000000 1.0
C      1  0.4415740000000  0.4430760000000  0.5321660000000 1.0
C      1  0.5184300000000  0.5327320000000  0.6201840000000 1.0
C      1  0.5744850000000  0.5966310000000  0.5677610000000 1.0
C      1  0.5492330000000  0.5387890000000  0.4948640000000 1.0
C      1  0.5060610000000  0.5130040000000  0.5714150000000 1.0
C      1  0.5905780000000  0.5586820000000  0.5064950000000 1.0
C      1  0.4647130000000  0.4844390000000  0.4304860000000 1.0
C      1  0.4105340000000  0.4238640000000  0.4809260000000 1.0
C      1  0.4434750000000  0.5743840000000  0.4584720000000 1.0
C      1  0.5005070000000  0.3953830000000  0.5568820000000 1.0
C      1  0.4624270000000  0.4972620000000  0.4785480000000 1.0
C      1  0.4792470000000  0.5488880000000  0.4311920000000 1.0
C      1  0.6300060000000  0.5226470000000  0.4369640000000 1.0
C      1  0.5607800000000  0.5145080000000  0.4475920000000 1.0
C      1  0.4834190000000  0.5063720000000  0.3788010000000 1.0
C      1  0.5216740000000  0.5414860000000  0.4948750000000 1.0
C      1  0.5401390000000  0.5294450000000  0.5989830000000 1.0
C      1  0.4573010000000  0.4949300000000  0.3836810000000 1.0
C      1  0.4881380000000  0.5940140000000  0.4440010000000 1.0
C      1  0.5409800000000  0.4564660000000  0.4971440000000 1.0
C      1  0.4293280000000  0.4642840000000  0.6153460000000 1.0
C      1  0.5806930000000  0.5301540000000  0.5450650000000 1.0
C      1  0.4276830000000  0.4034210000000  0.4834740000000 1.0
C      1  0.4489790000000  0.5666250000000  0.5706990000000 1.0
C      1  0.4861420000000  0.5332300000000  0.3711730000000 1.0
C      1  0.5364350000000  0.4271090000000  0.4287050000000 1.0
C      1  0.5122780000000  0.6005440000000  0.4574050000000 1.0
C      1  0.5742010000000  0.4936130000000  0.4974440000000 1.0
C      1  0.5615140000000  0.4120930000000  0.5136440000000 1.0
C      1  0.6015940000000  0.5094540000000  0.5405110000000 1.0
C      1  0.5185660000000  0.4577650000000  0.6201250000000 1.0
C      1  0.4393810000000  0.5520640000000  0.5479150000000 1.0
C      1  0.5484730000000  0.4941080000000  0.4624910000000 1.0
C      1  0.4740280000000  0.4049430000000  0.5547090000000 1.0
C      1  0.6131530000000  0.5135450000000  0.5136560000000 1.0
C      1  0.5851520000000  0.5571600000000  0.5355560000000 1.0
C      1  0.5287270000000  0.5063060000000  0.3994070000000 1.0
C      1  0.6156480000000  0.4899860000000  0.4698010000000 1.0
C      1  0.4094550000000  0.4583760000000  0.5678350000000 1.0
C      1  0.5171770000000  0.5589440000000  0.5635130000000 1.0
C      1  0.4497100000000  0.4463020000000  0.6083360000000 1.0
C      1  0.5077500000000  0.6026830000000  0.3878990000000 1.0
C      1  0.4431210000000  0.5165110000000  0.4723040000000 1.0
C      1  0.5884820000000  0.4576690000000  0.5367350000000 1.0
C      1  0.5206800000000  0.4388810000000  0.5077620000000 1.0
C      1  0.5465270000000  0.4032870000000  0.5626980000000 1.0
C      1  0.4010710000000  0.4484600000000  0.4910580000000 1.0
C      1  0.4726310000000  0.5865170000000  0.5127060000000 1.0
C      1  0.4350840000000  0.5105780000000  0.3937780000000 1.0
C      1  0.4383360000000  0.4878600000000  0.6297220000000 1.0
C      1  0.4678380000000  0.4187490000000  0.4327940000000 1.0
C      1  0.5150590000000  0.3904970000000  0.5315870000000 1.0
C      1  0.5756230000000  0.4908920000000  0.4122750000000 1.0
C      1  0.5802710000000  0.4886340000000  0.5808230000000 1.0
C      1  0.5492950000000  0.5981310000000  0.5765670000000 1.0
C      1  0.4657130000000  0.4520340000000  0.5876310000000 1.0
C      1  0.5305550000000  0.4724410000000  0.4282070000000 1.0
C      1  0.4959210000000  0.5595270000000  0.5445440000000 1.0
C      1  0.5143300000000  0.4973030000000  0.5267860000000 1.0
C      1  0.4933930000000  0.5091170000000  0.5451030000000 1.0
C      1  0.4811840000000  0.5649190000000  0.4954340000000 1.0
C      1  0.5430220000000  0.4734390000000  0.5566010000000 1.0
C      1  0.3958760000000  0.4484830000000  0.5194980000000 1.0
C      1  0.5477270000000  0.4880690000000  0.4105690000000 1.0
C      1  0.4889700000000  0.4985900000000  0.4360410000000 1.0
C      1  0.4256810000000  0.5931570000000  0.5008870000000 1.0
C      1  0.4535120000000  0.4402290000000  0.4445790000000 1.0
C      1  0.4962970000000  0.5792070000000  0.3958990000000 1.0
C      1  0.5390200000000  0.4951280000000  0.5406790000000 1.0
C      1  0.4556730000000  0.4207790000000  0.5427950000000 1.0
C      1  0.4292630000000  0.5155510000000  0.4214870000000 1.0
C      1  0.4555700000000  0.5534450000000  0.5949660000000 1.0
C      1  0.5874210000000  0.5795520000000  0.5519140000000 1.0
C      1  0.5277350000000  0.5827640000000  0.5736100000000 1.0
C      1  0.5012220000000  0.4865720000000  0.5013180000000 1.0
C      1  0.6133730000000  0.5408390000000  0.5034490000000 1.0
C      1  0.5606530000000  0.5166770000000  0.5073090000000 1.0
C      1  0.4527830000000  0.4649070000000  0.5128380000000 1.0
C      1  0.5741870000000  0.4252720000000  0.4671370000000 1.0
C      1  0.4796750000000  0.4507860000000  0.3844200000000 1.0
C      1  0.4234880000000  0.5018710000000  0.5891730000000 1.0
C      1  0.5365450000000  0.5939000000000  0.4670360000000 1.0
C      1  0.5702320000000  0.5742840000000  0.4180780000000 1.0
C      1  0.4442440000000  0.5049740000000  0.5413360000000 1.0
C      1  0.4923100000000  0.4073560000000  0.4366530000000 1.0
C      1  0.5459240000000  0.5360380000000  0.4355740000000 1.0
C      1  0.5247480000000  0.5340540000000  0.5747110000000 1.0
C      1  0.5072150000000  0.4769480000000  0.6065930000000 1.0
C      1  0.5066740000000  0.4714820000000  0.4728900000000 1.0
C      1  0.4327210000000  0.4885760000000  0.5192560000000 1.0
C      1  0.4107210000000  0.4956310000000  0.4999020000000 1.0
C      1  0.5442220000000  0.3997940000000  0.5337620000000 1.0
C      1  0.4156490000000  0.5458690000000  0.4927550000000 1.0
C      1  0.5070130000000  0.4911430000000  0.3868290000000 1.0
C      1  0.4523750000000  0.6037620000000  0.5022920000000 1.0
C      1  0.4269940000000  0.5084100000000  0.4491710000000 1.0
C      1  0.4771970000000  0.4655820000000  0.5659640000000 1.0
C      1  0.4851920000000  0.5093720000000  0.4906090000000 1.0
C      1  0.4807300000000  0.5836580000000  0.5397580000000 1.0
C      1  0.4620610000000  0.5977110000000  0.4563230000000 1.0
C      1  0.4411790000000  0.5330910000000  0.4971600000000 1.0
C      1  0.5872720000000  0.5323240000000  0.6079040000000 1.0
C      1  0.5109100000000  0.4826280000000  0.4468470000000 1.0
C      1  0.4522270000000  0.5323610000000  0.5281300000000 1.0
C      1  0.4202410000000  0.4795100000000  0.4527010000000 1.0
C      1  0.4925980000000  0.4471420000000  0.4711590000000 1.0
C      1  0.5906120000000  0.4383180000000  0.4876470000000 1.0
C      1  0.5295090000000  0.4066430000000  0.4721070000000 1.0
C      1  0.4410390000000  0.5104290000000  0.6117870000000 1.0
C      1  0.4830370000000  0.4655520000000  0.5158250000000 1.0
C      1  0.5564830000000  0.4081200000000  0.4833260000000 1.0
C      1  0.4539520000000  0.5522060000000  0.4437570000000 1.0
C      1  0.4538510000000  0.4693700000000  0.4833240000000 1.0
C      1  0.4498150000000  0.3904090000000  0.4910110000000 1.0
C      1  0.5674030000000  0.5599190000000  0.4881880000000 1.0
C      1  0.4909350000000  0.5586930000000  0.3773890000000 1.0
C      1  0.5632460000000  0.4301810000000  0.4407810000000 1.0
C      1  0.4623520000000  0.5301780000000  0.6101950000000 1.0
C      1  0.5579020000000  0.5617690000000  0.4390990000000 1.0
C      1  0.4960000000000  0.5259380000000  0.4295450000000 1.0
C      1  0.6343760000000  0.4700550000000  0.4684110000000 1.0
C      1  0.5129600000000  0.4148990000000  0.4934050000000 1.0
C      1  0.4575760000000  0.4664910000000  0.3811040000000 1.0
C      1  0.4696900000000  0.4909950000000  0.5525580000000 1.0
C      1  0.4896320000000  0.5744790000000  0.4230430000000 1.0
C      1  0.5231670000000  0.5278120000000  0.4188750000000 1.0
C      1  0.5850710000000  0.5056790000000  0.4346360000000 1.0
C      1  0.4180260000000  0.5216060000000  0.3751790000000 1.0
C      1  0.4993620000000  0.4510240000000  0.5549220000000 1.0
C      1  0.5229310000000  0.4486910000000  0.4135840000000 1.0
C      1  0.4071590000000  0.4742140000000  0.4789480000000 1.0
C      1  0.4150190000000  0.4737190000000  0.5913590000000 1.0
C      1  0.4637010000000  0.5893320000000  0.5617680000000 1.0
C      1  0.4978210000000  0.5008520000000  0.5957960000000 1.0
C      1  0.6104010000000  0.5062170000000  0.4467650000000 1.0
C      1  0.5818980000000  0.4359080000000  0.5164410000000 1.0
C      1  0.5554000000000  0.4772140000000  0.4842040000000 1.0
C      1  0.3851330000000  0.6090960000000  0.5323730000000 1.0
C      1  0.5053140000000  0.4608760000000  0.3921930000000 1.0
C      1  0.4745940000000  0.3862270000000  0.5002140000000 1.0
C      1  0.4142830000000  0.4485170000000  0.5413490000000 1.0
C      1  0.5808820000000  0.4676340000000  0.5982910000000 1.0
C      1  0.5572270000000  0.5744530000000  0.4651220000000 1.0
C      1  0.3705160000000  0.5258150000000  0.4992240000000 1.0
C      1  0.5002040000000  0.3945450000000  0.5078380000000 1.0
C      1  0.6022440000000  0.4955810000000  0.4941810000000 1.0
C      1  0.3976530000000  0.5228360000000  0.4972560000000 1.0
C      1  0.4045700000000  0.6021330000000  0.5164740000000 1.0
C      1  0.4906630000000  0.5224060000000  0.6140990000000 1.0
C      1  0.5670780000000  0.5179840000000  0.5961570000000 1.0
C      1  0.5925840000000  0.4839780000000  0.5532220000000 1.0
C      1  0.5022250000000  0.4477070000000  0.5273620000000 1.0
END
