TITL C-247196-3112-565 -383.199187438294 125000 -164.604691709068 0 0 29 (Cs) n - 1
REM
REM in /home/nfs/bkarasulu/CARBON/AIRSS/Generating-Clusters/LCBOP/Only-C1/SD-CG/FIRE-HFTN
REM
REM
REM
REM
REM
REM ./C.cell (11c1c37f851c82e70ff6c80c92926a4b)
REM AIRSS Version 0.9.1 bugfix July 2018 build 013d7b7c2542+ Fri, 06 Jul 2018 19:26:36 +0100
REM compiler GCC version 9.2.1 20190827 (Red Hat 9.2.1-1)
REM options -cpp -mtune=generic -march=x86-64 -g -O0 -fpre-include=/usr/include/finclude/math-vector-fortran.h
REM seed -272942190 838296032 962340874 -683724388 2079724557 1633386827 1544506100 -535821810 -1760674512 -777829915 459553798 607191364 -1491906823 -1141035792 -836538826 -1342020878 2005627215 2018167928 948744788 -1231092993 163332379 1768231839 -1487394994 177147887 -859522592 1701132238 -1483534637 -690250376 -1868974616 601106161 -503778405 -730067245 -284930259
REM
CELL 1.54180   50.00000   50.00000   50.00000   90.00000   90.00000   90.00000
LATT -1
SFAC C  
C      1  0.5974310000000  0.5064310000000  0.3579630000000 1.0
C      1  0.5474360000000  0.5197690000000  0.4183000000000 1.0
C      1  0.5807780000000  0.5108460000000  0.3780980000000 1.0
C      1  0.3798760000000  0.5519170000000  0.6281840000000 1.0
C      1  0.5298000000000  0.5250210000000  0.4391150000000 1.0
C      1  0.5081770000000  0.5078590000000  0.4826710000000 1.0
C      1  0.4443330000000  0.5400820000000  0.5478360000000 1.0
C      1  0.5149720000000  0.5494640000000  0.4412990000000 1.0
C      1  0.5641190000000  0.5152590000000  0.3982270000000 1.0
C      1  0.5061880000000  0.4872730000000  0.5012140000000 1.0
C      1  0.4967930000000  0.3973840000000  0.5834040000000 1.0
C      1  0.6304600000000  0.4976640000000  0.3180070000000 1.0
C      1  0.4981400000000  0.5507340000000  0.4640160000000 1.0
C      1  0.4634370000000  0.4617700000000  0.5805870000000 1.0
C      1  0.5009880000000  0.4706890000000  0.5212040000000 1.0
C      1  0.4930190000000  0.4573060000000  0.5426280000000 1.0
C      1  0.5168080000000  0.5697600000000  0.4232050000000 1.0
C      1  0.4933240000000  0.5322840000000  0.4848970000000 1.0
C      1  0.4597290000000  0.5392670000000  0.5268140000000 1.0
C      1  0.6140840000000  0.5020120000000  0.3378200000000 1.0
C      1  0.5038540000000  0.3737050000000  0.5917160000000 1.0
C      1  0.4461330000000  0.4780840000000  0.5922510000000 1.0
C      1  0.4125320000000  0.5142730000000  0.6114280000000 1.0
C      1  0.4757110000000  0.5374070000000  0.5057620000000 1.0
C      1  0.3960580000000  0.5332280000000  0.6199080000000 1.0
C      1  0.4820330000000  0.4468110000000  0.5660680000000 1.0
C      1  0.5250090000000  0.5065390000000  0.4599910000000 1.0
C      1  0.4896140000000  0.4214490000000  0.5749590000000 1.0
C      1  0.4291660000000  0.4957120000000  0.6024280000000 1.0
END
