TITL C-247195-3186-311 143088.487706954 125000 -1076.39322792 0 0 175 (C1) n - 1
REM
REM in /home/nfs/bkarasulu/CARBON/AIRSS/Generating-Clusters/LCBOP/Only-C1/SD-CG/FIRE-HFTN
REM
REM
REM
REM
REM
REM ./C.cell (11c1c37f851c82e70ff6c80c92926a4b)
REM AIRSS Version 0.9.1 bugfix July 2018 build 013d7b7c2542+ Fri, 06 Jul 2018 19:26:36 +0100
REM compiler GCC version 9.2.1 20190827 (Red Hat 9.2.1-1)
REM options -cpp -mtune=generic -march=x86-64 -g -O0 -fpre-include=/usr/include/finclude/math-vector-fortran.h
REM seed 1457651382 375507671 2042671183 -1229447941 -506975702 -773540527 -350437230 1761805675 939526873 -113923718 -1830006625 1390720516 -1247993289 -2050782818 -1037369965 -2097691156 380306347 2119995792 -1727478510 -690962744 -991191090 -2128452057 -597909823 -1667233385 361920170 -1216650160 -153544768 -1482938089 1230681192 856447462 -1440066542 -1090938171 -222725457
REM
CELL 1.54180   50.00000   50.00000   50.00000   90.00000   90.00000   90.00000
LATT -1
SFAC C  
C      1  0.5324540000000  0.5416280000000  0.4567560000000 1.0
C      1  0.5257550000000  0.4628580000000  0.4143890000000 1.0
C      1  0.4589380000000  0.5796930000000  0.4443030000000 1.0
C      1  0.5265850000000  0.4487660000000  0.5862910000000 1.0
C      1  0.4341730000000  0.4909940000000  0.4293280000000 1.0
C      1  0.4807040000000  0.5271380000000  0.5663950000000 1.0
C      1  0.4542050000000  0.4758430000000  0.5857800000000 1.0
C      1  0.5866220000000  0.4841740000000  0.5836610000000 1.0
C      1  0.5737320000000  0.4865030000000  0.4829980000000 1.0
C      1  0.4782160000000  0.6092890000000  0.5542930000000 1.0
C      1  0.5255500000000  0.4967340000000  0.3822300000000 1.0
C      1  0.6061700000000  0.4993230000000  0.4526740000000 1.0
C      1  0.4115790000000  0.4908720000000  0.4477870000000 1.0
C      1  0.5058070000000  0.4861850000000  0.4951360000000 1.0
C      1  0.5465530000000  0.4195060000000  0.4813420000000 1.0
C      1  0.4930300000000  0.6232620000000  0.4323520000000 1.0
C      1  0.4521560000000  0.3973300000000  0.5383400000000 1.0
C      1  0.5739310000000  0.5591420000000  0.4813200000000 1.0
C      1  0.5523210000000  0.4211260000000  0.5090290000000 1.0
C      1  0.5841190000000  0.5721540000000  0.5530770000000 1.0
C      1  0.4182840000000  0.5312360000000  0.5489070000000 1.0
C      1  0.4682800000000  0.6288570000000  0.4455520000000 1.0
C      1  0.4802530000000  0.4759390000000  0.5354890000000 1.0
C      1  0.5075800000000  0.3947220000000  0.4713840000000 1.0
C      1  0.5146700000000  0.6157800000000  0.5215060000000 1.0
C      1  0.4667500000000  0.5399000000000  0.4968930000000 1.0
C      1  0.5951290000000  0.4177430000000  0.5065400000000 1.0
C      1  0.5533360000000  0.4949900000000  0.4995120000000 1.0
C      1  0.4925730000000  0.5998860000000  0.4166570000000 1.0
C      1  0.4621780000000  0.4748310000000  0.4091020000000 1.0
C      1  0.4150090000000  0.4553990000000  0.4805370000000 1.0
C      1  0.5529420000000  0.5411960000000  0.4766370000000 1.0
C      1  0.5329970000000  0.5085650000000  0.5559110000000 1.0
C      1  0.5394260000000  0.5326220000000  0.5958100000000 1.0
C      1  0.5068460000000  0.5329400000000  0.4679550000000 1.0
C      1  0.4742840000000  0.5115100000000  0.4397670000000 1.0
C      1  0.5285950000000  0.3811470000000  0.5162880000000 1.0
C      1  0.5379460000000  0.6228690000000  0.5070780000000 1.0
C      1  0.4629350000000  0.5210410000000  0.5455010000000 1.0
C      1  0.5092580000000  0.3916150000000  0.5370050000000 1.0
C      1  0.4552840000000  0.4694890000000  0.5243050000000 1.0
C      1  0.4723200000000  0.5202950000000  0.5178460000000 1.0
C      1  0.5312310000000  0.4945620000000  0.4552100000000 1.0
C      1  0.4983650000000  0.5629040000000  0.5930500000000 1.0
C      1  0.5173360000000  0.5593230000000  0.5204430000000 1.0
C      1  0.6192730000000  0.4601870000000  0.5173490000000 1.0
C      1  0.4318770000000  0.4929690000000  0.5770140000000 1.0
C      1  0.5893750000000  0.4320360000000  0.4812320000000 1.0
C      1  0.4318140000000  0.4835360000000  0.5309280000000 1.0
C      1  0.4642160000000  0.4090410000000  0.4814750000000 1.0
C      1  0.5088030000000  0.3226400000000  0.4781620000000 1.0
C      1  0.4514940000000  0.4461820000000  0.4116500000000 1.0
C      1  0.3757390000000  0.4832220000000  0.4791600000000 1.0
C      1  0.5843080000000  0.5089690000000  0.4686400000000 1.0
C      1  0.5276180000000  0.5334200000000  0.5166860000000 1.0
C      1  0.5578480000000  0.5013550000000  0.5433630000000 1.0
C      1  0.5633550000000  0.4392250000000  0.4410280000000 1.0
C      1  0.3822960000000  0.4819440000000  0.5277240000000 1.0
C      1  0.4519830000000  0.4225900000000  0.4287660000000 1.0
C      1  0.4380820000000  0.5509790000000  0.4884830000000 1.0
C      1  0.4966640000000  0.4655740000000  0.4181180000000 1.0
C      1  0.5080530000000  0.6105330000000  0.5492170000000 1.0
C      1  0.5892420000000  0.5765310000000  0.5273070000000 1.0
C      1  0.5383170000000  0.4581960000000  0.5375650000000 1.0
C      1  0.4642370000000  0.5932570000000  0.5750050000000 1.0
C      1  0.4304990000000  0.5760980000000  0.5063830000000 1.0
C      1  0.4676470000000  0.5338710000000  0.3966480000000 1.0
C      1  0.3860650000000  0.4979570000000  0.5518510000000 1.0
C      1  0.5491100000000  0.4825970000000  0.5240350000000 1.0
C      1  0.6078590000000  0.5081550000000  0.5261790000000 1.0
C      1  0.4271880000000  0.4370800000000  0.5640590000000 1.0
C      1  0.5176210000000  0.6335410000000  0.4408970000000 1.0
C      1  0.5422140000000  0.5769700000000  0.5793950000000 1.0
C      1  0.4799960000000  0.3930320000000  0.5465810000000 1.0
C      1  0.5266080000000  0.5595180000000  0.5980030000000 1.0
C      1  0.3931310000000  0.5242310000000  0.5387030000000 1.0
C      1  0.5860160000000  0.4612350000000  0.4743480000000 1.0
C      1  0.4908560000000  0.4541350000000  0.5498900000000 1.0
C      1  0.4815470000000  0.3986760000000  0.4614240000000 1.0
C      1  0.6603220000000  0.5663700000000  0.5115780000000 1.0
C      1  0.5418070000000  0.4832150000000  0.4017560000000 1.0
C      1  0.3765400000000  0.4974740000000  0.5037070000000 1.0
C      1  0.4905160000000  0.5512500000000  0.4832580000000 1.0
C      1  0.5171120000000  0.3745570000000  0.4902090000000 1.0
C      1  0.5151910000000  0.5457110000000  0.4118090000000 1.0
C      1  0.4757160000000  0.4374550000000  0.5677460000000 1.0
C      1  0.5131190000000  0.4412570000000  0.5351960000000 1.0
C      1  0.4429380000000  0.4604590000000  0.4804360000000 1.0
C      1  0.4364150000000  0.4066870000000  0.4742450000000 1.0
C      1  0.4035910000000  0.4827550000000  0.5722290000000 1.0
C      1  0.4593780000000  0.6078180000000  0.5307820000000 1.0
C      1  0.5058780000000  0.5025790000000  0.4706350000000 1.0
C      1  0.3900050000000  0.6022710000000  0.4970470000000 1.0
C      1  0.5253450000000  0.4209280000000  0.5780000000000 1.0
C      1  0.5107070000000  0.4585560000000  0.4889080000000 1.0
C      1  0.4577350000000  0.4809110000000  0.4695000000000 1.0
C      1  0.4182450000000  0.4024930000000  0.4952740000000 1.0
C      1  0.4829130000000  0.4895240000000  0.4566800000000 1.0
C      1  0.4734050000000  0.5049070000000  0.3915900000000 1.0
C      1  0.4119060000000  0.5303580000000  0.4880050000000 1.0
C      1  0.5144350000000  0.3475510000000  0.4833450000000 1.0
C      1  0.4040210000000  0.4533650000000  0.5706900000000 1.0
C      1  0.5863650000000  0.5719370000000  0.5012080000000 1.0
C      1  0.5457890000000  0.4607500000000  0.5682520000000 1.0
C      1  0.4299340000000  0.4170700000000  0.5413100000000 1.0
C      1  0.4921080000000  0.3979510000000  0.4127730000000 1.0
C      1  0.4414470000000  0.5442130000000  0.4039920000000 1.0
C      1  0.5374020000000  0.6282290000000  0.4581530000000 1.0
C      1  0.6043950000000  0.4374860000000  0.5269440000000 1.0
C      1  0.4313340000000  0.4155530000000  0.4474560000000 1.0
C      1  0.4144810000000  0.4207920000000  0.5166800000000 1.0
C      1  0.4602620000000  0.6545200000000  0.4504470000000 1.0
C      1  0.4942760000000  0.5083540000000  0.5834710000000 1.0
C      1  0.5676200000000  0.5631340000000  0.5737670000000 1.0
C      1  0.4988030000000  0.5006110000000  0.3792370000000 1.0
C      1  0.5857660000000  0.5126980000000  0.5755720000000 1.0
C      1  0.5071980000000  0.5743060000000  0.4958370000000 1.0
C      1  0.4937570000000  0.5519540000000  0.5661510000000 1.0
C      1  0.5757040000000  0.4610870000000  0.5695170000000 1.0
C      1  0.4757340000000  0.4062610000000  0.4337660000000 1.0
C      1  0.4830810000000  0.4832130000000  0.5918760000000 1.0
C      1  0.4512900000000  0.4483530000000  0.5761050000000 1.0
C      1  0.4370130000000  0.5080730000000  0.5507570000000 1.0
C      1  0.5368190000000  0.4482790000000  0.4365810000000 1.0
C      1  0.6243050000000  0.4914480000000  0.4760430000000 1.0
C      1  0.4802610000000  0.4097370000000  0.5707460000000 1.0
C      1  0.5233680000000  0.5128100000000  0.5821190000000 1.0
C      1  0.5591910000000  0.4391450000000  0.5291760000000 1.0
C      1  0.6437460000000  0.5487030000000  0.5212130000000 1.0
C      1  0.5684920000000  0.4213430000000  0.4637140000000 1.0
C      1  0.5655960000000  0.4965760000000  0.4149960000000 1.0
C      1  0.4741090000000  0.4293490000000  0.5001350000000 1.0
C      1  0.5240390000000  0.5881510000000  0.5593970000000 1.0
C      1  0.5592560000000  0.5244060000000  0.4196470000000 1.0
C      1  0.3918680000000  0.5228550000000  0.5087190000000 1.0
C      1  0.6251560000000  0.5307080000000  0.5269960000000 1.0
C      1  0.4427000000000  0.5583070000000  0.4535580000000 1.0
C      1  0.4159680000000  0.5961480000000  0.4912480000000 1.0
C      1  0.4556890000000  0.4506360000000  0.5035740000000 1.0
C      1  0.5680310000000  0.5352250000000  0.5851200000000 1.0
C      1  0.5218740000000  0.4186360000000  0.4690980000000 1.0
C      1  0.5831610000000  0.4600190000000  0.4439610000000 1.0
C      1  0.4706820000000  0.6111500000000  0.5055430000000 1.0
C      1  0.5010090000000  0.4384170000000  0.5072670000000 1.0
C      1  0.5148330000000  0.4468030000000  0.4600810000000 1.0
C      1  0.4786850000000  0.5828610000000  0.5971840000000 1.0
C      1  0.4072710000000  0.4687720000000  0.5246800000000 1.0
C      1  0.4472850000000  0.5145940000000  0.4354310000000 1.0
C      1  0.5041550000000  0.4633650000000  0.5971300000000 1.0
C      1  0.4090270000000  0.5162160000000  0.4631230000000 1.0
C      1  0.5094380000000  0.3924040000000  0.3941190000000 1.0
C      1  0.4787850000000  0.5759230000000  0.4229320000000 1.0
C      1  0.5833510000000  0.4441020000000  0.5455430000000 1.0
C      1  0.6177490000000  0.4871330000000  0.5065820000000 1.0
C      1  0.4963430000000  0.6011800000000  0.5041170000000 1.0
C      1  0.5618590000000  0.3965930000000  0.5149120000000 1.0
C      1  0.4366100000000  0.5404260000000  0.4323300000000 1.0
C      1  0.3980400000000  0.4718960000000  0.4648190000000 1.0
C      1  0.4934520000000  0.4638360000000  0.4454610000000 1.0
C      1  0.4075560000000  0.4468030000000  0.5072490000000 1.0
C      1  0.4301190000000  0.6084470000000  0.4702400000000 1.0
C      1  0.4522480000000  0.6062980000000  0.4529820000000 1.0
C      1  0.5369780000000  0.5395630000000  0.4286710000000 1.0
C      1  0.5304470000000  0.5848590000000  0.4787960000000 1.0
C      1  0.5893540000000  0.4851580000000  0.4308300000000 1.0
C      1  0.5851740000000  0.5094650000000  0.5459120000000 1.0
C      1  0.5405660000000  0.6118430000000  0.4806920000000 1.0
C      1  0.4944560000000  0.4979930000000  0.5201900000000 1.0
C      1  0.4403610000000  0.5854600000000  0.5325820000000 1.0
C      1  0.5160720000000  0.5137970000000  0.5336920000000 1.0
C      1  0.5100430000000  0.5653320000000  0.5469620000000 1.0
C      1  0.5200730000000  0.4153980000000  0.5501720000000 1.0
C      1  0.4877610000000  0.5518510000000  0.4089510000000 1.0
C      1  0.4418540000000  0.5798700000000  0.5611610000000 1.0
C      1  0.5463820000000  0.5233510000000  0.4980950000000 1.0
END
