TITL C-247199-3331-533 0.471933138188247 125000 -199.860004818026 0 0 35 (C1) n - 1
REM
REM in /home/nfs/bkarasulu/CARBON/AIRSS/Generating-Clusters/LCBOP/Only-C1/SD-CG/FIRE-HFTN
REM
REM
REM
REM
REM
REM ./C.cell (11c1c37f851c82e70ff6c80c92926a4b)
REM AIRSS Version 0.9.1 bugfix July 2018 build 013d7b7c2542+ Fri, 06 Jul 2018 19:26:36 +0100
REM compiler GCC version 9.2.1 20190827 (Red Hat 9.2.1-1)
REM options -cpp -mtune=generic -march=x86-64 -g -O0 -fpre-include=/usr/include/finclude/math-vector-fortran.h
REM seed 678407102 1579760358 -660705253 1303295305 1553472671 964069812 -1296532496 2073185910 -373048791 -534238 363373494 1251562832 1091503469 -1343987856 1666362559 1863402761 -1455344009 829567365 -1847370838 -1484063071 -1041181217 -1470909518 -4575365 -684566684 1053057370 -791081065 -980439071 1037790492 -2094680881 -564592905 1589108915 -254663883 1297549402
REM
CELL 1.54180   50.00000   50.00000   50.00000   90.00000   90.00000   90.00000
LATT -1
SFAC C  
C      1  0.4714990000000  0.4107840000000  0.4616540000000 1.0
C      1  0.4907320000000  0.5066040000000  0.4360270000000 1.0
C      1  0.5485530000000  0.6051410000000  0.4647550000000 1.0
C      1  0.4603700000000  0.3866910000000  0.4551260000000 1.0
C      1  0.4934640000000  0.4253160000000  0.5088500000000 1.0
C      1  0.5499070000000  0.4597020000000  0.5094010000000 1.0
C      1  0.4738930000000  0.5231630000000  0.4513640000000 1.0
C      1  0.5689390000000  0.5012870000000  0.4834940000000 1.0
C      1  0.4819760000000  0.4928990000000  0.6085110000000 1.0
C      1  0.4864850000000  0.4950950000000  0.5810440000000 1.0
C      1  0.4981990000000  0.4539990000000  0.5477730000000 1.0
C      1  0.5527680000000  0.4188080000000  0.5345600000000 1.0
C      1  0.4610780000000  0.5698160000000  0.5219230000000 1.0
C      1  0.4843880000000  0.5552220000000  0.5278870000000 1.0
C      1  0.4862630000000  0.5201730000000  0.5687120000000 1.0
C      1  0.4775610000000  0.4550410000000  0.4316780000000 1.0
C      1  0.4836000000000  0.4807120000000  0.4289360000000 1.0
C      1  0.5053060000000  0.5533040000000  0.5084010000000 1.0
C      1  0.4858440000000  0.5402320000000  0.5514110000000 1.0
C      1  0.4732490000000  0.4313420000000  0.4427500000000 1.0
C      1  0.4777690000000  0.4908410000000  0.6341490000000 1.0
C      1  0.5095430000000  0.4392200000000  0.5269660000000 1.0
C      1  0.5359770000000  0.5823800000000  0.4630560000000 1.0
C      1  0.5222780000000  0.5581350000000  0.4621770000000 1.0
C      1  0.4523540000000  0.5600030000000  0.4758860000000 1.0
C      1  0.5285220000000  0.5384730000000  0.4430310000000 1.0
C      1  0.5004930000000  0.5527060000000  0.4801190000000 1.0
C      1  0.5593280000000  0.4806410000000  0.4961790000000 1.0
C      1  0.5312300000000  0.5516600000000  0.5174530000000 1.0
C      1  0.4814140000000  0.4154710000000  0.4874050000000 1.0
C      1  0.5377960000000  0.4389800000000  0.5237380000000 1.0
C      1  0.4751510000000  0.5452900000000  0.4685490000000 1.0
C      1  0.4463380000000  0.5713890000000  0.4994990000000 1.0
C      1  0.5164790000000  0.5172530000000  0.4318390000000 1.0
C      1  0.4912530000000  0.4722240000000  0.5656990000000 1.0
END
