TITL C-247195-3186-668 0.00302230349944027 125000 -1019.60240642709 0 0 168 (C1) n - 1
REM
REM in /home/nfs/bkarasulu/CARBON/AIRSS/Generating-Clusters/LCBOP/Only-C1/SD-CG/FIRE-HFTN
REM
REM
REM
REM
REM
REM ./C.cell (11c1c37f851c82e70ff6c80c92926a4b)
REM AIRSS Version 0.9.1 bugfix July 2018 build 013d7b7c2542+ Fri, 06 Jul 2018 19:26:36 +0100
REM compiler GCC version 9.2.1 20190827 (Red Hat 9.2.1-1)
REM options -cpp -mtune=generic -march=x86-64 -g -O0 -fpre-include=/usr/include/finclude/math-vector-fortran.h
REM seed -56557358 1579553807 1925678539 1290902378 1815970167 -737107725 1212752212 -740907412 1099494875 -582101379 -1745870168 479727001 1881944944 -1494902195 -450525428 669109891 -1475051879 -1006589075 -772941666 1023558503 -1976224669 -150735674 -1528628098 -1516362390 1718293921 1758634459 -1505772132 1759551919 -1400636841 -1182480022 -1961622926 -664624475 -333038894
REM
CELL 1.54180   50.00000   50.00000   50.00000   90.00000   90.00000   90.00000
LATT -1
SFAC C  
C      1  0.3946310000000  0.5079900000000  0.4415450000000 1.0
C      1  0.5012730000000  0.4608630000000  0.6072080000000 1.0
C      1  0.5390310000000  0.3978380000000  0.5528300000000 1.0
C      1  0.5586070000000  0.4764750000000  0.5196550000000 1.0
C      1  0.3805880000000  0.4403050000000  0.4644390000000 1.0
C      1  0.5445130000000  0.5395800000000  0.4704890000000 1.0
C      1  0.5237200000000  0.5068540000000  0.4152810000000 1.0
C      1  0.3936500000000  0.4611310000000  0.4515570000000 1.0
C      1  0.5945020000000  0.4988450000000  0.4390610000000 1.0
C      1  0.5147730000000  0.4382250000000  0.5962190000000 1.0
C      1  0.4986950000000  0.4638580000000  0.5256880000000 1.0
C      1  0.3537180000000  0.3811300000000  0.5094280000000 1.0
C      1  0.5078890000000  0.4654380000000  0.4968380000000 1.0
C      1  0.5618170000000  0.5352210000000  0.4166600000000 1.0
C      1  0.5454370000000  0.6170610000000  0.4015340000000 1.0
C      1  0.4977920000000  0.4220970000000  0.5798350000000 1.0
C      1  0.4742870000000  0.4963090000000  0.4957500000000 1.0
C      1  0.5841460000000  0.5408550000000  0.5837600000000 1.0
C      1  0.4675650000000  0.5202510000000  0.5524770000000 1.0
C      1  0.4827860000000  0.4247120000000  0.4653900000000 1.0
C      1  0.4946260000000  0.6149410000000  0.5165140000000 1.0
C      1  0.5043380000000  0.4489160000000  0.4326120000000 1.0
C      1  0.4984860000000  0.5329670000000  0.6344210000000 1.0
C      1  0.5923820000000  0.5618270000000  0.5312440000000 1.0
C      1  0.4606500000000  0.5074620000000  0.3698280000000 1.0
C      1  0.5679540000000  0.5228130000000  0.5079620000000 1.0
C      1  0.6066570000000  0.4582420000000  0.5334100000000 1.0
C      1  0.6079140000000  0.4245690000000  0.4689610000000 1.0
C      1  0.4167430000000  0.5279350000000  0.4027580000000 1.0
C      1  0.4618800000000  0.5401540000000  0.4271060000000 1.0
C      1  0.4693130000000  0.4931360000000  0.4449910000000 1.0
C      1  0.5973990000000  0.6274190000000  0.5638220000000 1.0
C      1  0.4145420000000  0.4737300000000  0.5640900000000 1.0
C      1  0.5316370000000  0.4570410000000  0.4361180000000 1.0
C      1  0.4954790000000  0.5371990000000  0.4795340000000 1.0
C      1  0.5489180000000  0.4095120000000  0.4098090000000 1.0
C      1  0.4031330000000  0.5185100000000  0.5485710000000 1.0
C      1  0.5390300000000  0.5130740000000  0.4608650000000 1.0
C      1  0.4071900000000  0.4580160000000  0.4266550000000 1.0
C      1  0.5502100000000  0.4897060000000  0.4732160000000 1.0
C      1  0.5823780000000  0.5108990000000  0.5876830000000 1.0
C      1  0.4216360000000  0.5539420000000  0.5180640000000 1.0
C      1  0.6171030000000  0.4091340000000  0.4500780000000 1.0
C      1  0.5414140000000  0.4324680000000  0.3976430000000 1.0
C      1  0.5156810000000  0.5756020000000  0.4947750000000 1.0
C      1  0.4238770000000  0.5567310000000  0.5707310000000 1.0
C      1  0.5169460000000  0.3931470000000  0.4799730000000 1.0
C      1  0.4961070000000  0.4937230000000  0.4551160000000 1.0
C      1  0.4502290000000  0.5544890000000  0.5247040000000 1.0
C      1  0.3621950000000  0.4006330000000  0.4943480000000 1.0
C      1  0.6035470000000  0.4680350000000  0.5605860000000 1.0
C      1  0.5544240000000  0.3811180000000  0.5077760000000 1.0
C      1  0.4233330000000  0.5281850000000  0.5672850000000 1.0
C      1  0.5111900000000  0.4039390000000  0.5602390000000 1.0
C      1  0.4604350000000  0.4653100000000  0.4480280000000 1.0
C      1  0.4023030000000  0.5319870000000  0.5233290000000 1.0
C      1  0.3709240000000  0.4204500000000  0.4790630000000 1.0
C      1  0.5158180000000  0.5772880000000  0.4223610000000 1.0
C      1  0.4206960000000  0.4779430000000  0.4110180000000 1.0
C      1  0.5340840000000  0.5326350000000  0.4089210000000 1.0
C      1  0.4416180000000  0.5612670000000  0.4278890000000 1.0
C      1  0.4495530000000  0.5117880000000  0.4999070000000 1.0
C      1  0.4659580000000  0.4855090000000  0.3856190000000 1.0
C      1  0.5574210000000  0.3994450000000  0.5298980000000 1.0
C      1  0.4394850000000  0.6015490000000  0.4640290000000 1.0
C      1  0.5023150000000  0.5788980000000  0.4469830000000 1.0
C      1  0.4465800000000  0.5092850000000  0.5686300000000 1.0
C      1  0.4370740000000  0.4640560000000  0.4948450000000 1.0
C      1  0.4332880000000  0.6120520000000  0.4885360000000 1.0
C      1  0.4220780000000  0.5815610000000  0.5596070000000 1.0
C      1  0.4221910000000  0.6000270000000  0.5395780000000 1.0
C      1  0.5024840000000  0.5322370000000  0.5078330000000 1.0
C      1  0.3897630000000  0.5208470000000  0.4985620000000 1.0
C      1  0.4688930000000  0.4596570000000  0.5329180000000 1.0
C      1  0.4723200000000  0.5315490000000  0.6383910000000 1.0
C      1  0.4164080000000  0.5530590000000  0.4163980000000 1.0
C      1  0.5563490000000  0.3948840000000  0.4310530000000 1.0
C      1  0.5413870000000  0.5617460000000  0.4866570000000 1.0
C      1  0.4754470000000  0.5997640000000  0.5284110000000 1.0
C      1  0.5406000000000  0.4632880000000  0.4627370000000 1.0
C      1  0.5894190000000  0.5096950000000  0.5444270000000 1.0
C      1  0.5411090000000  0.4612900000000  0.4072320000000 1.0
C      1  0.6052890000000  0.4890700000000  0.4639760000000 1.0
C      1  0.4513140000000  0.4479470000000  0.5134520000000 1.0
C      1  0.5998760000000  0.6087690000000  0.5457890000000 1.0
C      1  0.5611700000000  0.4956280000000  0.4987220000000 1.0
C      1  0.4616410000000  0.4585480000000  0.5610270000000 1.0
C      1  0.5097110000000  0.4205170000000  0.4753770000000 1.0
C      1  0.5443340000000  0.3853200000000  0.4814050000000 1.0
C      1  0.4201840000000  0.5248900000000  0.6383000000000 1.0
C      1  0.5938770000000  0.4942260000000  0.5679110000000 1.0
C      1  0.6128910000000  0.5767400000000  0.4803540000000 1.0
C      1  0.6097970000000  0.5056180000000  0.5247200000000 1.0
C      1  0.4986430000000  0.5652130000000  0.4709250000000 1.0
C      1  0.4432510000000  0.4698120000000  0.3944910000000 1.0
C      1  0.5563610000000  0.4638940000000  0.5433270000000 1.0
C      1  0.5306670000000  0.5980710000000  0.4115510000000 1.0
C      1  0.4016490000000  0.4968290000000  0.4885060000000 1.0
C      1  0.5492040000000  0.4358790000000  0.5013060000000 1.0
C      1  0.5995130000000  0.5533310000000  0.4827960000000 1.0
C      1  0.4571210000000  0.5192010000000  0.4471910000000 1.0
C      1  0.4466500000000  0.5291120000000  0.4734130000000 1.0
C      1  0.5545370000000  0.5061730000000  0.5956340000000 1.0
C      1  0.4951650000000  0.4824460000000  0.5916670000000 1.0
C      1  0.4612570000000  0.4145810000000  0.4802090000000 1.0
C      1  0.4721900000000  0.4053050000000  0.5257420000000 1.0
C      1  0.5576180000000  0.3864310000000  0.4565400000000 1.0
C      1  0.5267370000000  0.4450810000000  0.4840850000000 1.0
C      1  0.5121880000000  0.4898290000000  0.5701700000000 1.0
C      1  0.6142080000000  0.5937730000000  0.5013560000000 1.0
C      1  0.5683180000000  0.4243220000000  0.5190550000000 1.0
C      1  0.6097630000000  0.4718550000000  0.4864340000000 1.0
C      1  0.3847140000000  0.5337910000000  0.4495890000000 1.0
C      1  0.4956460000000  0.4856020000000  0.4821300000000 1.0
C      1  0.4494930000000  0.4193060000000  0.5876250000000 1.0
C      1  0.4998240000000  0.5602360000000  0.5174910000000 1.0
C      1  0.4262010000000  0.6106000000000  0.5147980000000 1.0
C      1  0.4566630000000  0.4202730000000  0.5074060000000 1.0
C      1  0.5232970000000  0.5323560000000  0.6251450000000 1.0
C      1  0.5126240000000  0.5520510000000  0.4097930000000 1.0
C      1  0.5626210000000  0.5777440000000  0.6107830000000 1.0
C      1  0.4737320000000  0.5716060000000  0.5254170000000 1.0
C      1  0.5181340000000  0.5056570000000  0.4430940000000 1.0
C      1  0.5639450000000  0.5515380000000  0.6019720000000 1.0
C      1  0.5503300000000  0.4634820000000  0.5707450000000 1.0
C      1  0.3947560000000  0.4877370000000  0.4619270000000 1.0
C      1  0.4973820000000  0.4112500000000  0.5361220000000 1.0
C      1  0.4274120000000  0.4905630000000  0.4994950000000 1.0
C      1  0.6023730000000  0.5887370000000  0.5266060000000 1.0
C      1  0.4408510000000  0.5751740000000  0.4531100000000 1.0
C      1  0.4854180000000  0.5425670000000  0.4114300000000 1.0
C      1  0.4422880000000  0.4797690000000  0.5685370000000 1.0
C      1  0.5911500000000  0.5536040000000  0.5590440000000 1.0
C      1  0.4936530000000  0.4787490000000  0.3894050000000 1.0
C      1  0.3966810000000  0.4912690000000  0.5532770000000 1.0
C      1  0.5141230000000  0.6045070000000  0.5005360000000 1.0
C      1  0.4102670000000  0.5041090000000  0.4167090000000 1.0
C      1  0.4801980000000  0.4445280000000  0.4453480000000 1.0
C      1  0.3807730000000  0.5395750000000  0.4776720000000 1.0
C      1  0.3898470000000  0.5656490000000  0.4845160000000 1.0
C      1  0.5203620000000  0.4830640000000  0.3991390000000 1.0
C      1  0.4571780000000  0.5266950000000  0.5260130000000 1.0
C      1  0.6141320000000  0.4799470000000  0.5140640000000 1.0
C      1  0.4905650000000  0.5337140000000  0.5637310000000 1.0
C      1  0.5457210000000  0.5301600000000  0.6090990000000 1.0
C      1  0.4360690000000  0.5560340000000  0.4737710000000 1.0
C      1  0.5077340000000  0.4889700000000  0.5407610000000 1.0
C      1  0.4459900000000  0.5285370000000  0.6389220000000 1.0
C      1  0.3926610000000  0.5552250000000  0.4322090000000 1.0
C      1  0.5902540000000  0.4790560000000  0.4193420000000 1.0
C      1  0.5415350000000  0.4420450000000  0.5869960000000 1.0
C      1  0.5155750000000  0.5134220000000  0.5257640000000 1.0
C      1  0.4980020000000  0.3733510000000  0.4815820000000 1.0
C      1  0.5605050000000  0.6023100000000  0.6192160000000 1.0
C      1  0.5357310000000  0.5267880000000  0.5435930000000 1.0
C      1  0.4426640000000  0.4436920000000  0.3853400000000 1.0
C      1  0.5396100000000  0.4885360000000  0.5794070000000 1.0
C      1  0.5944150000000  0.4368240000000  0.5168160000000 1.0
C      1  0.4409360000000  0.4593260000000  0.4673070000000 1.0
C      1  0.5860570000000  0.5455060000000  0.5065170000000 1.0
C      1  0.5176680000000  0.5391330000000  0.5626820000000 1.0
C      1  0.5821010000000  0.5237460000000  0.4311880000000 1.0
C      1  0.5085570000000  0.4367590000000  0.5314060000000 1.0
C      1  0.4168390000000  0.5648200000000  0.4926360000000 1.0
C      1  0.4701310000000  0.4337530000000  0.5758300000000 1.0
C      1  0.5690370000000  0.4706140000000  0.4056180000000 1.0
C      1  0.6033160000000  0.4432950000000  0.4889390000000 1.0
C      1  0.5631810000000  0.5209270000000  0.5369750000000 1.0
END
