TITL C-247201-3759-35 165.222851236692 125000 -1176.02742870583 0 0 193 (C1) n - 1
REM
REM in /home/nfs/bkarasulu/CARBON/AIRSS/Generating-Clusters/LCBOP/Only-C1/SD-CG/FIRE-HFTN
REM
REM
REM
REM
REM
REM ./C.cell (11c1c37f851c82e70ff6c80c92926a4b)
REM AIRSS Version 0.9.1 bugfix July 2018 build 013d7b7c2542+ Fri, 06 Jul 2018 19:26:36 +0100
REM compiler GCC version 9.2.1 20190827 (Red Hat 9.2.1-1)
REM options -cpp -mtune=generic -march=x86-64 -g -O0 -fpre-include=/usr/include/finclude/math-vector-fortran.h
REM seed 1933833766 -1707647230 -602406488 -1791771341 107631207 -819013992 -1192687205 -594994459 1304667662 -2077816259 -217729656 -2040668925 1265793086 1036342591 225541541 171880720 -380470435 1507819048 130463270 1168141834 1893901906 -1282310425 -1823844064 366016861 1280064735 1051095071 -951765881 -200743636 1047098781 -1924035625 -12744262 883452499 -1465077148
REM
CELL 1.54180   50.00000   50.00000   50.00000   90.00000   90.00000   90.00000
LATT -1
SFAC C  
C      1  0.6086450000000  0.4986090000000  0.5141280000000 1.0
C      1  0.4907220000000  0.3923190000000  0.4005180000000 1.0
C      1  0.4028700000000  0.4711660000000  0.3354420000000 1.0
C      1  0.5530690000000  0.4672140000000  0.6030980000000 1.0
C      1  0.6255160000000  0.4374710000000  0.4758620000000 1.0
C      1  0.5565680000000  0.4734130000000  0.3975580000000 1.0
C      1  0.5104280000000  0.3686830000000  0.5110650000000 1.0
C      1  0.3922900000000  0.4864020000000  0.6210560000000 1.0
C      1  0.4700940000000  0.5002730000000  0.5607420000000 1.0
C      1  0.4559490000000  0.5913280000000  0.5509340000000 1.0
C      1  0.4846240000000  0.4750850000000  0.4187110000000 1.0
C      1  0.5414530000000  0.4389830000000  0.5116640000000 1.0
C      1  0.5485690000000  0.5317950000000  0.4323310000000 1.0
C      1  0.4677690000000  0.4715950000000  0.5562900000000 1.0
C      1  0.4362150000000  0.4739520000000  0.4902690000000 1.0
C      1  0.4604450000000  0.4904900000000  0.4291290000000 1.0
C      1  0.5091620000000  0.5558170000000  0.4712460000000 1.0
C      1  0.4912120000000  0.5677520000000  0.4528400000000 1.0
C      1  0.4798070000000  0.5433760000000  0.5662890000000 1.0
C      1  0.5490090000000  0.5148630000000  0.5655650000000 1.0
C      1  0.4218590000000  0.5867850000000  0.5179920000000 1.0
C      1  0.4273200000000  0.5815520000000  0.5472250000000 1.0
C      1  0.4846380000000  0.4944990000000  0.6272030000000 1.0
C      1  0.6061610000000  0.4852120000000  0.4611590000000 1.0
C      1  0.6123190000000  0.4619390000000  0.5743640000000 1.0
C      1  0.5271060000000  0.4711770000000  0.4345150000000 1.0
C      1  0.5624870000000  0.4454480000000  0.4518210000000 1.0
C      1  0.4628960000000  0.4204420000000  0.4963630000000 1.0
C      1  0.5308740000000  0.4259090000000  0.3976130000000 1.0
C      1  0.5250200000000  0.4625650000000  0.5984040000000 1.0
C      1  0.4998820000000  0.4349160000000  0.5587840000000 1.0
C      1  0.5672580000000  0.5109610000000  0.5867170000000 1.0
C      1  0.5129370000000  0.6331030000000  0.4931100000000 1.0
C      1  0.6171910000000  0.5670050000000  0.5451330000000 1.0
C      1  0.5526230000000  0.5266150000000  0.5197030000000 1.0
C      1  0.5481810000000  0.4924470000000  0.4693740000000 1.0
C      1  0.4686010000000  0.3958030000000  0.5088560000000 1.0
C      1  0.4976440000000  0.4254230000000  0.4331120000000 1.0
C      1  0.4719740000000  0.6068090000000  0.5037590000000 1.0
C      1  0.5074550000000  0.4140320000000  0.4092130000000 1.0
C      1  0.4655980000000  0.4536700000000  0.4567490000000 1.0
C      1  0.5604730000000  0.5554750000000  0.6031730000000 1.0
C      1  0.3671070000000  0.4993550000000  0.4216900000000 1.0
C      1  0.5305930000000  0.4326230000000  0.4866240000000 1.0
C      1  0.4343390000000  0.3943350000000  0.4576990000000 1.0
C      1  0.5627080000000  0.4000990000000  0.4695260000000 1.0
C      1  0.5567070000000  0.3915170000000  0.5152350000000 1.0
C      1  0.3848250000000  0.5080940000000  0.4409620000000 1.0
C      1  0.6077200000000  0.5426120000000  0.4547370000000 1.0
C      1  0.4254610000000  0.5078570000000  0.3655390000000 1.0
C      1  0.6024490000000  0.3961080000000  0.4957990000000 1.0
C      1  0.5337090000000  0.6135790000000  0.4914450000000 1.0
C      1  0.4327810000000  0.4987810000000  0.4787610000000 1.0
C      1  0.5702210000000  0.4738270000000  0.5266110000000 1.0
C      1  0.4860930000000  0.5540450000000  0.6138570000000 1.0
C      1  0.4974600000000  0.5930770000000  0.4421190000000 1.0
C      1  0.6112880000000  0.5311320000000  0.4805640000000 1.0
C      1  0.4623100000000  0.5187200000000  0.4335780000000 1.0
C      1  0.4933470000000  0.5918630000000  0.5895840000000 1.0
C      1  0.5469980000000  0.4667910000000  0.5133740000000 1.0
C      1  0.5170990000000  0.5294300000000  0.4667350000000 1.0
C      1  0.5502390000000  0.4251640000000  0.4671430000000 1.0
C      1  0.5312000000000  0.5505810000000  0.6029900000000 1.0
C      1  0.4834770000000  0.4496280000000  0.4339470000000 1.0
C      1  0.5439380000000  0.4153070000000  0.5546360000000 1.0
C      1  0.3909580000000  0.4703110000000  0.4754370000000 1.0
C      1  0.4141340000000  0.4199540000000  0.5223740000000 1.0
C      1  0.5030580000000  0.5661020000000  0.4964780000000 1.0
C      1  0.5323140000000  0.4896810000000  0.3939360000000 1.0
C      1  0.4655520000000  0.5598120000000  0.4595510000000 1.0
C      1  0.6134150000000  0.5239260000000  0.5281940000000 1.0
C      1  0.6078900000000  0.5024650000000  0.4845570000000 1.0
C      1  0.5085680000000  0.5703830000000  0.6048330000000 1.0
C      1  0.6204130000000  0.4144040000000  0.4882110000000 1.0
C      1  0.4894970000000  0.3806280000000  0.4966280000000 1.0
C      1  0.4904590000000  0.5368160000000  0.3953580000000 1.0
C      1  0.5792460000000  0.4840260000000  0.4138050000000 1.0
C      1  0.6117470000000  0.4619610000000  0.5474840000000 1.0
C      1  0.4433420000000  0.6006510000000  0.4997510000000 1.0
C      1  0.4996000000000  0.4132020000000  0.4584870000000 1.0
C      1  0.4265750000000  0.5603580000000  0.5708320000000 1.0
C      1  0.5498610000000  0.4452740000000  0.3942270000000 1.0
C      1  0.4030610000000  0.4944990000000  0.5303770000000 1.0
C      1  0.5569130000000  0.5351560000000  0.5461540000000 1.0
C      1  0.5239220000000  0.5060390000000  0.5769560000000 1.0
C      1  0.6178560000000  0.5702940000000  0.5164720000000 1.0
C      1  0.6175640000000  0.5068840000000  0.5912000000000 1.0
C      1  0.5055970000000  0.5104480000000  0.6222650000000 1.0
C      1  0.4377030000000  0.5578000000000  0.4168270000000 1.0
C      1  0.5147010000000  0.5909810000000  0.5324720000000 1.0
C      1  0.4499510000000  0.6084910000000  0.4508840000000 1.0
C      1  0.5386020000000  0.5996030000000  0.5163350000000 1.0
C      1  0.4311260000000  0.4975470000000  0.5339200000000 1.0
C      1  0.4862760000000  0.5063120000000  0.5353040000000 1.0
C      1  0.4679790000000  0.3861780000000  0.4169170000000 1.0
C      1  0.4047400000000  0.5278530000000  0.4327000000000 1.0
C      1  0.5373390000000  0.5778350000000  0.4211800000000 1.0
C      1  0.4173800000000  0.4894990000000  0.6131610000000 1.0
C      1  0.4264570000000  0.5253470000000  0.4800490000000 1.0
C      1  0.5059930000000  0.4899790000000  0.4931190000000 1.0
C      1  0.6096120000000  0.5706210000000  0.4531660000000 1.0
C      1  0.6012810000000  0.5243080000000  0.4340390000000 1.0
C      1  0.4961130000000  0.3781410000000  0.3778030000000 1.0
C      1  0.3736890000000  0.5118540000000  0.4911030000000 1.0
C      1  0.4652470000000  0.4783990000000  0.6142160000000 1.0
C      1  0.5388850000000  0.6047350000000  0.4645410000000 1.0
C      1  0.4651860000000  0.5917930000000  0.5785810000000 1.0
C      1  0.4348270000000  0.5960360000000  0.4713190000000 1.0
C      1  0.5058990000000  0.5463060000000  0.5543920000000 1.0
C      1  0.5363920000000  0.5503050000000  0.4135310000000 1.0
C      1  0.5260260000000  0.5959130000000  0.4402840000000 1.0
C      1  0.6135260000000  0.5903630000000  0.4710920000000 1.0
C      1  0.5798430000000  0.5359810000000  0.5931560000000 1.0
C      1  0.4397490000000  0.5261700000000  0.5401200000000 1.0
C      1  0.5191990000000  0.4174900000000  0.5644280000000 1.0
C      1  0.4480560000000  0.5095500000000  0.5803840000000 1.0
C      1  0.4430770000000  0.4925190000000  0.6028620000000 1.0
C      1  0.5746960000000  0.4850780000000  0.5962250000000 1.0
C      1  0.5512650000000  0.5635020000000  0.5477620000000 1.0
C      1  0.4141620000000  0.4894710000000  0.3501740000000 1.0
C      1  0.4538170000000  0.3931260000000  0.5325440000000 1.0
C      1  0.4858070000000  0.4873930000000  0.5123410000000 1.0
C      1  0.4501200000000  0.3864240000000  0.4371660000000 1.0
C      1  0.4751710000000  0.4457930000000  0.4860330000000 1.0
C      1  0.4651660000000  0.5339720000000  0.3809590000000 1.0
C      1  0.4154020000000  0.4287890000000  0.4939670000000 1.0
C      1  0.3814140000000  0.5005370000000  0.5159590000000 1.0
C      1  0.3818340000000  0.4967230000000  0.4679230000000 1.0
C      1  0.3883670000000  0.4171800000000  0.5324480000000 1.0
C      1  0.4107920000000  0.4334180000000  0.4458960000000 1.0
C      1  0.4863670000000  0.6300980000000  0.4968390000000 1.0
C      1  0.5026940000000  0.4477630000000  0.6098620000000 1.0
C      1  0.5035750000000  0.4336910000000  0.4792090000000 1.0
C      1  0.3670590000000  0.4833070000000  0.6285630000000 1.0
C      1  0.6131050000000  0.5392920000000  0.5540460000000 1.0
C      1  0.5144370000000  0.4784550000000  0.5759160000000 1.0
C      1  0.6066790000000  0.5317780000000  0.5811600000000 1.0
C      1  0.5833610000000  0.4374620000000  0.4350100000000 1.0
C      1  0.4182660000000  0.4156740000000  0.4674100000000 1.0
C      1  0.4993110000000  0.5088480000000  0.4733660000000 1.0
C      1  0.3422370000000  0.4802670000000  0.6359310000000 1.0
C      1  0.4481880000000  0.5693740000000  0.5895670000000 1.0
C      1  0.4034710000000  0.5743360000000  0.4979740000000 1.0
C      1  0.5342800000000  0.4840460000000  0.4941060000000 1.0
C      1  0.5600710000000  0.5842100000000  0.5287880000000 1.0
C      1  0.5978770000000  0.4767310000000  0.5280810000000 1.0
C      1  0.4607150000000  0.5557680000000  0.4869230000000 1.0
C      1  0.5419170000000  0.5190970000000  0.4570270000000 1.0
C      1  0.5363860000000  0.3719980000000  0.5169380000000 1.0
C      1  0.5697580000000  0.5793530000000  0.6132400000000 1.0
C      1  0.4200690000000  0.5416850000000  0.4561990000000 1.0
C      1  0.4450160000000  0.4702570000000  0.4435310000000 1.0
C      1  0.4476760000000  0.5448730000000  0.4421490000000 1.0
C      1  0.4422490000000  0.5399560000000  0.4977880000000 1.0
C      1  0.4628070000000  0.5451920000000  0.5411520000000 1.0
C      1  0.5957500000000  0.4960920000000  0.4353890000000 1.0
C      1  0.5063540000000  0.5261580000000  0.5336580000000 1.0
C      1  0.4693680000000  0.5722180000000  0.5335130000000 1.0
C      1  0.4215840000000  0.4563930000000  0.4365630000000 1.0
C      1  0.4618980000000  0.4684460000000  0.5064320000000 1.0
C      1  0.5263780000000  0.5255750000000  0.5141610000000 1.0
C      1  0.4203470000000  0.5360350000000  0.4063030000000 1.0
C      1  0.3787250000000  0.5616520000000  0.5003720000000 1.0
C      1  0.4862340000000  0.5289950000000  0.4221410000000 1.0
C      1  0.4897590000000  0.5845340000000  0.5159770000000 1.0
C      1  0.4156090000000  0.5738710000000  0.4710770000000 1.0
C      1  0.4357670000000  0.4134610000000  0.5417760000000 1.0
C      1  0.5195430000000  0.5383580000000  0.3922290000000 1.0
C      1  0.5491240000000  0.4704350000000  0.4512210000000 1.0
C      1  0.3670440000000  0.5390160000000  0.4920720000000 1.0
C      1  0.5224680000000  0.5691470000000  0.5507390000000 1.0
C      1  0.6190230000000  0.4603790000000  0.4639080000000 1.0
C      1  0.6004420000000  0.4244210000000  0.4194460000000 1.0
C      1  0.4749180000000  0.6100160000000  0.4403560000000 1.0
C      1  0.5508580000000  0.4168350000000  0.5276000000000 1.0
C      1  0.4424990000000  0.4253730000000  0.5675970000000 1.0
C      1  0.5306680000000  0.5145970000000  0.3811690000000 1.0
C      1  0.4485560000000  0.4722060000000  0.5344640000000 1.0
C      1  0.6156120000000  0.5436840000000  0.5057880000000 1.0
C      1  0.4128290000000  0.4574690000000  0.4893120000000 1.0
C      1  0.4943430000000  0.4622110000000  0.5612750000000 1.0
C      1  0.4366690000000  0.5258070000000  0.3838070000000 1.0
C      1  0.5749130000000  0.3915670000000  0.4935490000000 1.0
C      1  0.5117920000000  0.4815230000000  0.4129450000000 1.0
C      1  0.4684220000000  0.5489590000000  0.5926180000000 1.0
C      1  0.6175010000000  0.4117150000000  0.4043820000000 1.0
C      1  0.6172400000000  0.5910720000000  0.4978140000000 1.0
C      1  0.4736220000000  0.4515980000000  0.6063320000000 1.0
C      1  0.4950570000000  0.3875780000000  0.4693720000000 1.0
C      1  0.4302350000000  0.5302620000000  0.5677770000000 1.0
C      1  0.6032050000000  0.4817010000000  0.5921920000000 1.0
C      1  0.5204590000000  0.5224750000000  0.6014020000000 1.0
C      1  0.4562230000000  0.4351660000000  0.5894120000000 1.0
END
