TITL C-247197-3123-488 0.631752625561843 125000 -343.775922898076 0 0 57 (C1) n - 1
REM
REM in /home/nfs/bkarasulu/CARBON/AIRSS/Generating-Clusters/LCBOP/Only-C1/SD-CG/FIRE-HFTN
REM
REM
REM
REM
REM
REM ./C.cell (11c1c37f851c82e70ff6c80c92926a4b)
REM AIRSS Version 0.9.1 bugfix July 2018 build 013d7b7c2542+ Fri, 06 Jul 2018 19:26:36 +0100
REM compiler GCC version 9.2.1 20190827 (Red Hat 9.2.1-1)
REM options -cpp -mtune=generic -march=x86-64 -g -O0 -fpre-include=/usr/include/finclude/math-vector-fortran.h
REM seed 1250756567 366458524 1711262551 1506840148 401699091 -31439499 891995872 1182774508 -1140862813 -1874183737 -2404827 586228808 1680632361 -589588839 1779448862 -1533575813 2084976393 -1417887699 -1088514257 -424717855 1270440601 -236450643 -1859182634 1549529740 -1955246329 993705194 -1331425256 951165965 2100423055 951126913 1524058145 -1005713439 -1845225643
REM
CELL 1.54180   50.00000   50.00000   50.00000   90.00000   90.00000   90.00000
LATT -1
SFAC C  
C      1  0.4983800000000  0.5095180000000  0.5316830000000 1.0
C      1  0.5518690000000  0.4842560000000  0.5551620000000 1.0
C      1  0.4110600000000  0.5002970000000  0.4155080000000 1.0
C      1  0.5746170000000  0.5328350000000  0.5099340000000 1.0
C      1  0.7441130000000  0.5007590000000  0.6176100000000 1.0
C      1  0.4634960000000  0.4588460000000  0.4138470000000 1.0
C      1  0.4949970000000  0.5170990000000  0.4831090000000 1.0
C      1  0.4008730000000  0.4803340000000  0.5057600000000 1.0
C      1  0.4081800000000  0.5366000000000  0.4974330000000 1.0
C      1  0.5025800000000  0.5891950000000  0.4821740000000 1.0
C      1  0.5082790000000  0.5529280000000  0.5127110000000 1.0
C      1  0.3811200000000  0.4967510000000  0.4932110000000 1.0
C      1  0.5423840000000  0.4717410000000  0.4813150000000 1.0
C      1  0.4178150000000  0.5255900000000  0.4204780000000 1.0
C      1  0.4097080000000  0.4565850000000  0.4926300000000 1.0
C      1  0.5477750000000  0.5752530000000  0.4990850000000 1.0
C      1  0.4310750000000  0.4827950000000  0.5458490000000 1.0
C      1  0.3846830000000  0.5233100000000  0.4883390000000 1.0
C      1  0.4827920000000  0.5355240000000  0.4657160000000 1.0
C      1  0.5144760000000  0.4708640000000  0.4860460000000 1.0
C      1  0.4561380000000  0.4380640000000  0.5110830000000 1.0
C      1  0.7202830000000  0.4998950000000  0.6070730000000 1.0
C      1  0.5586450000000  0.4891570000000  0.4959780000000 1.0
C      1  0.4501440000000  0.4870730000000  0.4661850000000 1.0
C      1  0.4803210000000  0.4493420000000  0.5199460000000 1.0
C      1  0.4171630000000  0.4947090000000  0.5248510000000 1.0
C      1  0.4290300000000  0.5453460000000  0.4344130000000 1.0
C      1  0.4806440000000  0.5829400000000  0.4678200000000 1.0
C      1  0.4375100000000  0.4607600000000  0.4075620000000 1.0
C      1  0.5007890000000  0.4854280000000  0.5458220000000 1.0
C      1  0.6960550000000  0.4990170000000  0.5963580000000 1.0
C      1  0.5675080000000  0.5577480000000  0.5036440000000 1.0
C      1  0.6476100000000  0.4972620000000  0.5749360000000 1.0
C      1  0.5536060000000  0.4552270000000  0.4617810000000 1.0
C      1  0.4203370000000  0.5224590000000  0.5189380000000 1.0
C      1  0.4756450000000  0.4808510000000  0.4581670000000 1.0
C      1  0.4790930000000  0.4669970000000  0.4340500000000 1.0
C      1  0.5991950000000  0.4955600000000  0.5534730000000 1.0
C      1  0.5007050000000  0.5261630000000  0.5095430000000 1.0
C      1  0.4393540000000  0.5553900000000  0.4585450000000 1.0
C      1  0.4225640000000  0.5540700000000  0.4811150000000 1.0
C      1  0.5699050000000  0.5057630000000  0.5155300000000 1.0
C      1  0.6718320000000  0.4981400000000  0.5856470000000 1.0
C      1  0.6233880000000  0.4963850000000  0.5642240000000 1.0
C      1  0.4795810000000  0.4668140000000  0.5426780000000 1.0
C      1  0.5632700000000  0.4397000000000  0.4432160000000 1.0
C      1  0.4544290000000  0.4725700000000  0.5537380000000 1.0
C      1  0.4968810000000  0.4900230000000  0.4746530000000 1.0
C      1  0.5739220000000  0.4952060000000  0.5417220000000 1.0
C      1  0.5197420000000  0.5749200000000  0.4993090000000 1.0
C      1  0.5024860000000  0.4516350000000  0.5027730000000 1.0
C      1  0.5256920000000  0.4797250000000  0.5571440000000 1.0
C      1  0.4673110000000  0.5587710000000  0.4621620000000 1.0
C      1  0.4019680000000  0.4593000000000  0.4402420000000 1.0
C      1  0.4147170000000  0.4726780000000  0.4190730000000 1.0
C      1  0.4309140000000  0.4413220000000  0.5029710000000 1.0
C      1  0.4013530000000  0.4525070000000  0.4660340000000 1.0
END
