TITL C-247196-3112-267 6310.84044610988 125000 -1031.98467439168 0 0 168 (C1) n - 1
REM
REM in /home/nfs/bkarasulu/CARBON/AIRSS/Generating-Clusters/LCBOP/Only-C1/SD-CG/FIRE-HFTN
REM
REM
REM
REM
REM
REM ./C.cell (11c1c37f851c82e70ff6c80c92926a4b)
REM AIRSS Version 0.9.1 bugfix July 2018 build 013d7b7c2542+ Fri, 06 Jul 2018 19:26:36 +0100
REM compiler GCC version 9.2.1 20190827 (Red Hat 9.2.1-1)
REM options -cpp -mtune=generic -march=x86-64 -g -O0 -fpre-include=/usr/include/finclude/math-vector-fortran.h
REM seed -1968897405 903691376 1766258225 -341190207 1698851332 -804050114 700041913 -1340554893 936805847 -1025904997 1130945792 -209432166 -493667008 -596067350 -1381661123 67078166 -788750240 -982071608 -350579027 589018547 1050846034 8228970 1939474899 -180457779 -605355603 -1851802119 1700632592 840604813 1099324459 -99925819 -2076478391 -1313503336 -905375047
REM
CELL 1.54180   50.00000   50.00000   50.00000   90.00000   90.00000   90.00000
LATT -1
SFAC C  
C      1  0.5200650000000  0.5350950000000  0.3906380000000 1.0
C      1  0.4594830000000  0.5278000000000  0.6061420000000 1.0
C      1  0.4657840000000  0.5877100000000  0.4486300000000 1.0
C      1  0.5124470000000  0.5302860000000  0.5225440000000 1.0
C      1  0.5417630000000  0.5316460000000  0.4465310000000 1.0
C      1  0.5650640000000  0.4839200000000  0.5076880000000 1.0
C      1  0.4313010000000  0.4313040000000  0.5169440000000 1.0
C      1  0.4181740000000  0.4692070000000  0.4607690000000 1.0
C      1  0.4112320000000  0.5495440000000  0.5228440000000 1.0
C      1  0.5675350000000  0.5485310000000  0.5435440000000 1.0
C      1  0.4269730000000  0.4073660000000  0.5058010000000 1.0
C      1  0.4193050000000  0.4005550000000  0.4809340000000 1.0
C      1  0.5543800000000  0.5055710000000  0.4943000000000 1.0
C      1  0.4568490000000  0.5182800000000  0.5280080000000 1.0
C      1  0.5113170000000  0.5007980000000  0.5163630000000 1.0
C      1  0.3940280000000  0.5373240000000  0.4768690000000 1.0
C      1  0.4606980000000  0.5991750000000  0.5109290000000 1.0
C      1  0.5060080000000  0.6009610000000  0.5244720000000 1.0
C      1  0.4686130000000  0.4660690000000  0.5523310000000 1.0
C      1  0.5285360000000  0.4125950000000  0.5159530000000 1.0
C      1  0.5424240000000  0.5546700000000  0.4625660000000 1.0
C      1  0.3943750000000  0.4809950000000  0.5430820000000 1.0
C      1  0.3889450000000  0.4363830000000  0.4647280000000 1.0
C      1  0.5984020000000  0.5041560000000  0.5752260000000 1.0
C      1  0.5734960000000  0.3849810000000  0.4639690000000 1.0
C      1  0.4875010000000  0.4882680000000  0.5054030000000 1.0
C      1  0.5567140000000  0.5322810000000  0.5016060000000 1.0
C      1  0.4866000000000  0.5540890000000  0.5765300000000 1.0
C      1  0.4386080000000  0.5785240000000  0.4456390000000 1.0
C      1  0.4751280000000  0.5486240000000  0.4022280000000 1.0
C      1  0.3928780000000  0.5033730000000  0.5224180000000 1.0
C      1  0.5299920000000  0.4840250000000  0.5402840000000 1.0
C      1  0.5334510000000  0.6030150000000  0.5185370000000 1.0
C      1  0.4152220000000  0.5515020000000  0.4923630000000 1.0
C      1  0.4616090000000  0.5439430000000  0.5195870000000 1.0
C      1  0.5790790000000  0.4236030000000  0.4171930000000 1.0
C      1  0.5489710000000  0.5296530000000  0.5538130000000 1.0
C      1  0.5416410000000  0.5731430000000  0.5936610000000 1.0
C      1  0.5300000000000  0.4697850000000  0.4160590000000 1.0
C      1  0.4818460000000  0.4842330000000  0.4556780000000 1.0
C      1  0.6082590000000  0.5112750000000  0.4991550000000 1.0
C      1  0.4372520000000  0.5987930000000  0.4958460000000 1.0
C      1  0.4331200000000  0.4574270000000  0.5121460000000 1.0
C      1  0.4685010000000  0.4928090000000  0.5617110000000 1.0
C      1  0.5788920000000  0.4502240000000  0.4744340000000 1.0
C      1  0.4666480000000  0.4670040000000  0.4370940000000 1.0
C      1  0.4636770000000  0.4797100000000  0.6082780000000 1.0
C      1  0.5143520000000  0.4525380000000  0.6097490000000 1.0
C      1  0.5525380000000  0.5147950000000  0.4037790000000 1.0
C      1  0.4182760000000  0.5812500000000  0.4883930000000 1.0
C      1  0.4898820000000  0.4735700000000  0.4810480000000 1.0
C      1  0.4402300000000  0.5374830000000  0.4793500000000 1.0
C      1  0.4429050000000  0.5016700000000  0.6020570000000 1.0
C      1  0.5628090000000  0.5764470000000  0.5450830000000 1.0
C      1  0.4406130000000  0.4380520000000  0.5933100000000 1.0
C      1  0.5422930000000  0.4622930000000  0.5185500000000 1.0
C      1  0.5884710000000  0.4186440000000  0.5314250000000 1.0
C      1  0.5295280000000  0.5929470000000  0.4393430000000 1.0
C      1  0.5055880000000  0.4505100000000  0.4831140000000 1.0
C      1  0.4901050000000  0.4928460000000  0.6135200000000 1.0
C      1  0.5082860000000  0.5397770000000  0.6193400000000 1.0
C      1  0.5271420000000  0.5570750000000  0.6101090000000 1.0
C      1  0.5057610000000  0.4576540000000  0.4067280000000 1.0
C      1  0.4965240000000  0.5734570000000  0.4855610000000 1.0
C      1  0.5112520000000  0.5088530000000  0.3915550000000 1.0
C      1  0.5799970000000  0.5489710000000  0.4210640000000 1.0
C      1  0.4369770000000  0.4117640000000  0.6002580000000 1.0
C      1  0.5327110000000  0.4545480000000  0.4887440000000 1.0
C      1  0.5197720000000  0.5760220000000  0.4166770000000 1.0
C      1  0.4186040000000  0.5595960000000  0.4342090000000 1.0
C      1  0.5013840000000  0.4327280000000  0.5689130000000 1.0
C      1  0.4949650000000  0.5799880000000  0.5692690000000 1.0
C      1  0.4258100000000  0.5595390000000  0.4061100000000 1.0
C      1  0.4000200000000  0.5092300000000  0.4379950000000 1.0
C      1  0.5494370000000  0.5815670000000  0.4592060000000 1.0
C      1  0.4478100000000  0.5167960000000  0.4325450000000 1.0
C      1  0.3904830000000  0.4657260000000  0.4669820000000 1.0
C      1  0.5698400000000  0.4043330000000  0.5493760000000 1.0
C      1  0.5303680000000  0.5011170000000  0.4832550000000 1.0
C      1  0.5846270000000  0.4529720000000  0.5955500000000 1.0
C      1  0.4178190000000  0.5722140000000  0.5385970000000 1.0
C      1  0.4007890000000  0.5381570000000  0.4471460000000 1.0
C      1  0.5562000000000  0.4225430000000  0.5681610000000 1.0
C      1  0.4899100000000  0.5444030000000  0.4437240000000 1.0
C      1  0.5968160000000  0.4370440000000  0.4352930000000 1.0
C      1  0.5430410000000  0.4623960000000  0.4405170000000 1.0
C      1  0.4944380000000  0.5182950000000  0.4572570000000 1.0
C      1  0.4866080000000  0.5211950000000  0.6173510000000 1.0
C      1  0.4410960000000  0.4814120000000  0.5001450000000 1.0
C      1  0.5219140000000  0.3907410000000  0.5023410000000 1.0
C      1  0.5729590000000  0.5822460000000  0.4865690000000 1.0
C      1  0.4927940000000  0.4392850000000  0.5959480000000 1.0
C      1  0.5836370000000  0.4927070000000  0.5550160000000 1.0
C      1  0.5768240000000  0.5401990000000  0.5191690000000 1.0
C      1  0.4880760000000  0.5945860000000  0.5023590000000 1.0
C      1  0.4616580000000  0.4961450000000  0.5117230000000 1.0
C      1  0.4127280000000  0.4182040000000  0.4599060000000 1.0
C      1  0.4873030000000  0.4198880000000  0.4478430000000 1.0
C      1  0.4881250000000  0.5288830000000  0.4844810000000 1.0
C      1  0.5277990000000  0.4129100000000  0.4145900000000 1.0
C      1  0.4641140000000  0.4351250000000  0.4401080000000 1.0
C      1  0.6124600000000  0.5108510000000  0.4686400000000 1.0
C      1  0.5531260000000  0.3892100000000  0.4447160000000 1.0
C      1  0.4390980000000  0.5826710000000  0.5539780000000 1.0
C      1  0.4199150000000  0.4516730000000  0.5791090000000 1.0
C      1  0.5890420000000  0.4043370000000  0.4775190000000 1.0
C      1  0.5595230000000  0.5312010000000  0.4244600000000 1.0
C      1  0.4400700000000  0.4738710000000  0.4232000000000 1.0
C      1  0.4945870000000  0.4266830000000  0.4743400000000 1.0
C      1  0.5922050000000  0.4454390000000  0.5453180000000 1.0
C      1  0.4689150000000  0.5209250000000  0.4116580000000 1.0
C      1  0.4238650000000  0.4552090000000  0.4367350000000 1.0
C      1  0.5185430000000  0.3796860000000  0.4782570000000 1.0
C      1  0.4066000000000  0.5251050000000  0.5366070000000 1.0
C      1  0.4338920000000  0.4888260000000  0.4737390000000 1.0
C      1  0.5981350000000  0.5574300000000  0.4830120000000 1.0
C      1  0.5373870000000  0.5486760000000  0.4893990000000 1.0
C      1  0.5043520000000  0.5562660000000  0.4015420000000 1.0
C      1  0.5931700000000  0.4077360000000  0.5056430000000 1.0
C      1  0.5331200000000  0.4356280000000  0.5317300000000 1.0
C      1  0.6077330000000  0.5393370000000  0.4614490000000 1.0
C      1  0.4258980000000  0.4997600000000  0.4231970000000 1.0
C      1  0.5557680000000  0.4076270000000  0.4215690000000 1.0
C      1  0.5987760000000  0.4686110000000  0.4824140000000 1.0
C      1  0.4849810000000  0.5005210000000  0.3983250000000 1.0
C      1  0.5082980000000  0.4047950000000  0.4349090000000 1.0
C      1  0.4497100000000  0.5116570000000  0.5531000000000 1.0
C      1  0.4844150000000  0.4720690000000  0.3973300000000 1.0
C      1  0.4509240000000  0.5620270000000  0.3954810000000 1.0
C      1  0.5968460000000  0.4730920000000  0.5372870000000 1.0
C      1  0.4639940000000  0.5423620000000  0.4920380000000 1.0
C      1  0.4887520000000  0.5969790000000  0.5480000000000 1.0
C      1  0.5293840000000  0.4305990000000  0.5601080000000 1.0
C      1  0.4229550000000  0.5175160000000  0.5598050000000 1.0
C      1  0.5089560000000  0.5471080000000  0.4976060000000 1.0
C      1  0.5126790000000  0.4794310000000  0.6002800000000 1.0
C      1  0.4932980000000  0.5043200000000  0.5679510000000 1.0
C      1  0.3855250000000  0.5110140000000  0.4888470000000 1.0
C      1  0.5236400000000  0.5121440000000  0.4583180000000 1.0
C      1  0.4344700000000  0.4291550000000  0.4427680000000 1.0
C      1  0.5913150000000  0.4279390000000  0.4623340000000 1.0
C      1  0.4824290000000  0.4429850000000  0.5502890000000 1.0
C      1  0.5345210000000  0.4940910000000  0.4018790000000 1.0
C      1  0.4195150000000  0.4998770000000  0.5827510000000 1.0
C      1  0.5310860000000  0.4421230000000  0.6282700000000 1.0
C      1  0.5772220000000  0.4426220000000  0.5715040000000 1.0
C      1  0.4845840000000  0.5684240000000  0.4588320000000 1.0
C      1  0.4419950000000  0.5149760000000  0.4620320000000 1.0
C      1  0.6084660000000  0.4645230000000  0.4362050000000 1.0
C      1  0.5249510000000  0.3868960000000  0.4520060000000 1.0
C      1  0.5516480000000  0.4556250000000  0.4672570000000 1.0
C      1  0.3823150000000  0.4932060000000  0.4654550000000 1.0
C      1  0.4652380000000  0.4512780000000  0.6007200000000 1.0
C      1  0.5091750000000  0.6127730000000  0.4448710000000 1.0
C      1  0.4816220000000  0.6112900000000  0.4437270000000 1.0
C      1  0.4608430000000  0.5510220000000  0.5890480000000 1.0
C      1  0.4080180000000  0.4757150000000  0.5697090000000 1.0
C      1  0.6099390000000  0.4831420000000  0.4592360000000 1.0
C      1  0.4425240000000  0.5701630000000  0.5794180000000 1.0
C      1  0.5529100000000  0.5835640000000  0.5711170000000 1.0
C      1  0.5563470000000  0.5015820000000  0.5503560000000 1.0
C      1  0.4602330000000  0.5966820000000  0.5401600000000 1.0
C      1  0.5214390000000  0.5357590000000  0.5486820000000 1.0
C      1  0.5007570000000  0.5316500000000  0.5671530000000 1.0
C      1  0.5949730000000  0.4832930000000  0.5085140000000 1.0
C      1  0.6014410000000  0.5389230000000  0.5065010000000 1.0
C      1  0.5141990000000  0.4854000000000  0.5713010000000 1.0
C      1  0.5585000000000  0.5893670000000  0.5184100000000 1.0
END
