TITL C-247202-1916-234 10137.9029460639 125000 -1152.85134203008 0 0 187 (C1) n - 1
REM
REM in /home/nfs/bkarasulu/CARBON/AIRSS/Generating-Clusters/LCBOP/Only-C1/SD-CG/FIRE-HFTN
REM
REM
REM
REM
REM
REM ./C.cell (11c1c37f851c82e70ff6c80c92926a4b)
REM AIRSS Version 0.9.1 bugfix July 2018 build 013d7b7c2542+ Fri, 06 Jul 2018 19:26:36 +0100
REM compiler GCC version 9.2.1 20190827 (Red Hat 9.2.1-1)
REM options -cpp -mtune=generic -march=x86-64 -g -O0 -fpre-include=/usr/include/finclude/math-vector-fortran.h
REM seed 120285921 1071098013 343647741 -175589710 349763705 1459195150 -1221675414 531662468 -440617894 230960019 1527959809 -271582508 1172926806 -708917707 1681450850 -929358195 382527441 -7988828 1981760271 -247887932 -1306065795 -309972700 -1440800138 746693340 1483377549 1942519809 -1937149408 1483604725 -744530090 -1794041208 1221430088 351721028 -786118200
REM
CELL 1.54180   50.00000   50.00000   50.00000   90.00000   90.00000   90.00000
LATT -1
SFAC C  
C      1  0.4187060000000  0.5011350000000  0.4116510000000 1.0
C      1  0.5590510000000  0.4951070000000  0.5378970000000 1.0
C      1  0.5351380000000  0.5010430000000  0.4508640000000 1.0
C      1  0.5708420000000  0.4861940000000  0.5148480000000 1.0
C      1  0.4886620000000  0.6252060000000  0.4372680000000 1.0
C      1  0.3858530000000  0.4796370000000  0.5138210000000 1.0
C      1  0.4782890000000  0.4617420000000  0.4361350000000 1.0
C      1  0.4213560000000  0.4508300000000  0.4860840000000 1.0
C      1  0.4442970000000  0.5117480000000  0.5915070000000 1.0
C      1  0.5924160000000  0.4630620000000  0.5979970000000 1.0
C      1  0.4766270000000  0.5516170000000  0.6160150000000 1.0
C      1  0.5849960000000  0.5202970000000  0.4443930000000 1.0
C      1  0.5759910000000  0.4825180000000  0.4113710000000 1.0
C      1  0.4745230000000  0.4594130000000  0.5270820000000 1.0
C      1  0.5213680000000  0.4623400000000  0.6282440000000 1.0
C      1  0.4006760000000  0.4639430000000  0.4958600000000 1.0
C      1  0.5579430000000  0.5966400000000  0.5121480000000 1.0
C      1  0.5016630000000  0.5752560000000  0.4136150000000 1.0
C      1  0.5387700000000  0.5376880000000  0.5533910000000 1.0
C      1  0.4790250000000  0.5644190000000  0.4273880000000 1.0
C      1  0.6153930000000  0.5066160000000  0.5394810000000 1.0
C      1  0.4867830000000  0.5098200000000  0.5335910000000 1.0
C      1  0.5043840000000  0.4837600000000  0.6372060000000 1.0
C      1  0.3763090000000  0.5148380000000  0.5595270000000 1.0
C      1  0.5496720000000  0.4758500000000  0.3981710000000 1.0
C      1  0.4329430000000  0.5521540000000  0.4122950000000 1.0
C      1  0.5258820000000  0.4103630000000  0.4793440000000 1.0
C      1  0.5257080000000  0.5270760000000  0.4558570000000 1.0
C      1  0.5778260000000  0.5601430000000  0.5334510000000 1.0
C      1  0.4491950000000  0.5998330000000  0.4179830000000 1.0
C      1  0.4243100000000  0.5550930000000  0.4785670000000 1.0
C      1  0.3853970000000  0.4417440000000  0.4179440000000 1.0
C      1  0.5910840000000  0.5799610000000  0.4741430000000 1.0
C      1  0.4587950000000  0.5146670000000  0.3794700000000 1.0
C      1  0.5171800000000  0.4407910000000  0.4132340000000 1.0
C      1  0.6224160000000  0.4885820000000  0.4650370000000 1.0
C      1  0.5431890000000  0.5721520000000  0.4396400000000 1.0
C      1  0.5760890000000  0.4228720000000  0.5743830000000 1.0
C      1  0.4595130000000  0.5158670000000  0.4268770000000 1.0
C      1  0.4362100000000  0.3919310000000  0.4541940000000 1.0
C      1  0.4402810000000  0.5340310000000  0.5177210000000 1.0
C      1  0.4567120000000  0.5487300000000  0.5362750000000 1.0
C      1  0.5117910000000  0.4279450000000  0.4384380000000 1.0
C      1  0.5069570000000  0.5871350000000  0.5834800000000 1.0
C      1  0.3953590000000  0.5569740000000  0.5414470000000 1.0
C      1  0.5486230000000  0.4261990000000  0.5707080000000 1.0
C      1  0.5843600000000  0.5119260000000  0.5001440000000 1.0
C      1  0.5328030000000  0.4150010000000  0.4523160000000 1.0
C      1  0.4072960000000  0.5468980000000  0.4567680000000 1.0
C      1  0.3700310000000  0.4995130000000  0.5008250000000 1.0
C      1  0.5377290000000  0.4458320000000  0.5882860000000 1.0
C      1  0.3883220000000  0.4721730000000  0.5418870000000 1.0
C      1  0.4826940000000  0.4402880000000  0.5455400000000 1.0
C      1  0.4451790000000  0.4040740000000  0.4322450000000 1.0
C      1  0.4464300000000  0.4433970000000  0.4896290000000 1.0
C      1  0.3711720000000  0.4318370000000  0.4381320000000 1.0
C      1  0.4807240000000  0.5332320000000  0.3777220000000 1.0
C      1  0.5931680000000  0.5526860000000  0.5558000000000 1.0
C      1  0.6037860000000  0.4848040000000  0.5836900000000 1.0
C      1  0.4946290000000  0.5087750000000  0.6419140000000 1.0
C      1  0.5125120000000  0.5012680000000  0.5264090000000 1.0
C      1  0.4983430000000  0.5294750000000  0.4630730000000 1.0
C      1  0.6211480000000  0.4241580000000  0.5920540000000 1.0
C      1  0.5621720000000  0.4367150000000  0.5148680000000 1.0
C      1  0.6079860000000  0.4419020000000  0.4702010000000 1.0
C      1  0.4710410000000  0.4498230000000  0.5004960000000 1.0
C      1  0.6052660000000  0.3802650000000  0.5398540000000 1.0
C      1  0.5355020000000  0.4710410000000  0.5762870000000 1.0
C      1  0.3863890000000  0.4211590000000  0.5323250000000 1.0
C      1  0.5544600000000  0.5814850000000  0.5380280000000 1.0
C      1  0.5000180000000  0.5640220000000  0.6001270000000 1.0
C      1  0.5296660000000  0.5617600000000  0.5421570000000 1.0
C      1  0.5823860000000  0.5091860000000  0.4195910000000 1.0
C      1  0.4247760000000  0.3875960000000  0.4778800000000 1.0
C      1  0.6466070000000  0.4710870000000  0.5043580000000 1.0
C      1  0.6258530000000  0.5403930000000  0.4643010000000 1.0
C      1  0.4990890000000  0.4835720000000  0.4840850000000 1.0
C      1  0.5532580000000  0.5968490000000  0.5638550000000 1.0
C      1  0.4409150000000  0.4910920000000  0.5370740000000 1.0
C      1  0.4677820000000  0.4486770000000  0.4103300000000 1.0
C      1  0.5789770000000  0.4044980000000  0.4632580000000 1.0
C      1  0.4402280000000  0.5225120000000  0.4038680000000 1.0
C      1  0.5073410000000  0.5562540000000  0.5247080000000 1.0
C      1  0.4163660000000  0.5033830000000  0.4416440000000 1.0
C      1  0.5177790000000  0.4292070000000  0.4986030000000 1.0
C      1  0.3984850000000  0.5192340000000  0.4573970000000 1.0
C      1  0.4396920000000  0.4680870000000  0.5872170000000 1.0
C      1  0.5337690000000  0.4633060000000  0.4184420000000 1.0
C      1  0.5565710000000  0.4912710000000  0.4653350000000 1.0
C      1  0.4837120000000  0.5077250000000  0.4758640000000 1.0
C      1  0.5879040000000  0.5911350000000  0.4483550000000 1.0
C      1  0.5273790000000  0.4871660000000  0.3812730000000 1.0
C      1  0.4929060000000  0.5958300000000  0.5597870000000 1.0
C      1  0.4646820000000  0.5328430000000  0.5959310000000 1.0
C      1  0.4841360000000  0.5396910000000  0.5334670000000 1.0
C      1  0.5014250000000  0.4271240000000  0.5618210000000 1.0
C      1  0.4680830000000  0.4280080000000  0.5980000000000 1.0
C      1  0.4919960000000  0.4433030000000  0.4539430000000 1.0
C      1  0.4985750000000  0.4735310000000  0.3789080000000 1.0
C      1  0.4906660000000  0.5215150000000  0.5858350000000 1.0
C      1  0.3865890000000  0.4080650000000  0.5073920000000 1.0
C      1  0.3927630000000  0.4919240000000  0.5627530000000 1.0
C      1  0.5937010000000  0.4201300000000  0.4817940000000 1.0
C      1  0.4066710000000  0.5536840000000  0.5887000000000 1.0
C      1  0.3679780000000  0.4151750000000  0.4874330000000 1.0
C      1  0.5347120000000  0.4295430000000  0.5220890000000 1.0
C      1  0.4611490000000  0.4869570000000  0.5901460000000 1.0
C      1  0.4236610000000  0.4746780000000  0.4009490000000 1.0
C      1  0.5202780000000  0.5575980000000  0.4994360000000 1.0
C      1  0.5777860000000  0.5098360000000  0.4701750000000 1.0
C      1  0.4840870000000  0.5509760000000  0.4514890000000 1.0
C      1  0.4550500000000  0.4226860000000  0.4159200000000 1.0
C      1  0.4418930000000  0.5346920000000  0.4895250000000 1.0
C      1  0.5512990000000  0.5214450000000  0.5347990000000 1.0
C      1  0.6151980000000  0.3604010000000  0.5535040000000 1.0
C      1  0.5741350000000  0.4669930000000  0.6195580000000 1.0
C      1  0.6276180000000  0.4878030000000  0.4938550000000 1.0
C      1  0.4270190000000  0.5120660000000  0.5284840000000 1.0
C      1  0.4953470000000  0.4477980000000  0.3950030000000 1.0
C      1  0.5946280000000  0.4007090000000  0.5267720000000 1.0
C      1  0.5667360000000  0.5805270000000  0.4900100000000 1.0
C      1  0.5680600000000  0.5831200000000  0.4321240000000 1.0
C      1  0.4418770000000  0.5956140000000  0.5032070000000 1.0
C      1  0.4947500000000  0.4525450000000  0.4827660000000 1.0
C      1  0.4552670000000  0.5134460000000  0.4749140000000 1.0
C      1  0.5672610000000  0.5367080000000  0.5129270000000 1.0
C      1  0.5133650000000  0.5387250000000  0.5914730000000 1.0
C      1  0.6075670000000  0.4654530000000  0.4528960000000 1.0
C      1  0.3803540000000  0.5103380000000  0.4767540000000 1.0
C      1  0.5840210000000  0.4191420000000  0.5088680000000 1.0
C      1  0.4083960000000  0.3927290000000  0.4983440000000 1.0
C      1  0.4439320000000  0.5906150000000  0.5655080000000 1.0
C      1  0.5000490000000  0.5765140000000  0.3855010000000 1.0
C      1  0.5424930000000  0.5501570000000  0.4589480000000 1.0
C      1  0.5160660000000  0.4419430000000  0.6072630000000 1.0
C      1  0.5969670000000  0.4363480000000  0.5880770000000 1.0
C      1  0.3872060000000  0.4442230000000  0.5460720000000 1.0
C      1  0.5607460000000  0.4165400000000  0.4451460000000 1.0
C      1  0.4508650000000  0.4680930000000  0.3940720000000 1.0
C      1  0.4144420000000  0.4925870000000  0.5812370000000 1.0
C      1  0.4109340000000  0.5560800000000  0.4301660000000 1.0
C      1  0.5647300000000  0.4621250000000  0.5027540000000 1.0
C      1  0.4954580000000  0.4289410000000  0.5910080000000 1.0
C      1  0.4570610000000  0.6075650000000  0.5242710000000 1.0
C      1  0.4869640000000  0.5591340000000  0.3693380000000 1.0
C      1  0.5903360000000  0.5310080000000  0.5740450000000 1.0
C      1  0.5880040000000  0.4619910000000  0.4295350000000 1.0
C      1  0.6049560000000  0.5072280000000  0.5664570000000 1.0
C      1  0.4857580000000  0.5094620000000  0.4198400000000 1.0
C      1  0.5282830000000  0.4232900000000  0.5500280000000 1.0
C      1  0.4849820000000  0.5341900000000  0.6381570000000 1.0
C      1  0.5096600000000  0.4804360000000  0.5748810000000 1.0
C      1  0.6127970000000  0.5063030000000  0.5105790000000 1.0
C      1  0.5237150000000  0.5148470000000  0.3869130000000 1.0
C      1  0.4452590000000  0.4416660000000  0.5935440000000 1.0
C      1  0.5496190000000  0.5551160000000  0.4886330000000 1.0
C      1  0.5733740000000  0.4369110000000  0.4296590000000 1.0
C      1  0.5216370000000  0.4826310000000  0.4352270000000 1.0
C      1  0.4146490000000  0.5563020000000  0.5625840000000 1.0
C      1  0.3446760000000  0.5054530000000  0.5090860000000 1.0
C      1  0.4442270000000  0.5072270000000  0.4496890000000 1.0
C      1  0.4036200000000  0.4553900000000  0.4041540000000 1.0
C      1  0.4011170000000  0.5717090000000  0.5178820000000 1.0
C      1  0.4940530000000  0.4854620000000  0.4314390000000 1.0
C      1  0.5662450000000  0.5310090000000  0.5901840000000 1.0
C      1  0.4420710000000  0.6116220000000  0.5484100000000 1.0
C      1  0.5187700000000  0.4899670000000  0.5031670000000 1.0
C      1  0.4876440000000  0.4936600000000  0.5837380000000 1.0
C      1  0.6121580000000  0.5608440000000  0.4755450000000 1.0
C      1  0.5555650000000  0.4812310000000  0.5609630000000 1.0
C      1  0.4682890000000  0.4867340000000  0.5339100000000 1.0
C      1  0.5498680000000  0.4665650000000  0.6315220000000 1.0
C      1  0.4686670000000  0.4860310000000  0.3787400000000 1.0
C      1  0.5393340000000  0.5349100000000  0.5812380000000 1.0
C      1  0.3750350000000  0.5379760000000  0.5457140000000 1.0
C      1  0.4837210000000  0.6027410000000  0.5348190000000 1.0
C      1  0.6289600000000  0.5148150000000  0.4555110000000 1.0
C      1  0.5124160000000  0.6125870000000  0.4400280000000 1.0
C      1  0.4640110000000  0.6202720000000  0.4275790000000 1.0
C      1  0.5206580000000  0.5870940000000  0.4307790000000 1.0
C      1  0.4990700000000  0.5227280000000  0.3977600000000 1.0
C      1  0.5573050000000  0.4657330000000  0.4761410000000 1.0
C      1  0.5341460000000  0.5962870000000  0.5832770000000 1.0
C      1  0.4416550000000  0.5636200000000  0.5565510000000 1.0
C      1  0.3640970000000  0.4232740000000  0.4623240000000 1.0
C      1  0.4535260000000  0.5718020000000  0.4170360000000 1.0
C      1  0.4205840000000  0.5769570000000  0.4973660000000 1.0
END
