TITL C-247196-3112-527 0.0076347235666231 125000 -769.840946264697 0 0 126 (C1) n - 1
REM
REM in /home/nfs/bkarasulu/CARBON/AIRSS/Generating-Clusters/LCBOP/Only-C1/SD-CG/FIRE-HFTN
REM
REM
REM
REM
REM
REM ./C.cell (11c1c37f851c82e70ff6c80c92926a4b)
REM AIRSS Version 0.9.1 bugfix July 2018 build 013d7b7c2542+ Fri, 06 Jul 2018 19:26:36 +0100
REM compiler GCC version 9.2.1 20190827 (Red Hat 9.2.1-1)
REM options -cpp -mtune=generic -march=x86-64 -g -O0 -fpre-include=/usr/include/finclude/math-vector-fortran.h
REM seed 79675176 21868013 1172148114 -1064188223 -2046757900 1006863341 607511187 -1376501683 1340085872 -409550971 16917364 -1168788495 1063813862 -1424604359 -68253505 943598239 2080468139 -761395232 1848643411 2123478510 1759166380 1565587931 1097409643 -2064229419 867588134 1513441111 1883948080 184914923 -332811664 727740653 234021407 -1266472788 966759771
REM
CELL 1.54180   50.00000   50.00000   50.00000   90.00000   90.00000   90.00000
LATT -1
SFAC C  
C      1  0.4003410000000  0.4818270000000  0.4659620000000 1.0
C      1  0.5346100000000  0.5019400000000  0.5445060000000 1.0
C      1  0.5130630000000  0.4022550000000  0.4443380000000 1.0
C      1  0.5711160000000  0.5448920000000  0.4671580000000 1.0
C      1  0.5432160000000  0.5886940000000  0.6108310000000 1.0
C      1  0.5642400000000  0.4752680000000  0.5794320000000 1.0
C      1  0.5174360000000  0.6311560000000  0.6280480000000 1.0
C      1  0.4854790000000  0.4530000000000  0.5523360000000 1.0
C      1  0.3803350000000  0.4917120000000  0.4802470000000 1.0
C      1  0.4527730000000  0.5394590000000  0.4399640000000 1.0
C      1  0.4703390000000  0.5534920000000  0.4218630000000 1.0
C      1  0.4966510000000  0.6115430000000  0.4664770000000 1.0
C      1  0.4465570000000  0.5124990000000  0.4331440000000 1.0
C      1  0.4218830000000  0.5163150000000  0.5334620000000 1.0
C      1  0.3621940000000  0.5023910000000  0.4956250000000 1.0
C      1  0.3970870000000  0.5353280000000  0.5708230000000 1.0
C      1  0.4983960000000  0.4601030000000  0.3928140000000 1.0
C      1  0.5965870000000  0.5120930000000  0.5782020000000 1.0
C      1  0.5382880000000  0.4420130000000  0.4175430000000 1.0
C      1  0.5662260000000  0.5181840000000  0.5069300000000 1.0
C      1  0.4171490000000  0.4910780000000  0.5757020000000 1.0
C      1  0.5799630000000  0.5462110000000  0.5450240000000 1.0
C      1  0.5336300000000  0.5079980000000  0.6183770000000 1.0
C      1  0.4935410000000  0.5379730000000  0.4788230000000 1.0
C      1  0.4935100000000  0.4194200000000  0.4854420000000 1.0
C      1  0.5645210000000  0.5421560000000  0.5933710000000 1.0
C      1  0.4676520000000  0.5715420000000  0.5178960000000 1.0
C      1  0.5421940000000  0.4825100000000  0.5632930000000 1.0
C      1  0.5437990000000  0.4184310000000  0.5381930000000 1.0
C      1  0.4827750000000  0.4779360000000  0.5109910000000 1.0
C      1  0.5187370000000  0.4356330000000  0.5807600000000 1.0
C      1  0.4287460000000  0.4487300000000  0.4424590000000 1.0
C      1  0.4402450000000  0.3999070000000  0.4179410000000 1.0
C      1  0.5758970000000  0.4974970000000  0.5922860000000 1.0
C      1  0.4477150000000  0.5044070000000  0.4060790000000 1.0
C      1  0.5677770000000  0.4197470000000  0.5216820000000 1.0
C      1  0.4980020000000  0.4263140000000  0.5134540000000 1.0
C      1  0.4617310000000  0.4127170000000  0.4311470000000 1.0
C      1  0.4829010000000  0.5351090000000  0.5786200000000 1.0
C      1  0.4885520000000  0.4902930000000  0.4849860000000 1.0
C      1  0.3745230000000  0.3808320000000  0.3913760000000 1.0
C      1  0.5666790000000  0.4816360000000  0.4139010000000 1.0
C      1  0.5196040000000  0.5443460000000  0.4223750000000 1.0
C      1  0.5781340000000  0.5553550000000  0.4436070000000 1.0
C      1  0.5733710000000  0.4296690000000  0.4713620000000 1.0
C      1  0.5320180000000  0.5512010000000  0.5430330000000 1.0
C      1  0.5175230000000  0.6130540000000  0.4491970000000 1.0
C      1  0.4655090000000  0.4950330000000  0.5261450000000 1.0
C      1  0.5363320000000  0.4231590000000  0.5646360000000 1.0
C      1  0.3933360000000  0.3941840000000  0.4035020000000 1.0
C      1  0.4466860000000  0.4921360000000  0.4528210000000 1.0
C      1  0.5458160000000  0.5331810000000  0.4140390000000 1.0
C      1  0.5286790000000  0.5906660000000  0.4386630000000 1.0
C      1  0.6212110000000  0.5032630000000  0.5679340000000 1.0
C      1  0.4884930000000  0.5221590000000  0.3898120000000 1.0
C      1  0.6284840000000  0.5268520000000  0.4958480000000 1.0
C      1  0.4663950000000  0.5366890000000  0.4864960000000 1.0
C      1  0.4858750000000  0.5869200000000  0.4754500000000 1.0
C      1  0.5302810000000  0.6101460000000  0.6194900000000 1.0
C      1  0.5196490000000  0.4847640000000  0.4298220000000 1.0
C      1  0.4683880000000  0.4916810000000  0.5954940000000 1.0
C      1  0.5630660000000  0.4551740000000  0.4259020000000 1.0
C      1  0.4964700000000  0.4429890000000  0.4700950000000 1.0
C      1  0.3960800000000  0.4731660000000  0.5801390000000 1.0
C      1  0.5355350000000  0.4035610000000  0.4928880000000 1.0
C      1  0.5011140000000  0.5627190000000  0.4668340000000 1.0
C      1  0.4742540000000  0.5214430000000  0.5328290000000 1.0
C      1  0.5845230000000  0.5380000000000  0.5720440000000 1.0
C      1  0.4426190000000  0.4848350000000  0.5864400000000 1.0
C      1  0.4374260000000  0.5704450000000  0.4817680000000 1.0
C      1  0.6261490000000  0.5092790000000  0.5409390000000 1.0
C      1  0.6145730000000  0.5221710000000  0.5188320000000 1.0
C      1  0.5875510000000  0.5302650000000  0.5220890000000 1.0
C      1  0.3555850000000  0.4402680000000  0.5865110000000 1.0
C      1  0.4707830000000  0.4814390000000  0.4636580000000 1.0
C      1  0.5658800000000  0.4515920000000  0.4549200000000 1.0
C      1  0.5673610000000  0.5511290000000  0.4193160000000 1.0
C      1  0.4791240000000  0.4754240000000  0.3823740000000 1.0
C      1  0.4887970000000  0.4520440000000  0.5240690000000 1.0
C      1  0.5064870000000  0.5132650000000  0.4806600000000 1.0
C      1  0.5570350000000  0.5162060000000  0.6044710000000 1.0
C      1  0.5188330000000  0.5643970000000  0.4436430000000 1.0
C      1  0.5758930000000  0.4507680000000  0.5813240000000 1.0
C      1  0.5229330000000  0.5323860000000  0.6653900000000 1.0
C      1  0.5566290000000  0.5616000000000  0.5412380000000 1.0
C      1  0.4133430000000  0.4083840000000  0.4163980000000 1.0
C      1  0.4605180000000  0.5420320000000  0.5165490000000 1.0
C      1  0.5360130000000  0.4907390000000  0.4527070000000 1.0
C      1  0.4552220000000  0.6304160000000  0.4043780000000 1.0
C      1  0.4372680000000  0.4933350000000  0.5257580000000 1.0
C      1  0.5231210000000  0.4128060000000  0.5189560000000 1.0
C      1  0.5217180000000  0.4539110000000  0.4750440000000 1.0
C      1  0.4974900000000  0.4541470000000  0.5778100000000 1.0
C      1  0.4241920000000  0.4744160000000  0.4537720000000 1.0
C      1  0.4624290000000  0.5842860000000  0.4921740000000 1.0
C      1  0.5197380000000  0.5263140000000  0.5480740000000 1.0
C      1  0.5441590000000  0.4669630000000  0.4656440000000 1.0
C      1  0.3928880000000  0.5705580000000  0.5045080000000 1.0
C      1  0.5177350000000  0.4615930000000  0.4127940000000 1.0
C      1  0.4183380000000  0.5610780000000  0.5021310000000 1.0
C      1  0.4937810000000  0.5403580000000  0.4105560000000 1.0
C      1  0.4698120000000  0.5009820000000  0.3889070000000 1.0
C      1  0.4116550000000  0.5147870000000  0.5600940000000 1.0
C      1  0.4867630000000  0.4003060000000  0.4338310000000 1.0
C      1  0.4092370000000  0.4330480000000  0.4295520000000 1.0
C      1  0.6393290000000  0.4897880000000  0.5832290000000 1.0
C      1  0.5554230000000  0.5062450000000  0.4087580000000 1.0
C      1  0.4639690000000  0.5794790000000  0.4137890000000 1.0
C      1  0.5496150000000  0.5006340000000  0.5209250000000 1.0
C      1  0.5314250000000  0.4164410000000  0.4278310000000 1.0
C      1  0.5628590000000  0.4147210000000  0.4931100000000 1.0
C      1  0.5551800000000  0.5666570000000  0.6023110000000 1.0
C      1  0.4724900000000  0.5196410000000  0.5978960000000 1.0
C      1  0.4298100000000  0.5404600000000  0.5193890000000 1.0
C      1  0.5282020000000  0.5197570000000  0.6432120000000 1.0
C      1  0.3757030000000  0.4565560000000  0.5834140000000 1.0
C      1  0.5152670000000  0.4885960000000  0.6085460000000 1.0
C      1  0.4482200000000  0.5478610000000  0.4666450000000 1.0
C      1  0.4590830000000  0.6049560000000  0.4084320000000 1.0
C      1  0.5331630000000  0.5120900000000  0.4707710000000 1.0
C      1  0.4929530000000  0.4763560000000  0.5954160000000 1.0
C      1  0.4922360000000  0.5277470000000  0.5532440000000 1.0
C      1  0.5565020000000  0.5257090000000  0.4813270000000 1.0
C      1  0.4558660000000  0.4385160000000  0.4428390000000 1.0
C      1  0.5145640000000  0.4018820000000  0.4731600000000 1.0
C      1  0.4751800000000  0.4541830000000  0.4565150000000 1.0
END
