TITL C-247201-3759-159 1.53596150650445 125000 -230.522624730619 0 0 40 (C1) n - 1
REM
REM in /home/nfs/bkarasulu/CARBON/AIRSS/Generating-Clusters/LCBOP/Only-C1/SD-CG/FIRE-HFTN
REM
REM
REM
REM
REM
REM ./C.cell (11c1c37f851c82e70ff6c80c92926a4b)
REM AIRSS Version 0.9.1 bugfix July 2018 build 013d7b7c2542+ Fri, 06 Jul 2018 19:26:36 +0100
REM compiler GCC version 9.2.1 20190827 (Red Hat 9.2.1-1)
REM options -cpp -mtune=generic -march=x86-64 -g -O0 -fpre-include=/usr/include/finclude/math-vector-fortran.h
REM seed 757605749 300707524 1416812977 1272976145 88432947 -1763236868 -2017071697 -891577324 282114762 -140048004 1249715142 -521116870 1163644643 -1773029999 -779816377 -249045709 1512642071 -1276070936 918663355 48732408 -1557984735 19545080 136861220 -95429589 -1434272171 1350110998 668880139 1003485393 2065581326 1783185682 1236201751 785777704 -1438351526
REM
CELL 1.54180   50.00000   50.00000   50.00000   90.00000   90.00000   90.00000
LATT -1
SFAC C  
C      1  0.5381850000000  0.4253370000000  0.4929100000000 1.0
C      1  0.5159820000000  0.4149900000000  0.4825980000000 1.0
C      1  0.4669220000000  0.5480410000000  0.4608120000000 1.0
C      1  0.4621930000000  0.5204660000000  0.4593870000000 1.0
C      1  0.5400710000000  0.4858520000000  0.4494190000000 1.0
C      1  0.5870280000000  0.4630470000000  0.5347550000000 1.0
C      1  0.4707020000000  0.4943870000000  0.4644040000000 1.0
C      1  0.6538340000000  0.4615870000000  0.5770120000000 1.0
C      1  0.5542500000000  0.4422350000000  0.5056300000000 1.0
C      1  0.4646910000000  0.4258790000000  0.4788750000000 1.0
C      1  0.5384730000000  0.5515030000000  0.4944780000000 1.0
C      1  0.5205670000000  0.4877090000000  0.5197900000000 1.0
C      1  0.4637730000000  0.5186660000000  0.5312160000000 1.0
C      1  0.4722050000000  0.4933690000000  0.5231050000000 1.0
C      1  0.4566000000000  0.4448170000000  0.4597240000000 1.0
C      1  0.5186530000000  0.4878430000000  0.4641290000000 1.0
C      1  0.4521780000000  0.4273600000000  0.5040290000000 1.0
C      1  0.4575990000000  0.4704180000000  0.5297430000000 1.0
C      1  0.6094030000000  0.4624740000000  0.5489170000000 1.0
C      1  0.5485240000000  0.4886870000000  0.5190050000000 1.0
C      1  0.4576620000000  0.4712140000000  0.4556560000000 1.0
C      1  0.4899830000000  0.4140300000000  0.4770230000000 1.0
C      1  0.5149520000000  0.5571940000000  0.4835790000000 1.0
C      1  0.3684460000000  0.5775840000000  0.4839100000000 1.0
C      1  0.4737130000000  0.5625490000000  0.5478680000000 1.0
C      1  0.4310210000000  0.5834990000000  0.4417500000000 1.0
C      1  0.5605160000000  0.5135300000000  0.5144410000000 1.0
C      1  0.5844280000000  0.5547940000000  0.5083230000000 1.0
C      1  0.6318030000000  0.4620260000000  0.5630810000000 1.0
C      1  0.4957030000000  0.4906310000000  0.5073180000000 1.0
C      1  0.4482260000000  0.5662740000000  0.4510500000000 1.0
C      1  0.4499960000000  0.4456990000000  0.5233490000000 1.0
C      1  0.5635220000000  0.4645690000000  0.5197950000000 1.0
C      1  0.4570600000000  0.5456140000000  0.5343110000000 1.0
C      1  0.4909460000000  0.5568490000000  0.4722490000000 1.0
C      1  0.4950410000000  0.4909380000000  0.4788490000000 1.0
C      1  0.4332250000000  0.5550790000000  0.5231800000000 1.0
C      1  0.5614820000000  0.5401560000000  0.5057920000000 1.0
C      1  0.4110640000000  0.5628440000000  0.5109280000000 1.0
C      1  0.3893790000000  0.5702620000000  0.4976140000000 1.0
END
