TITL C-247198-3593-289 0.00165599486695894 125000 -699.762494543894 0 0 117 (C1) n - 1
REM
REM in /home/nfs/bkarasulu/CARBON/AIRSS/Generating-Clusters/LCBOP/Only-C1/SD-CG/FIRE-HFTN
REM
REM
REM
REM
REM
REM ./C.cell (11c1c37f851c82e70ff6c80c92926a4b)
REM AIRSS Version 0.9.1 bugfix July 2018 build 013d7b7c2542+ Fri, 06 Jul 2018 19:26:36 +0100
REM compiler GCC version 9.2.1 20190827 (Red Hat 9.2.1-1)
REM options -cpp -mtune=generic -march=x86-64 -g -O0 -fpre-include=/usr/include/finclude/math-vector-fortran.h
REM seed 348809554 1273814590 -168471532 -847440271 -1854945751 846645601 -77006054 1708865386 135635921 1854528996 1874395123 1153320785 -1675963611 -1242245926 -46755313 1002042185 749956005 -219480276 -1465730193 715127257 74338294 -373321406 -1851395204 756389119 -1897353572 -237018388 -1532959794 -2068556862 -952864695 1703830466 808487781 511275696 -1329287260
REM
CELL 1.54180   50.00000   50.00000   50.00000   90.00000   90.00000   90.00000
LATT -1
SFAC C  
C      1  0.5348850000000  0.5762680000000  0.4447370000000 1.0
C      1  0.4341760000000  0.4833070000000  0.5592950000000 1.0
C      1  0.4713150000000  0.5168810000000  0.4375580000000 1.0
C      1  0.4287940000000  0.5444140000000  0.4400730000000 1.0
C      1  0.3903510000000  0.4529880000000  0.4380610000000 1.0
C      1  0.5176960000000  0.5043370000000  0.4782790000000 1.0
C      1  0.4230490000000  0.5745760000000  0.4820970000000 1.0
C      1  0.5166780000000  0.4461850000000  0.5006970000000 1.0
C      1  0.4990290000000  0.5159630000000  0.4338480000000 1.0
C      1  0.5148100000000  0.5002820000000  0.4508410000000 1.0
C      1  0.4243810000000  0.4899050000000  0.4047220000000 1.0
C      1  0.5680190000000  0.5524880000000  0.5210450000000 1.0
C      1  0.4614750000000  0.4193370000000  0.5736840000000 1.0
C      1  0.4810400000000  0.4151710000000  0.4490690000000 1.0
C      1  0.4809940000000  0.5656140000000  0.4406790000000 1.0
C      1  0.5367580000000  0.4588720000000  0.5396230000000 1.0
C      1  0.4912950000000  0.5800910000000  0.5594740000000 1.0
C      1  0.4939270000000  0.3841340000000  0.5962330000000 1.0
C      1  0.5221030000000  0.4812810000000  0.5493430000000 1.0
C      1  0.4592110000000  0.5241700000000  0.5194000000000 1.0
C      1  0.5422140000000  0.4561830000000  0.5113160000000 1.0
C      1  0.4795050000000  0.5643480000000  0.5386230000000 1.0
C      1  0.5287360000000  0.5544410000000  0.5633110000000 1.0
C      1  0.5577230000000  0.4778900000000  0.5944470000000 1.0
C      1  0.5095930000000  0.5542230000000  0.5050160000000 1.0
C      1  0.4619780000000  0.4935350000000  0.4803300000000 1.0
C      1  0.4766920000000  0.4014590000000  0.5859690000000 1.0
C      1  0.4729230000000  0.6126170000000  0.4902710000000 1.0
C      1  0.5008840000000  0.4597060000000  0.4813490000000 1.0
C      1  0.5507940000000  0.4519970000000  0.5962730000000 1.0
C      1  0.6079950000000  0.5066670000000  0.5773910000000 1.0
C      1  0.5671510000000  0.4546550000000  0.4960820000000 1.0
C      1  0.5997340000000  0.5487560000000  0.4786930000000 1.0
C      1  0.4342190000000  0.5347390000000  0.5695510000000 1.0
C      1  0.5527540000000  0.5767880000000  0.5224540000000 1.0
C      1  0.5573430000000  0.5307470000000  0.4218560000000 1.0
C      1  0.4354980000000  0.4582060000000  0.5457730000000 1.0
C      1  0.4336330000000  0.4881610000000  0.3799690000000 1.0
C      1  0.4888520000000  0.5722360000000  0.5120710000000 1.0
C      1  0.5031760000000  0.4256960000000  0.5164380000000 1.0
C      1  0.5073950000000  0.4254200000000  0.4488980000000 1.0
C      1  0.4027130000000  0.5134370000000  0.5166920000000 1.0
C      1  0.4094420000000  0.5757670000000  0.5069630000000 1.0
C      1  0.4709710000000  0.5860390000000  0.4957090000000 1.0
C      1  0.4812200000000  0.5329010000000  0.5372700000000 1.0
C      1  0.4939110000000  0.4848100000000  0.5455190000000 1.0
C      1  0.5287830000000  0.4091970000000  0.4581150000000 1.0
C      1  0.4756410000000  0.4216450000000  0.5112810000000 1.0
C      1  0.5832740000000  0.5095780000000  0.5352860000000 1.0
C      1  0.5369560000000  0.5788610000000  0.5466880000000 1.0
C      1  0.5229100000000  0.4748390000000  0.4408030000000 1.0
C      1  0.5488640000000  0.5045790000000  0.4124670000000 1.0
C      1  0.4824000000000  0.5457060000000  0.5915290000000 1.0
C      1  0.5262840000000  0.5500310000000  0.4832340000000 1.0
C      1  0.5728860000000  0.5604030000000  0.4717840000000 1.0
C      1  0.5793800000000  0.5275960000000  0.4393110000000 1.0
C      1  0.5120300000000  0.3677440000000  0.6053550000000 1.0
C      1  0.4230850000000  0.5092800000000  0.5610710000000 1.0
C      1  0.5791960000000  0.5085570000000  0.4606400000000 1.0
C      1  0.4148780000000  0.5186190000000  0.4434750000000 1.0
C      1  0.6067440000000  0.4965640000000  0.4943850000000 1.0
C      1  0.4565490000000  0.5383450000000  0.5869780000000 1.0
C      1  0.4604020000000  0.4163410000000  0.4663080000000 1.0
C      1  0.5448730000000  0.5563380000000  0.4252560000000 1.0
C      1  0.4575730000000  0.5431430000000  0.4765680000000 1.0
C      1  0.5867490000000  0.4837820000000  0.4505830000000 1.0
C      1  0.5547590000000  0.5838460000000  0.4679520000000 1.0
C      1  0.4181390000000  0.5155310000000  0.4935800000000 1.0
C      1  0.5408890000000  0.4329600000000  0.5800220000000 1.0
C      1  0.5901020000000  0.4738530000000  0.4979310000000 1.0
C      1  0.5843780000000  0.5047120000000  0.5628600000000 1.0
C      1  0.4135140000000  0.5696550000000  0.5330710000000 1.0
C      1  0.4484080000000  0.4372210000000  0.5591580000000 1.0
C      1  0.4435750000000  0.4866990000000  0.3554420000000 1.0
C      1  0.5663290000000  0.4335560000000  0.4752820000000 1.0
C      1  0.5723710000000  0.5246450000000  0.5143770000000 1.0
C      1  0.6110050000000  0.5239630000000  0.4874630000000 1.0
C      1  0.4486350000000  0.5180510000000  0.4926340000000 1.0
C      1  0.4111440000000  0.4686210000000  0.4473980000000 1.0
C      1  0.5497120000000  0.4101670000000  0.4774390000000 1.0
C      1  0.5102610000000  0.5303660000000  0.5240520000000 1.0
C      1  0.4507700000000  0.5694270000000  0.4858330000000 1.0
C      1  0.5518580000000  0.5405580000000  0.4773570000000 1.0
C      1  0.4158680000000  0.5665680000000  0.4551260000000 1.0
C      1  0.4534330000000  0.4852950000000  0.3313490000000 1.0
C      1  0.5094460000000  0.4535830000000  0.4542690000000 1.0
C      1  0.4238320000000  0.4595530000000  0.4715180000000 1.0
C      1  0.5493990000000  0.3937360000000  0.5002410000000 1.0
C      1  0.5029180000000  0.5601100000000  0.5780980000000 1.0
C      1  0.5056580000000  0.5771300000000  0.4443370000000 1.0
C      1  0.5376560000000  0.3937110000000  0.5245400000000 1.0
C      1  0.4797950000000  0.4755530000000  0.4936430000000 1.0
C      1  0.5595330000000  0.4980310000000  0.5748280000000 1.0
C      1  0.5364480000000  0.5040200000000  0.5591540000000 1.0
C      1  0.5138780000000  0.5961620000000  0.5507760000000 1.0
C      1  0.5703280000000  0.4658250000000  0.4366950000000 1.0
C      1  0.5468330000000  0.4780190000000  0.4252070000000 1.0
C      1  0.6300390000000  0.5082810000000  0.5911960000000 1.0
C      1  0.4549710000000  0.4266880000000  0.4921890000000 1.0
C      1  0.4040070000000  0.5169910000000  0.4694470000000 1.0
C      1  0.5498660000000  0.5916910000000  0.4967300000000 1.0
C      1  0.4596610000000  0.5430300000000  0.4458620000000 1.0
C      1  0.4810110000000  0.4754490000000  0.5221520000000 1.0
C      1  0.4829400000000  0.5090560000000  0.5561290000000 1.0
C      1  0.4172020000000  0.4925570000000  0.4315990000000 1.0
C      1  0.5716470000000  0.4404820000000  0.4482810000000 1.0
C      1  0.5660820000000  0.5172580000000  0.4860420000000 1.0
C      1  0.5155270000000  0.5085740000000  0.5045460000000 1.0
C      1  0.5285110000000  0.5295360000000  0.5488640000000 1.0
C      1  0.4218280000000  0.4522390000000  0.5209450000000 1.0
C      1  0.5331000000000  0.4334480000000  0.5531270000000 1.0
C      1  0.4238580000000  0.5572550000000  0.5547500000000 1.0
C      1  0.5212760000000  0.4139130000000  0.5356820000000 1.0
C      1  0.4012790000000  0.5121760000000  0.5432540000000 1.0
C      1  0.4338480000000  0.4463060000000  0.4952310000000 1.0
C      1  0.4616950000000  0.4945000000000  0.4519910000000 1.0
C      1  0.3942830000000  0.4506060000000  0.5222380000000 1.0
END
