TITL C-247196-3112-328 434.022533838062 125000 -552.150589470179 0 0 93 (C1) n - 1
REM
REM in /home/nfs/bkarasulu/CARBON/AIRSS/Generating-Clusters/LCBOP/Only-C1/SD-CG/FIRE-HFTN
REM
REM
REM
REM
REM
REM ./C.cell (11c1c37f851c82e70ff6c80c92926a4b)
REM AIRSS Version 0.9.1 bugfix July 2018 build 013d7b7c2542+ Fri, 06 Jul 2018 19:26:36 +0100
REM compiler GCC version 9.2.1 20190827 (Red Hat 9.2.1-1)
REM options -cpp -mtune=generic -march=x86-64 -g -O0 -fpre-include=/usr/include/finclude/math-vector-fortran.h
REM seed 1415728601 -964287041 1078464347 -1049640412 1321201779 1436927461 809402684 32225679 1861855235 -1780396963 2058021857 -1331328502 1639214266 1436384165 -497405958 -136753703 534184134 -256975438 -2041315691 237325537 -1998861414 1757717496 1129340136 -2071766297 -840427018 -1023924859 111904051 -787144740 -1690376852 1503641755 -458289522 630077879 805935735
REM
CELL 1.54180   50.00000   50.00000   50.00000   90.00000   90.00000   90.00000
LATT -1
SFAC C  
C      1  0.5665820000000  0.5336500000000  0.5303110000000 1.0
C      1  0.4898920000000  0.5622360000000  0.4313880000000 1.0
C      1  0.6092610000000  0.5065160000000  0.4885640000000 1.0
C      1  0.5243660000000  0.4990190000000  0.5129340000000 1.0
C      1  0.6075070000000  0.4787420000000  0.4879800000000 1.0
C      1  0.5406230000000  0.4318940000000  0.4843070000000 1.0
C      1  0.4460080000000  0.4380000000000  0.5398950000000 1.0
C      1  0.4850310000000  0.4645950000000  0.5505810000000 1.0
C      1  0.4679140000000  0.5017400000000  0.5218210000000 1.0
C      1  0.5961590000000  0.5328170000000  0.4874050000000 1.0
C      1  0.4226690000000  0.5051600000000  0.4380980000000 1.0
C      1  0.4965270000000  0.4200870000000  0.4618690000000 1.0
C      1  0.4762510000000  0.5730020000000  0.5170160000000 1.0
C      1  0.5833810000000  0.5471470000000  0.5102380000000 1.0
C      1  0.5677440000000  0.4425090000000  0.4852100000000 1.0
C      1  0.4684510000000  0.4123190000000  0.5057490000000 1.0
C      1  0.5126010000000  0.5027220000000  0.5381920000000 1.0
C      1  0.5553510000000  0.4756970000000  0.4109580000000 1.0
C      1  0.5382870000000  0.5442750000000  0.4314070000000 1.0
C      1  0.5468000000000  0.5194820000000  0.4732550000000 1.0
C      1  0.4450160000000  0.5224090000000  0.5567220000000 1.0
C      1  0.5856560000000  0.5418730000000  0.4614110000000 1.0
C      1  0.4843580000000  0.5327070000000  0.4899610000000 1.0
C      1  0.4559160000000  0.5071160000000  0.3923260000000 1.0
C      1  0.4157870000000  0.5099130000000  0.5942280000000 1.0
C      1  0.4660650000000  0.4867000000000  0.4765700000000 1.0
C      1  0.5266670000000  0.5685670000000  0.5333020000000 1.0
C      1  0.4872160000000  0.4906060000000  0.5397050000000 1.0
C      1  0.3892890000000  0.5444810000000  0.6152460000000 1.0
C      1  0.4441180000000  0.5161540000000  0.5289220000000 1.0
C      1  0.5192580000000  0.5160370000000  0.4621530000000 1.0
C      1  0.4666650000000  0.5154290000000  0.4173820000000 1.0
C      1  0.4859750000000  0.4088860000000  0.5292360000000 1.0
C      1  0.6027460000000  0.4479780000000  0.5429720000000 1.0
C      1  0.4288450000000  0.4465770000000  0.4964920000000 1.0
C      1  0.5647940000000  0.4957100000000  0.4773350000000 1.0
C      1  0.5093040000000  0.5420290000000  0.4241230000000 1.0
C      1  0.4744710000000  0.5067120000000  0.4945960000000 1.0
C      1  0.5099920000000  0.4920820000000  0.4145020000000 1.0
C      1  0.5121630000000  0.3942370000000  0.4950540000000 1.0
C      1  0.4460820000000  0.4300680000000  0.5122290000000 1.0
C      1  0.5757550000000  0.4803790000000  0.4277570000000 1.0
C      1  0.3981150000000  0.5179950000000  0.6142680000000 1.0
C      1  0.5719200000000  0.5051040000000  0.5315250000000 1.0
C      1  0.5581620000000  0.5877470000000  0.4923940000000 1.0
C      1  0.4964540000000  0.4585250000000  0.4966280000000 1.0
C      1  0.5223090000000  0.4337130000000  0.4600940000000 1.0
C      1  0.4664270000000  0.5532440000000  0.4988720000000 1.0
C      1  0.4679930000000  0.5376790000000  0.5641730000000 1.0
C      1  0.4425850000000  0.4759330000000  0.5712670000000 1.0
C      1  0.3811600000000  0.4823730000000  0.6511360000000 1.0
C      1  0.5782990000000  0.4926440000000  0.5562930000000 1.0
C      1  0.5938730000000  0.4530090000000  0.4938460000000 1.0
C      1  0.5377710000000  0.5218690000000  0.5017950000000 1.0
C      1  0.5163710000000  0.5648140000000  0.4739210000000 1.0
C      1  0.5178300000000  0.5274970000000  0.5512560000000 1.0
C      1  0.5346960000000  0.5831360000000  0.4803750000000 1.0
C      1  0.5071420000000  0.4467810000000  0.5466740000000 1.0
C      1  0.5705930000000  0.5039480000000  0.5800170000000 1.0
C      1  0.4288110000000  0.5220270000000  0.5040700000000 1.0
C      1  0.4959030000000  0.5164370000000  0.4182760000000 1.0
C      1  0.4974790000000  0.5665000000000  0.5352490000000 1.0
C      1  0.4935690000000  0.5444050000000  0.5543340000000 1.0
C      1  0.5252780000000  0.4498750000000  0.4370600000000 1.0
C      1  0.5694980000000  0.4915000000000  0.5060730000000 1.0
C      1  0.4480350000000  0.5432870000000  0.4563270000000 1.0
C      1  0.4070650000000  0.4917530000000  0.4207590000000 1.0
C      1  0.5110170000000  0.4238140000000  0.5304740000000 1.0
C      1  0.4739920000000  0.4612970000000  0.4814460000000 1.0
C      1  0.5412100000000  0.5441440000000  0.5413470000000 1.0
C      1  0.5052070000000  0.5387820000000  0.4728040000000 1.0
C      1  0.4176590000000  0.4711100000000  0.4930850000000 1.0
C      1  0.3811800000000  0.5692360000000  0.6160590000000 1.0
C      1  0.5278870000000  0.4165990000000  0.5066190000000 1.0
C      1  0.4867040000000  0.4044070000000  0.4837860000000 1.0
C      1  0.4412970000000  0.5432510000000  0.4863080000000 1.0
C      1  0.3892800000000  0.4996000000000  0.6333450000000 1.0
C      1  0.5583810000000  0.5383890000000  0.4522940000000 1.0
C      1  0.4663110000000  0.5629760000000  0.4453080000000 1.0
C      1  0.4341000000000  0.5027880000000  0.5745350000000 1.0
C      1  0.5285810000000  0.4712240000000  0.4187100000000 1.0
C      1  0.4655140000000  0.5981870000000  0.5170230000000 1.0
C      1  0.4344750000000  0.4946850000000  0.3818560000000 1.0
C      1  0.4465020000000  0.5203770000000  0.4386850000000 1.0
C      1  0.5775700000000  0.5744990000000  0.5053880000000 1.0
C      1  0.4119010000000  0.4870060000000  0.3945890000000 1.0
C      1  0.5142380000000  0.4890500000000  0.4671730000000 1.0
C      1  0.5762590000000  0.4850630000000  0.4540140000000 1.0
C      1  0.4158070000000  0.4982110000000  0.4944420000000 1.0
C      1  0.4579810000000  0.4571450000000  0.5567960000000 1.0
C      1  0.5155100000000  0.4790520000000  0.4939930000000 1.0
C      1  0.6039450000000  0.4405060000000  0.5172740000000 1.0
C      1  0.5926110000000  0.4685470000000  0.5565630000000 1.0
END
