TITL C-247200-3482-283 0.109367197104126 125000 -201.78335581788 0 0 34 (C1) n - 1
REM
REM in /home/nfs/bkarasulu/CARBON/AIRSS/Generating-Clusters/LCBOP/Only-C1/SD-CG/FIRE-HFTN
REM
REM
REM
REM
REM
REM ./C.cell (11c1c37f851c82e70ff6c80c92926a4b)
REM AIRSS Version 0.9.1 bugfix July 2018 build 013d7b7c2542+ Fri, 06 Jul 2018 19:26:36 +0100
REM compiler GCC version 9.2.1 20190827 (Red Hat 9.2.1-1)
REM options -cpp -mtune=generic -march=x86-64 -g -O0 -fpre-include=/usr/include/finclude/math-vector-fortran.h
REM seed 875449132 -762793456 -643141601 131524127 -1646459929 1157414395 208637631 -180240212 602553084 -260675483 1472467420 -571300867 -648111178 -837223296 1171368322 -1975241028 -2076359744 -834924795 1967024405 -1668136813 -1453825650 -976677427 -1297530105 -1826088183 -86192192 -2021758981 1429193942 387656162 664840247 -807788345 -784274497 145000312 -1812972189
REM
CELL 1.54180   50.00000   50.00000   50.00000   90.00000   90.00000   90.00000
LATT -1
SFAC C  
C      1  0.5117970000000  0.4722760000000  0.5245060000000 1.0
C      1  0.4607090000000  0.5816710000000  0.4065440000000 1.0
C      1  0.5827540000000  0.4538060000000  0.5068740000000 1.0
C      1  0.5311870000000  0.4297650000000  0.5123740000000 1.0
C      1  0.5590820000000  0.4694060000000  0.5101590000000 1.0
C      1  0.5598560000000  0.4452920000000  0.5905950000000 1.0
C      1  0.4326260000000  0.4894890000000  0.5256550000000 1.0
C      1  0.4105300000000  0.5777090000000  0.4179060000000 1.0
C      1  0.4342330000000  0.5837480000000  0.4075170000000 1.0
C      1  0.5346910000000  0.4532110000000  0.5873230000000 1.0
C      1  0.4471510000000  0.4755640000000  0.5430780000000 1.0
C      1  0.5014240000000  0.4920660000000  0.5075960000000 1.0
C      1  0.5006010000000  0.5235750000000  0.4705700000000 1.0
C      1  0.5622120000000  0.5493680000000  0.5017410000000 1.0
C      1  0.4994300000000  0.5572310000000  0.4307370000000 1.0
C      1  0.5609230000000  0.4972090000000  0.5079570000000 1.0
C      1  0.5049130000000  0.5401750000000  0.4503300000000 1.0
C      1  0.4711950000000  0.4676400000000  0.5511580000000 1.0
C      1  0.5965800000000  0.4399260000000  0.5560020000000 1.0
C      1  0.5832610000000  0.4400870000000  0.5790430000000 1.0
C      1  0.5622230000000  0.5235110000000  0.5050590000000 1.0
C      1  0.5341320000000  0.4568090000000  0.5158120000000 1.0
C      1  0.4339180000000  0.5058000000000  0.5029300000000 1.0
C      1  0.3948660000000  0.5650630000000  0.4352440000000 1.0
C      1  0.4991320000000  0.4668390000000  0.5495420000000 1.0
C      1  0.5959650000000  0.4448890000000  0.5298970000000 1.0
C      1  0.5142690000000  0.4609960000000  0.5722750000000 1.0
C      1  0.5921360000000  0.4477680000000  0.4819170000000 1.0
C      1  0.4112800000000  0.5172760000000  0.4914260000000 1.0
C      1  0.4872780000000  0.5086760000000  0.4900920000000 1.0
C      1  0.4839820000000  0.5720600000000  0.4150250000000 1.0
C      1  0.3900740000000  0.5487540000000  0.4556520000000 1.0
C      1  0.3961870000000  0.5319800000000  0.4753030000000 1.0
C      1  0.4594030000000  0.5103640000000  0.4921640000000 1.0
END
