TITL C-247196-3112-154 2.24486624552882e-07 125000 -655.204679913721 0 0 107 (C1) n - 1
REM
REM in /home/nfs/bkarasulu/CARBON/AIRSS/Generating-Clusters/LCBOP/Only-C1/SD-CG/FIRE-HFTN
REM
REM
REM
REM
REM
REM ./C.cell (11c1c37f851c82e70ff6c80c92926a4b)
REM AIRSS Version 0.9.1 bugfix July 2018 build 013d7b7c2542+ Fri, 06 Jul 2018 19:26:36 +0100
REM compiler GCC version 9.2.1 20190827 (Red Hat 9.2.1-1)
REM options -cpp -mtune=generic -march=x86-64 -g -O0 -fpre-include=/usr/include/finclude/math-vector-fortran.h
REM seed 1515947632 406253770 -1152599720 -340879794 1379259919 1154340266 -1278159823 1832110944 8174871 480531369 -1267688594 -811295720 -1288492092 -1236927111 -337678968 420706669 1219676421 -638269406 -395542825 -190147094 1158714941 -907555698 1734952312 1744535253 1817718441 1418954286 -1113018813 -534833909 77462776 1281319877 305907247 -480278703 -727847595
REM
CELL 1.54180   50.00000   50.00000   50.00000   90.00000   90.00000   90.00000
LATT -1
SFAC C  
C      1  0.4807030000000  0.5133110000000  0.5905130000000 1.0
C      1  0.5377340000000  0.4443320000000  0.4548640000000 1.0
C      1  0.4991680000000  0.5140710000000  0.4100540000000 1.0
C      1  0.5227810000000  0.4814940000000  0.6327110000000 1.0
C      1  0.4970580000000  0.4003070000000  0.4127510000000 1.0
C      1  0.4650330000000  0.5370970000000  0.4944480000000 1.0
C      1  0.4806960000000  0.4673880000000  0.4089500000000 1.0
C      1  0.5108480000000  0.4461710000000  0.5264390000000 1.0
C      1  0.4983260000000  0.5662680000000  0.5264030000000 1.0
C      1  0.5632050000000  0.4565560000000  0.4609650000000 1.0
C      1  0.5800810000000  0.5103760000000  0.5161930000000 1.0
C      1  0.4853820000000  0.4891490000000  0.5258260000000 1.0
C      1  0.4038480000000  0.4876350000000  0.5066790000000 1.0
C      1  0.4842190000000  0.4179010000000  0.4315360000000 1.0
C      1  0.5296910000000  0.5553000000000  0.5702480000000 1.0
C      1  0.4649080000000  0.5064450000000  0.5388590000000 1.0
C      1  0.4450230000000  0.5727120000000  0.4537660000000 1.0
C      1  0.5217260000000  0.4553600000000  0.6375640000000 1.0
C      1  0.5221920000000  0.4509690000000  0.4315650000000 1.0
C      1  0.5795560000000  0.4444090000000  0.5999270000000 1.0
C      1  0.4440130000000  0.5068960000000  0.4588910000000 1.0
C      1  0.4671920000000  0.5347900000000  0.5775430000000 1.0
C      1  0.5457700000000  0.5198930000000  0.4158680000000 1.0
C      1  0.4815220000000  0.4614410000000  0.4599280000000 1.0
C      1  0.4477980000000  0.5246110000000  0.4362870000000 1.0
C      1  0.4178110000000  0.5470510000000  0.4785660000000 1.0
C      1  0.5860630000000  0.5337080000000  0.5305840000000 1.0
C      1  0.5254210000000  0.4332240000000  0.4779830000000 1.0
C      1  0.5298060000000  0.5056100000000  0.4727650000000 1.0
C      1  0.4682430000000  0.5332910000000  0.5487880000000 1.0
C      1  0.5857780000000  0.4965650000000  0.4345560000000 1.0
C      1  0.5281200000000  0.4295720000000  0.3830760000000 1.0
C      1  0.4540340000000  0.4679070000000  0.5788880000000 1.0
C      1  0.5187570000000  0.4112380000000  0.6111700000000 1.0
C      1  0.4608650000000  0.4466160000000  0.5338360000000 1.0
C      1  0.4612240000000  0.4159220000000  0.4852460000000 1.0
C      1  0.4871480000000  0.5580690000000  0.4398030000000 1.0
C      1  0.4527880000000  0.5566590000000  0.5879120000000 1.0
C      1  0.4677250000000  0.4877830000000  0.5915280000000 1.0
C      1  0.4727840000000  0.5585430000000  0.5350080000000 1.0
C      1  0.5271880000000  0.5270960000000  0.5753120000000 1.0
C      1  0.5064040000000  0.5991310000000  0.4833830000000 1.0
C      1  0.5787850000000  0.5587300000000  0.5238930000000 1.0
C      1  0.5092300000000  0.4443070000000  0.4979860000000 1.0
C      1  0.5578590000000  0.5023490000000  0.4726290000000 1.0
C      1  0.4408780000000  0.5782110000000  0.5767540000000 1.0
C      1  0.4946050000000  0.4448340000000  0.4225550000000 1.0
C      1  0.5723000000000  0.5110780000000  0.4144790000000 1.0
C      1  0.5244450000000  0.4986970000000  0.4207580000000 1.0
C      1  0.5145290000000  0.4082440000000  0.3931450000000 1.0
C      1  0.4879290000000  0.4888950000000  0.4546780000000 1.0
C      1  0.5681480000000  0.4832800000000  0.4530280000000 1.0
C      1  0.5625560000000  0.4502210000000  0.5810440000000 1.0
C      1  0.4680840000000  0.5006540000000  0.4729290000000 1.0
C      1  0.5034520000000  0.5426240000000  0.4213610000000 1.0
C      1  0.5324500000000  0.5452680000000  0.4185230000000 1.0
C      1  0.4530110000000  0.5788790000000  0.5285950000000 1.0
C      1  0.4888670000000  0.5838490000000  0.4658390000000 1.0
C      1  0.5092630000000  0.5559200000000  0.5029790000000 1.0
C      1  0.3954660000000  0.5520380000000  0.4659920000000 1.0
C      1  0.5116910000000  0.5005680000000  0.5192380000000 1.0
C      1  0.5354480000000  0.4555880000000  0.3876000000000 1.0
C      1  0.4402730000000  0.4907540000000  0.5402370000000 1.0
C      1  0.4605940000000  0.5855430000000  0.4740750000000 1.0
C      1  0.5293830000000  0.4395500000000  0.5466740000000 1.0
C      1  0.5133730000000  0.5132620000000  0.4942400000000 1.0
C      1  0.4394510000000  0.5881560000000  0.5515820000000 1.0
C      1  0.5793190000000  0.5134400000000  0.4880400000000 1.0
C      1  0.5134470000000  0.5892560000000  0.5347790000000 1.0
C      1  0.4575070000000  0.4480460000000  0.4522850000000 1.0
C      1  0.4450420000000  0.4646020000000  0.5516680000000 1.0
C      1  0.4527210000000  0.5884340000000  0.5014930000000 1.0
C      1  0.5252920000000  0.4155180000000  0.5608710000000 1.0
C      1  0.5747100000000  0.4505360000000  0.4864720000000 1.0
C      1  0.4358530000000  0.5383620000000  0.4985090000000 1.0
C      1  0.5361500000000  0.5613540000000  0.4967660000000 1.0
C      1  0.4190960000000  0.5015800000000  0.5255740000000 1.0
C      1  0.4765260000000  0.4964600000000  0.4062690000000 1.0
C      1  0.5426730000000  0.5078200000000  0.5610000000000 1.0
C      1  0.4058220000000  0.5466070000000  0.5367420000000 1.0
C      1  0.4571260000000  0.4276290000000  0.5108110000000 1.0
C      1  0.5208190000000  0.4055290000000  0.5852090000000 1.0
C      1  0.4941380000000  0.5349240000000  0.4923120000000 1.0
C      1  0.4873940000000  0.4595350000000  0.4876670000000 1.0
C      1  0.5149960000000  0.4971310000000  0.4500290000000 1.0
C      1  0.6030570000000  0.5189040000000  0.4731940000000 1.0
C      1  0.5194330000000  0.5032040000000  0.6177070000000 1.0
C      1  0.4741450000000  0.4843640000000  0.4974010000000 1.0
C      1  0.6073780000000  0.5093010000000  0.4480570000000 1.0
C      1  0.5711220000000  0.4855070000000  0.5264110000000 1.0
C      1  0.4871620000000  0.4599810000000  0.5350110000000 1.0
C      1  0.5601590000000  0.5674860000000  0.5067470000000 1.0
C      1  0.5763250000000  0.4624160000000  0.5106340000000 1.0
C      1  0.4332160000000  0.4612000000000  0.4492790000000 1.0
C      1  0.5273360000000  0.5797650000000  0.5581010000000 1.0
C      1  0.4522900000000  0.5100790000000  0.4120870000000 1.0
C      1  0.4243260000000  0.4859060000000  0.4598470000000 1.0
C      1  0.5314560000000  0.4705120000000  0.4117080000000 1.0
C      1  0.5140800000000  0.6050150000000  0.5097360000000 1.0
C      1  0.5089680000000  0.5161450000000  0.5950700000000 1.0
C      1  0.5195100000000  0.4298870000000  0.6301750000000 1.0
C      1  0.4048830000000  0.4853410000000  0.4800100000000 1.0
C      1  0.4211900000000  0.5297050000000  0.5217220000000 1.0
C      1  0.5532520000000  0.4844660000000  0.5486660000000 1.0
C      1  0.4583130000000  0.5513490000000  0.4399700000000 1.0
C      1  0.4654680000000  0.4200030000000  0.4552840000000 1.0
C      1  0.5475970000000  0.4583330000000  0.5586940000000 1.0
END
