TITL C-247197-3123-702 223.055790166919 125000 -930.177105865301 0 0 151 (C1) n - 1
REM
REM in /home/nfs/bkarasulu/CARBON/AIRSS/Generating-Clusters/LCBOP/Only-C1/SD-CG/FIRE-HFTN
REM
REM
REM
REM
REM
REM ./C.cell (11c1c37f851c82e70ff6c80c92926a4b)
REM AIRSS Version 0.9.1 bugfix July 2018 build 013d7b7c2542+ Fri, 06 Jul 2018 19:26:36 +0100
REM compiler GCC version 9.2.1 20190827 (Red Hat 9.2.1-1)
REM options -cpp -mtune=generic -march=x86-64 -g -O0 -fpre-include=/usr/include/finclude/math-vector-fortran.h
REM seed -966357927 -1020087214 -1203582968 1913489227 329246377 1375978644 -1045669884 1005521242 -1984121484 200613509 -2101729083 1942086180 -716043050 109985587 1915865898 371264337 887389109 -1568483572 584178623 -924934269 -574460072 -419111058 1827491677 1837967381 -249509339 1400911529 -1614481326 -1568373545 -959058121 -392082815 -209501043 -338214192 1252612544
REM
CELL 1.54180   50.00000   50.00000   50.00000   90.00000   90.00000   90.00000
LATT -1
SFAC C  
C      1  0.4068080000000  0.4970630000000  0.5425780000000 1.0
C      1  0.4572190000000  0.5050110000000  0.5731000000000 1.0
C      1  0.5438130000000  0.6124190000000  0.4576420000000 1.0
C      1  0.5845830000000  0.5787190000000  0.5604290000000 1.0
C      1  0.4830130000000  0.5639030000000  0.4090810000000 1.0
C      1  0.5863760000000  0.4516720000000  0.4985650000000 1.0
C      1  0.4739840000000  0.5012510000000  0.5286560000000 1.0
C      1  0.5443320000000  0.4658490000000  0.5246170000000 1.0
C      1  0.5025310000000  0.4794430000000  0.6128160000000 1.0
C      1  0.5098920000000  0.4148190000000  0.5545600000000 1.0
C      1  0.5161230000000  0.5443600000000  0.5227260000000 1.0
C      1  0.5312800000000  0.4914150000000  0.5759990000000 1.0
C      1  0.4704030000000  0.5185930000000  0.5523740000000 1.0
C      1  0.6078910000000  0.4926070000000  0.4925340000000 1.0
C      1  0.4656750000000  0.5805570000000  0.4241390000000 1.0
C      1  0.5513350000000  0.4708480000000  0.5741340000000 1.0
C      1  0.4931170000000  0.4344440000000  0.5955620000000 1.0
C      1  0.4391680000000  0.4345320000000  0.4513210000000 1.0
C      1  0.5446190000000  0.5782430000000  0.4061130000000 1.0
C      1  0.4695660000000  0.5477920000000  0.5471030000000 1.0
C      1  0.5690750000000  0.5212490000000  0.5015040000000 1.0
C      1  0.4367820000000  0.5426370000000  0.4175520000000 1.0
C      1  0.5901900000000  0.5378640000000  0.4425110000000 1.0
C      1  0.5808990000000  0.4892660000000  0.4330990000000 1.0
C      1  0.5080310000000  0.5237100000000  0.3970450000000 1.0
C      1  0.4435640000000  0.4343050000000  0.3644260000000 1.0
C      1  0.5230500000000  0.5436140000000  0.3816800000000 1.0
C      1  0.3989650000000  0.4785140000000  0.5225610000000 1.0
C      1  0.5540100000000  0.5637070000000  0.4634190000000 1.0
C      1  0.5464130000000  0.5517280000000  0.3971970000000 1.0
C      1  0.5997540000000  0.5291860000000  0.5584490000000 1.0
C      1  0.4481550000000  0.4858590000000  0.4505520000000 1.0
C      1  0.4617020000000  0.5781990000000  0.4921230000000 1.0
C      1  0.4264500000000  0.5407050000000  0.5722550000000 1.0
C      1  0.5372770000000  0.5401980000000  0.4673790000000 1.0
C      1  0.5834080000000  0.5594560000000  0.4592260000000 1.0
C      1  0.5050750000000  0.4830720000000  0.4502600000000 1.0
C      1  0.3921150000000  0.4780690000000  0.4720070000000 1.0
C      1  0.4837960000000  0.5347410000000  0.4081090000000 1.0
C      1  0.4991610000000  0.4038990000000  0.4678130000000 1.0
C      1  0.4970870000000  0.3968250000000  0.4958890000000 1.0
C      1  0.5996650000000  0.5114970000000  0.5380600000000 1.0
C      1  0.4986700000000  0.4384470000000  0.5670130000000 1.0
C      1  0.4463630000000  0.4083850000000  0.5005080000000 1.0
C      1  0.5725750000000  0.6020840000000  0.5179640000000 1.0
C      1  0.5217510000000  0.4233600000000  0.4582400000000 1.0
C      1  0.4562260000000  0.4330950000000  0.3876640000000 1.0
C      1  0.4636790000000  0.4756910000000  0.4725890000000 1.0
C      1  0.4536210000000  0.5879480000000  0.4672750000000 1.0
C      1  0.5563120000000  0.4558830000000  0.5976170000000 1.0
C      1  0.4883800000000  0.5483850000000  0.5176550000000 1.0
C      1  0.4017600000000  0.4064540000000  0.5265860000000 1.0
C      1  0.4810000000000  0.4616720000000  0.5559380000000 1.0
C      1  0.5996400000000  0.4687530000000  0.4798340000000 1.0
C      1  0.5308550000000  0.4095400000000  0.5359710000000 1.0
C      1  0.5028550000000  0.6096110000000  0.4861500000000 1.0
C      1  0.5391710000000  0.4809540000000  0.4073880000000 1.0
C      1  0.4117250000000  0.4916920000000  0.5706250000000 1.0
C      1  0.4051360000000  0.4522030000000  0.5289660000000 1.0
C      1  0.5966970000000  0.5776100000000  0.4784760000000 1.0
C      1  0.5210450000000  0.3988390000000  0.5114680000000 1.0
C      1  0.4714860000000  0.3951140000000  0.5100490000000 1.0
C      1  0.5089640000000  0.5376470000000  0.4622020000000 1.0
C      1  0.5908220000000  0.4700280000000  0.4531950000000 1.0
C      1  0.5593080000000  0.4591790000000  0.5017830000000 1.0
C      1  0.3874850000000  0.4298660000000  0.5278110000000 1.0
C      1  0.4594500000000  0.5252270000000  0.4210200000000 1.0
C      1  0.4123250000000  0.5660290000000  0.4757970000000 1.0
C      1  0.5611380000000  0.4699110000000  0.4206060000000 1.0
C      1  0.4307870000000  0.4124960000000  0.5274330000000 1.0
C      1  0.4053940000000  0.4859090000000  0.4954360000000 1.0
C      1  0.5667440000000  0.5466020000000  0.5141770000000 1.0
C      1  0.4934330000000  0.4456780000000  0.4178620000000 1.0
C      1  0.4618860000000  0.4512180000000  0.5338320000000 1.0
C      1  0.4749050000000  0.4788180000000  0.6064920000000 1.0
C      1  0.5149630000000  0.5990550000000  0.5390260000000 1.0
C      1  0.4978310000000  0.6060890000000  0.4575260000000 1.0
C      1  0.5177080000000  0.4996410000000  0.5528060000000 1.0
C      1  0.4143100000000  0.4648260000000  0.5803110000000 1.0
C      1  0.4669820000000  0.6018940000000  0.5387780000000 1.0
C      1  0.5110340000000  0.5302640000000  0.5965610000000 1.0
C      1  0.4872150000000  0.5654320000000  0.5643950000000 1.0
C      1  0.5942670000000  0.4384860000000  0.5227920000000 1.0
C      1  0.5767790000000  0.5175810000000  0.4277450000000 1.0
C      1  0.5524800000000  0.4246500000000  0.4534840000000 1.0
C      1  0.4675130000000  0.4797320000000  0.5794380000000 1.0
C      1  0.4762630000000  0.4027310000000  0.4501020000000 1.0
C      1  0.4978030000000  0.4824740000000  0.5386220000000 1.0
C      1  0.4955470000000  0.4725070000000  0.4260270000000 1.0
C      1  0.4581600000000  0.4199480000000  0.4354920000000 1.0
C      1  0.5402560000000  0.5567600000000  0.5149560000000 1.0
C      1  0.4227540000000  0.5622800000000  0.5275080000000 1.0
C      1  0.5093390000000  0.5553430000000  0.5809940000000 1.0
C      1  0.4310220000000  0.4356020000000  0.3416080000000 1.0
C      1  0.5946380000000  0.5544100000000  0.5665580000000 1.0
C      1  0.5165890000000  0.4670420000000  0.5211790000000 1.0
C      1  0.5383400000000  0.5902360000000  0.5534330000000 1.0
C      1  0.4736140000000  0.5952480000000  0.4478530000000 1.0
C      1  0.5656090000000  0.5931480000000  0.5445770000000 1.0
C      1  0.4323270000000  0.4957210000000  0.4930140000000 1.0
C      1  0.4927840000000  0.3920790000000  0.5556450000000 1.0
C      1  0.4675390000000  0.4208690000000  0.5961540000000 1.0
C      1  0.5174420000000  0.5012350000000  0.5994800000000 1.0
C      1  0.4251530000000  0.4398510000000  0.5811440000000 1.0
C      1  0.4334510000000  0.4436460000000  0.5317220000000 1.0
C      1  0.4805840000000  0.5353030000000  0.4689740000000 1.0
C      1  0.4464190000000  0.4030910000000  0.5520110000000 1.0
C      1  0.4596770000000  0.4523430000000  0.4868450000000 1.0
C      1  0.4603370000000  0.5141390000000  0.4471850000000 1.0
C      1  0.5685040000000  0.4439760000000  0.4420580000000 1.0
C      1  0.4270020000000  0.5140950000000  0.5321460000000 1.0
C      1  0.4763000000000  0.4484780000000  0.5085880000000 1.0
C      1  0.5126710000000  0.6075290000000  0.5115140000000 1.0
C      1  0.5183820000000  0.4475040000000  0.4770950000000 1.0
C      1  0.4439820000000  0.4295410000000  0.4799000000000 1.0
C      1  0.5542300000000  0.5267270000000  0.4115350000000 1.0
C      1  0.5378370000000  0.4457140000000  0.6144940000000 1.0
C      1  0.5763470000000  0.5963380000000  0.4900880000000 1.0
C      1  0.4386860000000  0.5686460000000  0.4288140000000 1.0
C      1  0.5218680000000  0.5240710000000  0.5409930000000 1.0
C      1  0.4304460000000  0.5128520000000  0.5788620000000 1.0
C      1  0.5040420000000  0.4506200000000  0.5022550000000 1.0
C      1  0.6101650000000  0.5656340000000  0.5001810000000 1.0
C      1  0.5212680000000  0.6084670000000  0.4413740000000 1.0
C      1  0.5923520000000  0.5071950000000  0.5108860000000 1.0
C      1  0.4898830000000  0.5918110000000  0.5518620000000 1.0
C      1  0.5280530000000  0.5965780000000  0.4168170000000 1.0
C      1  0.4301090000000  0.5751750000000  0.4558530000000 1.0
C      1  0.5744470000000  0.4357620000000  0.5437980000000 1.0
C      1  0.5128140000000  0.4288910000000  0.4295250000000 1.0
C      1  0.4299910000000  0.4626670000000  0.4444410000000 1.0
C      1  0.5325530000000  0.5716280000000  0.5751150000000 1.0
C      1  0.5270210000000  0.4720850000000  0.4642640000000 1.0
C      1  0.4119670000000  0.5629440000000  0.5027350000000 1.0
C      1  0.5509210000000  0.5173260000000  0.4799400000000 1.0
C      1  0.4480630000000  0.5042060000000  0.5149500000000 1.0
C      1  0.5102130000000  0.4509730000000  0.6125110000000 1.0
C      1  0.5579020000000  0.4127280000000  0.5430270000000 1.0
C      1  0.5927640000000  0.5569950000000  0.5190440000000 1.0
C      1  0.4699160000000  0.3909730000000  0.5396330000000 1.0
C      1  0.5538850000000  0.5915030000000  0.4728840000000 1.0
C      1  0.4391470000000  0.5544340000000  0.5496450000000 1.0
C      1  0.4877280000000  0.4894470000000  0.4715400000000 1.0
C      1  0.4686870000000  0.4329610000000  0.4124210000000 1.0
C      1  0.5584390000000  0.4597800000000  0.5489530000000 1.0
C      1  0.5453670000000  0.4912840000000  0.4720040000000 1.0
C      1  0.4746960000000  0.5523430000000  0.4930420000000 1.0
C      1  0.4024490000000  0.4681980000000  0.4490690000000 1.0
C      1  0.4581410000000  0.5950460000000  0.5143990000000 1.0
C      1  0.4451100000000  0.4190450000000  0.5774800000000 1.0
C      1  0.5309820000000  0.5080080000000  0.4075250000000 1.0
END
