TITL C-247197-3123-58 6.60500905782858 125000 -232.16708105054 0 0 39 (C1) n - 1
REM
REM in /home/nfs/bkarasulu/CARBON/AIRSS/Generating-Clusters/LCBOP/Only-C1/SD-CG/FIRE-HFTN
REM
REM
REM
REM
REM
REM ./C.cell (11c1c37f851c82e70ff6c80c92926a4b)
REM AIRSS Version 0.9.1 bugfix July 2018 build 013d7b7c2542+ Fri, 06 Jul 2018 19:26:36 +0100
REM compiler GCC version 9.2.1 20190827 (Red Hat 9.2.1-1)
REM options -cpp -mtune=generic -march=x86-64 -g -O0 -fpre-include=/usr/include/finclude/math-vector-fortran.h
REM seed -1484695822 901356778 -1163101492 -1614025065 -1389148918 1838732176 -251216497 2093424841 -1762023596 1736304646 -2002513417 2122493049 -221848765 616579082 298819967 1217882563 1502002440 -4351571 1334559103 1773521647 -771783998 1282600498 690231408 1486321262 -1991087878 -635280058 384202433 278741440 1775980225 922509833 -1766363312 1637811764 1219999573
REM
CELL 1.54180   50.00000   50.00000   50.00000   90.00000   90.00000   90.00000
LATT -1
SFAC C  
C      1  0.5386550000000  0.6052010000000  0.4502470000000 1.0
C      1  0.4055770000000  0.4590620000000  0.5987490000000 1.0
C      1  0.5347060000000  0.5267010000000  0.5049010000000 1.0
C      1  0.5341960000000  0.4988480000000  0.5026390000000 1.0
C      1  0.5951220000000  0.5691290000000  0.5358060000000 1.0
C      1  0.4469360000000  0.4274960000000  0.4918370000000 1.0
C      1  0.4229820000000  0.4685090000000  0.5207410000000 1.0
C      1  0.6221060000000  0.6122230000000  0.5246600000000 1.0
C      1  0.4687730000000  0.3901580000000  0.5432890000000 1.0
C      1  0.4873500000000  0.5361020000000  0.4986200000000 1.0
C      1  0.4167410000000  0.4652200000000  0.5477560000000 1.0
C      1  0.4360730000000  0.4000790000000  0.4477700000000 1.0
C      1  0.4635920000000  0.5252810000000  0.5031390000000 1.0
C      1  0.4709620000000  0.4168420000000  0.5029270000000 1.0
C      1  0.5140310000000  0.5419830000000  0.4927120000000 1.0
C      1  0.5969920000000  0.6492660000000  0.4666590000000 1.0
C      1  0.5272790000000  0.5833520000000  0.4600920000000 1.0
C      1  0.4379630000000  0.4186070000000  0.4668310000000 1.0
C      1  0.5202360000000  0.5623030000000  0.4745800000000 1.0
C      1  0.4712630000000  0.3915520000000  0.5160810000000 1.0
C      1  0.4433920000000  0.3749970000000  0.4420210000000 1.0
C      1  0.6233070000000  0.6325750000000  0.5076230000000 1.0
C      1  0.6117470000000  0.5897640000000  0.5343270000000 1.0
C      1  0.4414370000000  0.5111320000000  0.5064220000000 1.0
C      1  0.4945250000000  0.4317770000000  0.5011520000000 1.0
C      1  0.5265940000000  0.4735050000000  0.5012400000000 1.0
C      1  0.3950660000000  0.5011890000000  0.4985500000000 1.0
C      1  0.4692770000000  0.3541170000000  0.4786100000000 1.0
C      1  0.5549760000000  0.5392630000000  0.5194360000000 1.0
C      1  0.5129960000000  0.4507610000000  0.5006950000000 1.0
C      1  0.6142990000000  0.6460770000000  0.4865760000000 1.0
C      1  0.4110990000000  0.4621180000000  0.5734550000000 1.0
C      1  0.4195230000000  0.4938810000000  0.5083980000000 1.0
C      1  0.4572130000000  0.3559150000000  0.4547960000000 1.0
C      1  0.4327830000000  0.4470430000000  0.5058370000000 1.0
C      1  0.4739630000000  0.3682280000000  0.5007330000000 1.0
C      1  0.5757090000000  0.6416780000000  0.4526820000000 1.0
C      1  0.5551750000000  0.6257510000000  0.4472180000000 1.0
C      1  0.5753830000000  0.5523180000000  0.5301920000000 1.0
END
