TITL C-247198-3593-579 8430.03439905453 125000 -820.083371388716 0 0 136 (C1) n - 1
REM
REM in /home/nfs/bkarasulu/CARBON/AIRSS/Generating-Clusters/LCBOP/Only-C1/SD-CG/FIRE-HFTN
REM
REM
REM
REM
REM
REM ./C.cell (11c1c37f851c82e70ff6c80c92926a4b)
REM AIRSS Version 0.9.1 bugfix July 2018 build 013d7b7c2542+ Fri, 06 Jul 2018 19:26:36 +0100
REM compiler GCC version 9.2.1 20190827 (Red Hat 9.2.1-1)
REM options -cpp -mtune=generic -march=x86-64 -g -O0 -fpre-include=/usr/include/finclude/math-vector-fortran.h
REM seed 1660623546 43894342 -2048807193 -1671633607 -287057914 2118740880 -1804246427 1375050272 1933892598 1429703756 1466146342 816978431 714528935 -1579213448 -1174580396 1710247296 2101703528 -993610046 -2144276144 926438267 640146827 754331110 -2083841888 -1648925357 -2055471136 -468327299 2099576477 1763678388 -400505190 -146446898 230547894 -466813828 1660751344
REM
CELL 1.54180   50.00000   50.00000   50.00000   90.00000   90.00000   90.00000
LATT -1
SFAC C  
C      1  0.4922780000000  0.4935640000000  0.4869950000000 1.0
C      1  0.4949550000000  0.5235390000000  0.3844320000000 1.0
C      1  0.5259160000000  0.5705610000000  0.4757280000000 1.0
C      1  0.5286050000000  0.3903550000000  0.6860840000000 1.0
C      1  0.5553020000000  0.4164580000000  0.5878560000000 1.0
C      1  0.4497060000000  0.4383630000000  0.4085490000000 1.0
C      1  0.4474530000000  0.4313920000000  0.4942770000000 1.0
C      1  0.5911320000000  0.5949950000000  0.4507930000000 1.0
C      1  0.4451670000000  0.5709930000000  0.5172190000000 1.0
C      1  0.5611330000000  0.4755070000000  0.5819640000000 1.0
C      1  0.4419890000000  0.5445170000000  0.5049110000000 1.0
C      1  0.5651050000000  0.5321710000000  0.4531860000000 1.0
C      1  0.4680570000000  0.4965370000000  0.6140920000000 1.0
C      1  0.5054300000000  0.5066760000000  0.5107660000000 1.0
C      1  0.4794950000000  0.6044200000000  0.5057720000000 1.0
C      1  0.4611840000000  0.5017650000000  0.4325770000000 1.0
C      1  0.5810260000000  0.5517930000000  0.4996720000000 1.0
C      1  0.5448690000000  0.5746160000000  0.5889000000000 1.0
C      1  0.5875050000000  0.5321790000000  0.5608380000000 1.0
C      1  0.4640620000000  0.5001150000000  0.4829840000000 1.0
C      1  0.5571390000000  0.5021720000000  0.5908330000000 1.0
C      1  0.3965800000000  0.5053610000000  0.4517810000000 1.0
C      1  0.5047850000000  0.5054090000000  0.4596630000000 1.0
C      1  0.4756300000000  0.4573990000000  0.4653450000000 1.0
C      1  0.4976540000000  0.5345620000000  0.4628320000000 1.0
C      1  0.4708090000000  0.4895300000000  0.5864660000000 1.0
C      1  0.5731820000000  0.5654520000000  0.5238310000000 1.0
C      1  0.4046700000000  0.4485890000000  0.5188940000000 1.0
C      1  0.4457870000000  0.4923280000000  0.3888020000000 1.0
C      1  0.4697560000000  0.5244480000000  0.6200030000000 1.0
C      1  0.4950610000000  0.4944850000000  0.3849530000000 1.0
C      1  0.5181440000000  0.4839220000000  0.3995370000000 1.0
C      1  0.4391530000000  0.5377310000000  0.4065390000000 1.0
C      1  0.5380960000000  0.5112420000000  0.5439090000000 1.0
C      1  0.4480370000000  0.4532560000000  0.4750800000000 1.0
C      1  0.5515870000000  0.4072300000000  0.6124080000000 1.0
C      1  0.4080980000000  0.4815880000000  0.4626560000000 1.0
C      1  0.4123350000000  0.4727960000000  0.3583650000000 1.0
C      1  0.5291530000000  0.4996540000000  0.4453960000000 1.0
C      1  0.5423890000000  0.4220470000000  0.4346210000000 1.0
C      1  0.4290170000000  0.4741950000000  0.4798900000000 1.0
C      1  0.4620240000000  0.4366720000000  0.6676940000000 1.0
C      1  0.3989760000000  0.4951150000000  0.4000770000000 1.0
C      1  0.5303200000000  0.5119300000000  0.5935460000000 1.0
C      1  0.5517030000000  0.5593580000000  0.5663790000000 1.0
C      1  0.4973640000000  0.4399730000000  0.4040660000000 1.0
C      1  0.5267050000000  0.5223860000000  0.4978040000000 1.0
C      1  0.4462890000000  0.5923080000000  0.4690590000000 1.0
C      1  0.5124240000000  0.5326510000000  0.5798630000000 1.0
C      1  0.4480780000000  0.5115780000000  0.4098050000000 1.0
C      1  0.5450450000000  0.4004160000000  0.6371690000000 1.0
C      1  0.5520680000000  0.5848630000000  0.5206300000000 1.0
C      1  0.5877350000000  0.4631820000000  0.4385230000000 1.0
C      1  0.4993680000000  0.4648220000000  0.4849680000000 1.0
C      1  0.5136890000000  0.4962290000000  0.5361150000000 1.0
C      1  0.4590350000000  0.5126090000000  0.4575730000000 1.0
C      1  0.5298710000000  0.5029750000000  0.4173550000000 1.0
C      1  0.5960770000000  0.4610890000000  0.4637050000000 1.0
C      1  0.4188530000000  0.4863330000000  0.3817610000000 1.0
C      1  0.3994670000000  0.5189650000000  0.4984690000000 1.0
C      1  0.5018060000000  0.4728310000000  0.5485370000000 1.0
C      1  0.4273430000000  0.5194670000000  0.5064980000000 1.0
C      1  0.5160600000000  0.5583010000000  0.5364300000000 1.0
C      1  0.6024040000000  0.4305070000000  0.5313360000000 1.0
C      1  0.5675170000000  0.4681750000000  0.5315610000000 1.0
C      1  0.4860160000000  0.5278880000000  0.5650540000000 1.0
C      1  0.5041030000000  0.6005080000000  0.5155750000000 1.0
C      1  0.5334710000000  0.4069660000000  0.4548140000000 1.0
C      1  0.4767110000000  0.5497550000000  0.6089050000000 1.0
C      1  0.4627880000000  0.4574460000000  0.6512480000000 1.0
C      1  0.5623030000000  0.4570660000000  0.5604020000000 1.0
C      1  0.4473480000000  0.5730790000000  0.5714410000000 1.0
C      1  0.4548640000000  0.5924280000000  0.4982700000000 1.0
C      1  0.5448910000000  0.5864250000000  0.4652390000000 1.0
C      1  0.6136380000000  0.5027860000000  0.5322800000000 1.0
C      1  0.4821300000000  0.4847300000000  0.4311020000000 1.0
C      1  0.3854400000000  0.4969610000000  0.5102080000000 1.0
C      1  0.4643140000000  0.4774040000000  0.6338990000000 1.0
C      1  0.4500640000000  0.4221340000000  0.4307540000000 1.0
C      1  0.4945990000000  0.4177780000000  0.4218590000000 1.0
C      1  0.5764550000000  0.5522280000000  0.4712330000000 1.0
C      1  0.4053200000000  0.5544340000000  0.4629700000000 1.0
C      1  0.5212410000000  0.4557830000000  0.4047840000000 1.0
C      1  0.4433980000000  0.5747220000000  0.5450510000000 1.0
C      1  0.5443400000000  0.4449940000000  0.4181330000000 1.0
C      1  0.4611410000000  0.4160480000000  0.6836160000000 1.0
C      1  0.5442020000000  0.5003690000000  0.4872630000000 1.0
C      1  0.5171960000000  0.5446080000000  0.4811640000000 1.0
C      1  0.4746610000000  0.4130670000000  0.4425610000000 1.0
C      1  0.5891310000000  0.5127920000000  0.5407300000000 1.0
C      1  0.5086770000000  0.5427430000000  0.4014180000000 1.0
C      1  0.4971330000000  0.4503670000000  0.5320890000000 1.0
C      1  0.5463740000000  0.4166980000000  0.5395350000000 1.0
C      1  0.4402740000000  0.4953610000000  0.4967580000000 1.0
C      1  0.4653690000000  0.5111890000000  0.5690630000000 1.0
C      1  0.4816800000000  0.5827600000000  0.4291210000000 1.0
C      1  0.4705610000000  0.4780390000000  0.3845600000000 1.0
C      1  0.4848520000000  0.4087320000000  0.4696760000000 1.0
C      1  0.4071470000000  0.4594090000000  0.3366160000000 1.0
C      1  0.5758220000000  0.5564810000000  0.5514430000000 1.0
C      1  0.4935230000000  0.4429190000000  0.5053100000000 1.0
C      1  0.5687670000000  0.4586880000000  0.4202780000000 1.0
C      1  0.5550050000000  0.5416700000000  0.4272910000000 1.0
C      1  0.5199570000000  0.5907530000000  0.6275180000000 1.0
C      1  0.4696320000000  0.5388290000000  0.4623180000000 1.0
C      1  0.6176450000000  0.4770010000000  0.5264770000000 1.0
C      1  0.4493450000000  0.5498200000000  0.4777350000000 1.0
C      1  0.4252700000000  0.4324800000000  0.5117310000000 1.0
C      1  0.3916850000000  0.5047210000000  0.4240850000000 1.0
C      1  0.4576170000000  0.5652550000000  0.5949220000000 1.0
C      1  0.5956890000000  0.4578770000000  0.5200100000000 1.0
C      1  0.4896730000000  0.4722340000000  0.5743650000000 1.0
C      1  0.5368870000000  0.3951310000000  0.6618300000000 1.0
C      1  0.5239550000000  0.5828290000000  0.5244750000000 1.0
C      1  0.5478910000000  0.4563530000000  0.5109480000000 1.0
C      1  0.4753110000000  0.4223080000000  0.4941410000000 1.0
C      1  0.5040460000000  0.5531100000000  0.6006340000000 1.0
C      1  0.4719510000000  0.4511170000000  0.3953130000000 1.0
C      1  0.3960920000000  0.5277880000000  0.4703710000000 1.0
C      1  0.5351690000000  0.4721810000000  0.4920470000000 1.0
C      1  0.4656990000000  0.5949210000000  0.4476610000000 1.0
C      1  0.5642190000000  0.4988970000000  0.5360700000000 1.0
C      1  0.5949810000000  0.4565310000000  0.4898360000000 1.0
C      1  0.3900430000000  0.4713160000000  0.5178330000000 1.0
C      1  0.4284450000000  0.5603690000000  0.3993090000000 1.0
C      1  0.5784250000000  0.5209650000000  0.5858430000000 1.0
C      1  0.4304930000000  0.5678020000000  0.4659030000000 1.0
C      1  0.5305010000000  0.5403100000000  0.5558490000000 1.0
C      1  0.5120410000000  0.4003270000000  0.4696060000000 1.0
C      1  0.5549680000000  0.4294240000000  0.5632710000000 1.0
C      1  0.5718850000000  0.5791450000000  0.4616110000000 1.0
C      1  0.5434410000000  0.4286530000000  0.5154700000000 1.0
C      1  0.5332540000000  0.5313190000000  0.4118160000000 1.0
C      1  0.5527380000000  0.5072380000000  0.4608930000000 1.0
C      1  0.5228260000000  0.5735930000000  0.6065590000000 1.0
C      1  0.4956200000000  0.5652970000000  0.4135120000000 1.0
END
