TITL C-247198-3593-357 -29275.9128734142 125000 -612.654470711352 0 0 103 (C1) n - 1
REM
REM in /home/nfs/bkarasulu/CARBON/AIRSS/Generating-Clusters/LCBOP/Only-C1/SD-CG/FIRE-HFTN
REM
REM
REM
REM
REM
REM ./C.cell (11c1c37f851c82e70ff6c80c92926a4b)
REM AIRSS Version 0.9.1 bugfix July 2018 build 013d7b7c2542+ Fri, 06 Jul 2018 19:26:36 +0100
REM compiler GCC version 9.2.1 20190827 (Red Hat 9.2.1-1)
REM options -cpp -mtune=generic -march=x86-64 -g -O0 -fpre-include=/usr/include/finclude/math-vector-fortran.h
REM seed 1460232403 -98589595 1213300123 582080633 -492944304 -2128617097 -911777188 -1133597826 1429028835 483305334 -1368566104 -1947339148 -812841872 849977811 1161400735 -518182319 1927352133 1866966995 91231211 -586163420 -1681967970 -973047108 -1418456762 1366745215 -532740016 -121538653 1942553645 1418190669 2102228288 2022176001 1787748622 -545192965 -1536596808
REM
CELL 1.54180   50.00000   50.00000   50.00000   90.00000   90.00000   90.00000
LATT -1
SFAC C  
C      1  0.5849850000000  0.5511920000000  0.5246300000000 1.0
C      1  0.5052020000000  0.6111400000000  0.5282570000000 1.0
C      1  0.5030530000000  0.5957490000000  0.4566990000000 1.0
C      1  0.4734270000000  0.5132850000000  0.4136060000000 1.0
C      1  0.5628630000000  0.5384950000000  0.5683690000000 1.0
C      1  0.4898050000000  0.4466750000000  0.4090300000000 1.0
C      1  0.5164030000000  0.5357780000000  0.4264190000000 1.0
C      1  0.5409010000000  0.4817020000000  0.5359650000000 1.0
C      1  0.5141110000000  0.6045770000000  0.4808550000000 1.0
C      1  0.5634770000000  0.4873510000000  0.4209400000000 1.0
C      1  0.4536660000000  0.5868020000000  0.4970240000000 1.0
C      1  0.5619390000000  0.5505450000000  0.5046520000000 1.0
C      1  0.5017860000000  0.4973690000000  0.5518240000000 1.0
C      1  0.4514590000000  0.4442710000000  0.5678630000000 1.0
C      1  0.4120820000000  0.5069840000000  0.5125840000000 1.0
C      1  0.4378690000000  0.5657440000000  0.4894600000000 1.0
C      1  0.4738390000000  0.5024680000000  0.4762570000000 1.0
C      1  0.4617650000000  0.4643060000000  0.5856860000000 1.0
C      1  0.4000230000000  0.5508330000000  0.5356570000000 1.0
C      1  0.5018630000000  0.4130180000000  0.5769360000000 1.0
C      1  0.5477690000000  0.4785390000000  0.4913460000000 1.0
C      1  0.4294190000000  0.4388630000000  0.4802950000000 1.0
C      1  0.4118060000000  0.5043930000000  0.4599590000000 1.0
C      1  0.5424350000000  0.4888580000000  0.4040270000000 1.0
C      1  0.5066260000000  0.4501590000000  0.5447410000000 1.0
C      1  0.5229630000000  0.5210210000000  0.4921030000000 1.0
C      1  0.4408010000000  0.5658580000000  0.5636330000000 1.0
C      1  0.5438700000000  0.5108160000000  0.5351090000000 1.0
C      1  0.4483700000000  0.5645830000000  0.4191550000000 1.0
C      1  0.5325170000000  0.4752340000000  0.5831400000000 1.0
C      1  0.5220350000000  0.4914250000000  0.4852140000000 1.0
C      1  0.5832860000000  0.5463310000000  0.5516090000000 1.0
C      1  0.5091350000000  0.4828770000000  0.5995440000000 1.0
C      1  0.4634510000000  0.4231370000000  0.5194450000000 1.0
C      1  0.4650780000000  0.4289930000000  0.5478950000000 1.0
C      1  0.4247400000000  0.4951300000000  0.5352530000000 1.0
C      1  0.4687230000000  0.5103820000000  0.5964400000000 1.0
C      1  0.4527640000000  0.4390040000000  0.4962390000000 1.0
C      1  0.5564150000000  0.5290890000000  0.4578970000000 1.0
C      1  0.4979510000000  0.5104940000000  0.5953140000000 1.0
C      1  0.5467600000000  0.4629710000000  0.5144280000000 1.0
C      1  0.5351570000000  0.5319920000000  0.5571320000000 1.0
C      1  0.4888050000000  0.4931930000000  0.3985640000000 1.0
C      1  0.5202120000000  0.4232600000000  0.4705540000000 1.0
C      1  0.5295210000000  0.5584890000000  0.5418620000000 1.0
C      1  0.5011980000000  0.4738720000000  0.4475220000000 1.0
C      1  0.4804750000000  0.5778560000000  0.5036280000000 1.0
C      1  0.4927400000000  0.4293010000000  0.5570650000000 1.0
C      1  0.4473160000000  0.5015030000000  0.4211770000000 1.0
C      1  0.4953800000000  0.4260080000000  0.4839570000000 1.0
C      1  0.4663220000000  0.5582750000000  0.5660020000000 1.0
C      1  0.5739160000000  0.4359200000000  0.5496140000000 1.0
C      1  0.5057840000000  0.4502830000000  0.4318620000000 1.0
C      1  0.5555750000000  0.4206370000000  0.5334780000000 1.0
C      1  0.5769830000000  0.4648260000000  0.5534700000000 1.0
C      1  0.4495760000000  0.5143180000000  0.4843380000000 1.0
C      1  0.5000890000000  0.4575730000000  0.5179460000000 1.0
C      1  0.4804950000000  0.5469910000000  0.5030120000000 1.0
C      1  0.5505500000000  0.5221420000000  0.5076250000000 1.0
C      1  0.5348820000000  0.4008980000000  0.5354540000000 1.0
C      1  0.4879490000000  0.5816300000000  0.4401260000000 1.0
C      1  0.4912170000000  0.5034720000000  0.5259430000000 1.0
C      1  0.4870740000000  0.4634600000000  0.6000910000000 1.0
C      1  0.5308510000000  0.5198130000000  0.4453590000000 1.0
C      1  0.4523530000000  0.4914140000000  0.5821310000000 1.0
C      1  0.4167540000000  0.5633930000000  0.5522930000000 1.0
C      1  0.5070870000000  0.5225690000000  0.5689640000000 1.0
C      1  0.4736680000000  0.4681120000000  0.4008850000000 1.0
C      1  0.5007940000000  0.5973400000000  0.5050210000000 1.0
C      1  0.4523200000000  0.5414000000000  0.4916750000000 1.0
C      1  0.4857770000000  0.5412000000000  0.5557190000000 1.0
C      1  0.5436500000000  0.4237930000000  0.4857860000000 1.0
C      1  0.4875550000000  0.5359380000000  0.4235340000000 1.0
C      1  0.4828800000000  0.5315270000000  0.5284500000000 1.0
C      1  0.5843230000000  0.4845170000000  0.5253330000000 1.0
C      1  0.4340120000000  0.4545540000000  0.4305180000000 1.0
C      1  0.5199500000000  0.4941280000000  0.4548350000000 1.0
C      1  0.4487180000000  0.4728350000000  0.4147970000000 1.0
C      1  0.4229840000000  0.5049440000000  0.4859820000000 1.0
C      1  0.5412160000000  0.5670850000000  0.5189100000000 1.0
C      1  0.4796090000000  0.4743900000000  0.4671500000000 1.0
C      1  0.4891940000000  0.4109110000000  0.5084580000000 1.0
C      1  0.5104390000000  0.3982150000000  0.5231050000000 1.0
C      1  0.6034790000000  0.4738810000000  0.4449750000000 1.0
C      1  0.4740610000000  0.5607210000000  0.4277200000000 1.0
C      1  0.5694780000000  0.4990100000000  0.4954010000000 1.0
C      1  0.5613460000000  0.4740530000000  0.5772390000000 1.0
C      1  0.4356310000000  0.4962950000000  0.5598540000000 1.0
C      1  0.5004560000000  0.4834540000000  0.5066930000000 1.0
C      1  0.5740650000000  0.5068140000000  0.4655060000000 1.0
C      1  0.5204490000000  0.4295970000000  0.4433910000000 1.0
C      1  0.5368140000000  0.6198140000000  0.4811040000000 1.0
C      1  0.3967210000000  0.5298330000000  0.5192730000000 1.0
C      1  0.4757570000000  0.4483010000000  0.4801390000000 1.0
C      1  0.4248200000000  0.5089340000000  0.4365000000000 1.0
C      1  0.5615900000000  0.5524760000000  0.4743240000000 1.0
C      1  0.5510180000000  0.4357570000000  0.5099310000000 1.0
C      1  0.4256690000000  0.4443620000000  0.4540170000000 1.0
C      1  0.5309630000000  0.5517740000000  0.4093320000000 1.0
C      1  0.5807370000000  0.4890850000000  0.4437690000000 1.0
C      1  0.4971260000000  0.5289680000000  0.4850970000000 1.0
C      1  0.5170570000000  0.4925580000000  0.3953440000000 1.0
C      1  0.5199810000000  0.4738950000000  0.5555640000000 1.0
END
