TITL C-247198-3593-120 1.63205011098928e-05 125000 -455.798583400025 0 0 76 (C1) n - 1
REM
REM in /home/nfs/bkarasulu/CARBON/AIRSS/Generating-Clusters/LCBOP/Only-C1/SD-CG/FIRE-HFTN
REM
REM
REM
REM
REM
REM ./C.cell (11c1c37f851c82e70ff6c80c92926a4b)
REM AIRSS Version 0.9.1 bugfix July 2018 build 013d7b7c2542+ Fri, 06 Jul 2018 19:26:36 +0100
REM compiler GCC version 9.2.1 20190827 (Red Hat 9.2.1-1)
REM options -cpp -mtune=generic -march=x86-64 -g -O0 -fpre-include=/usr/include/finclude/math-vector-fortran.h
REM seed 26495520 -1128615875 858791587 2100324112 1543459337 -1880630302 -913589303 -20387340 2090772642 -1116136211 -661819794 -1388778121 842905641 1923092612 292103212 405751626 1020697312 -1767090991 1281216159 1273637943 -960430419 -1986505391 550865265 -2095417841 -256985465 -235946681 435199423 1115530686 1231609910 -1736905663 -1185538884 -151621085 1797906545
REM
CELL 1.54180   50.00000   50.00000   50.00000   90.00000   90.00000   90.00000
LATT -1
SFAC C  
C      1  0.4329550000000  0.4203290000000  0.4699200000000 1.0
C      1  0.5914760000000  0.5103660000000  0.4650700000000 1.0
C      1  0.5455620000000  0.5329610000000  0.5348340000000 1.0
C      1  0.4357920000000  0.5183480000000  0.5124750000000 1.0
C      1  0.4316440000000  0.4405920000000  0.5151970000000 1.0
C      1  0.4400210000000  0.5064330000000  0.4866270000000 1.0
C      1  0.5366990000000  0.4902580000000  0.4618380000000 1.0
C      1  0.4398730000000  0.4899860000000  0.5544630000000 1.0
C      1  0.5126320000000  0.5429320000000  0.4231900000000 1.0
C      1  0.4581030000000  0.4081850000000  0.4653710000000 1.0
C      1  0.5869570000000  0.4325830000000  0.5133530000000 1.0
C      1  0.4962490000000  0.5557700000000  0.6070620000000 1.0
C      1  0.4715410000000  0.5321030000000  0.4432860000000 1.0
C      1  0.4483800000000  0.5595300000000  0.4826120000000 1.0
C      1  0.5101470000000  0.4180970000000  0.4616110000000 1.0
C      1  0.5810040000000  0.4887370000000  0.4820240000000 1.0
C      1  0.5692490000000  0.4643350000000  0.5497710000000 1.0
C      1  0.4923880000000  0.5739970000000  0.4548490000000 1.0
C      1  0.4657860000000  0.5134240000000  0.4223090000000 1.0
C      1  0.5704740000000  0.5307520000000  0.4608210000000 1.0
C      1  0.5576850000000  0.5156320000000  0.4210510000000 1.0
C      1  0.5222640000000  0.4588850000000  0.5423030000000 1.0
C      1  0.4284920000000  0.5180870000000  0.4626060000000 1.0
C      1  0.5342850000000  0.4218750000000  0.6318380000000 1.0
C      1  0.5601140000000  0.5406760000000  0.4359130000000 1.0
C      1  0.4878670000000  0.5029790000000  0.4100490000000 1.0
C      1  0.4818080000000  0.5209540000000  0.4678460000000 1.0
C      1  0.4267380000000  0.4427020000000  0.4536080000000 1.0
C      1  0.4720800000000  0.5768670000000  0.4764200000000 1.0
C      1  0.4703490000000  0.4615420000000  0.4959810000000 1.0
C      1  0.4979890000000  0.4694830000000  0.4997850000000 1.0
C      1  0.5634680000000  0.5050210000000  0.4999700000000 1.0
C      1  0.4838280000000  0.5170640000000  0.5315920000000 1.0
C      1  0.5415830000000  0.4425190000000  0.5840540000000 1.0
C      1  0.5755300000000  0.4305370000000  0.4893070000000 1.0
C      1  0.4841300000000  0.5054660000000  0.6071720000000 1.0
C      1  0.4216600000000  0.4217460000000  0.4963330000000 1.0
C      1  0.5380210000000  0.4320050000000  0.6081090000000 1.0
C      1  0.5102690000000  0.4808810000000  0.4757140000000 1.0
C      1  0.4219990000000  0.4945380000000  0.4472400000000 1.0
C      1  0.5470030000000  0.5183930000000  0.4774780000000 1.0
C      1  0.4667520000000  0.4860380000000  0.5624790000000 1.0
C      1  0.5359640000000  0.5570650000000  0.4350170000000 1.0
C      1  0.4307680000000  0.4697660000000  0.4595310000000 1.0
C      1  0.4746770000000  0.4882560000000  0.5891570000000 1.0
C      1  0.4919040000000  0.5302320000000  0.6130200000000 1.0
C      1  0.4842970000000  0.6042430000000  0.5208370000000 1.0
C      1  0.4286660000000  0.4943710000000  0.5288710000000 1.0
C      1  0.4257630000000  0.4696450000000  0.5121210000000 1.0
C      1  0.4606350000000  0.4408930000000  0.5144230000000 1.0
C      1  0.4969110000000  0.5777300000000  0.5921290000000 1.0
C      1  0.5342540000000  0.4296100000000  0.4633180000000 1.0
C      1  0.4438520000000  0.4763870000000  0.4865740000000 1.0
C      1  0.5714230000000  0.4920130000000  0.5453700000000 1.0
C      1  0.4945030000000  0.5939480000000  0.5712400000000 1.0
C      1  0.5441670000000  0.4547720000000  0.5592140000000 1.0
C      1  0.4321800000000  0.5463770000000  0.4622400000000 1.0
C      1  0.5251080000000  0.5365280000000  0.4805100000000 1.0
C      1  0.5127410000000  0.5137360000000  0.4183710000000 1.0
C      1  0.4780360000000  0.5960410000000  0.4963630000000 1.0
C      1  0.5573870000000  0.4432710000000  0.4719800000000 1.0
C      1  0.5350580000000  0.4999290000000  0.4306010000000 1.0
C      1  0.5858920000000  0.4462050000000  0.5363130000000 1.0
C      1  0.4881990000000  0.4939890000000  0.4638480000000 1.0
C      1  0.4857340000000  0.4911430000000  0.5418050000000 1.0
C      1  0.5616610000000  0.5110900000000  0.5272770000000 1.0
C      1  0.5221030000000  0.5775730000000  0.4520790000000 1.0
C      1  0.4978280000000  0.5356810000000  0.5168890000000 1.0
C      1  0.4982570000000  0.5337440000000  0.4882950000000 1.0
C      1  0.4426050000000  0.5466320000000  0.5089630000000 1.0
C      1  0.4847230000000  0.4097450000000  0.4625410000000 1.0
C      1  0.5217860000000  0.5444580000000  0.5295800000000 1.0
C      1  0.5034770000000  0.4733870000000  0.5277990000000 1.0
C      1  0.4900070000000  0.6031810000000  0.5467510000000 1.0
C      1  0.5608260000000  0.4713270000000  0.4686260000000 1.0
C      1  0.4877570000000  0.5534240000000  0.4348140000000 1.0
END
