TITL C-247198-3593-265 -5.81131229996613e-07 125000 -1060.42853702751 0 0 172 (C1) n - 1
REM
REM in /home/nfs/bkarasulu/CARBON/AIRSS/Generating-Clusters/LCBOP/Only-C1/SD-CG/FIRE-HFTN
REM
REM
REM
REM
REM
REM ./C.cell (11c1c37f851c82e70ff6c80c92926a4b)
REM AIRSS Version 0.9.1 bugfix July 2018 build 013d7b7c2542+ Fri, 06 Jul 2018 19:26:36 +0100
REM compiler GCC version 9.2.1 20190827 (Red Hat 9.2.1-1)
REM options -cpp -mtune=generic -march=x86-64 -g -O0 -fpre-include=/usr/include/finclude/math-vector-fortran.h
REM seed 1268507149 -131391867 621005931 1573785455 653532373 189617867 -1380472593 1098933932 616804004 -1156473344 1778466514 -1603959157 -1097226484 1971319932 2137338625 1850580077 2087013863 -2057094609 -1026166548 1419386393 663032259 1662534089 544851920 -358102804 -71562233 -540482512 1423716591 -1144328862 -815806937 322755044 505807140 965897914 1693247303
REM
CELL 1.54180   50.00000   50.00000   50.00000   90.00000   90.00000   90.00000
LATT -1
SFAC C  
C      1  0.4683890000000  0.5165010000000  0.4438480000000 1.0
C      1  0.4317320000000  0.4431840000000  0.5754510000000 1.0
C      1  0.3757340000000  0.4419560000000  0.5066880000000 1.0
C      1  0.5706990000000  0.5216000000000  0.5038360000000 1.0
C      1  0.5215190000000  0.6126140000000  0.3942760000000 1.0
C      1  0.4413090000000  0.5188590000000  0.4011480000000 1.0
C      1  0.3991520000000  0.5567840000000  0.4582190000000 1.0
C      1  0.4045540000000  0.4521020000000  0.4365580000000 1.0
C      1  0.4630550000000  0.4656010000000  0.4982070000000 1.0
C      1  0.4688990000000  0.4884330000000  0.4466650000000 1.0
C      1  0.5177670000000  0.4989140000000  0.5374730000000 1.0
C      1  0.4605320000000  0.4778530000000  0.5238220000000 1.0
C      1  0.3669790000000  0.5916520000000  0.5486030000000 1.0
C      1  0.5506960000000  0.5350780000000  0.5205820000000 1.0
C      1  0.5628760000000  0.5528330000000  0.4114260000000 1.0
C      1  0.6014450000000  0.4960950000000  0.3953250000000 1.0
C      1  0.5354990000000  0.4426080000000  0.5075340000000 1.0
C      1  0.5173830000000  0.4870130000000  0.5117920000000 1.0
C      1  0.4977120000000  0.3900700000000  0.5054010000000 1.0
C      1  0.5339300000000  0.5121850000000  0.6378680000000 1.0
C      1  0.5869900000000  0.5694920000000  0.4492830000000 1.0
C      1  0.4889050000000  0.4544010000000  0.4929440000000 1.0
C      1  0.4202340000000  0.4380470000000  0.4831920000000 1.0
C      1  0.4826790000000  0.4633120000000  0.6088060000000 1.0
C      1  0.4996530000000  0.5580170000000  0.5978280000000 1.0
C      1  0.5480670000000  0.4281900000000  0.4303970000000 1.0
C      1  0.4867570000000  0.4432120000000  0.5536100000000 1.0
C      1  0.6090400000000  0.4281620000000  0.4595890000000 1.0
C      1  0.3648190000000  0.5114290000000  0.5348280000000 1.0
C      1  0.4041290000000  0.4421250000000  0.5084550000000 1.0
C      1  0.5334750000000  0.5794540000000  0.6242910000000 1.0
C      1  0.5455200000000  0.6260880000000  0.4639010000000 1.0
C      1  0.3819780000000  0.5340080000000  0.5275080000000 1.0
C      1  0.3762530000000  0.5900510000000  0.5217880000000 1.0
C      1  0.5758270000000  0.4683390000000  0.5799560000000 1.0
C      1  0.4242810000000  0.5327730000000  0.4169560000000 1.0
C      1  0.5838670000000  0.3804250000000  0.4858330000000 1.0
C      1  0.4253080000000  0.4690150000000  0.4334230000000 1.0
C      1  0.4338740000000  0.4142610000000  0.5737890000000 1.0
C      1  0.5978460000000  0.4750010000000  0.5083080000000 1.0
C      1  0.5467230000000  0.4783330000000  0.4755670000000 1.0
C      1  0.3921150000000  0.5332410000000  0.5944730000000 1.0
C      1  0.5273750000000  0.5611890000000  0.4540580000000 1.0
C      1  0.5250430000000  0.6219020000000  0.4191140000000 1.0
C      1  0.4843200000000  0.5973000000000  0.4912820000000 1.0
C      1  0.5265020000000  0.5247720000000  0.4189290000000 1.0
C      1  0.5045700000000  0.5070050000000  0.3650210000000 1.0
C      1  0.3482940000000  0.5313930000000  0.5760420000000 1.0
C      1  0.4635130000000  0.5673230000000  0.4563810000000 1.0
C      1  0.5612650000000  0.6197690000000  0.4864720000000 1.0
C      1  0.5178510000000  0.5613730000000  0.3865280000000 1.0
C      1  0.5870020000000  0.6094350000000  0.4812830000000 1.0
C      1  0.5464370000000  0.4340550000000  0.5548630000000 1.0
C      1  0.4830460000000  0.5249240000000  0.3728240000000 1.0
C      1  0.5052550000000  0.4597580000000  0.5682360000000 1.0
C      1  0.5631300000000  0.5598410000000  0.5920360000000 1.0
C      1  0.5288110000000  0.5369540000000  0.5648220000000 1.0
C      1  0.5161380000000  0.4795040000000  0.4318890000000 1.0
C      1  0.5031610000000  0.4870630000000  0.5596660000000 1.0
C      1  0.5563200000000  0.5789160000000  0.6098100000000 1.0
C      1  0.5487150000000  0.4271410000000  0.5276970000000 1.0
C      1  0.6049560000000  0.4478460000000  0.5082230000000 1.0
C      1  0.5555780000000  0.4898220000000  0.4025740000000 1.0
C      1  0.6157690000000  0.3794670000000  0.4496200000000 1.0
C      1  0.4407380000000  0.3989210000000  0.5518110000000 1.0
C      1  0.3797370000000  0.5357860000000  0.4981510000000 1.0
C      1  0.4788260000000  0.5395010000000  0.5579020000000 1.0
C      1  0.3827450000000  0.5075640000000  0.4909620000000 1.0
C      1  0.5792230000000  0.5064170000000  0.4111830000000 1.0
C      1  0.4211180000000  0.5066040000000  0.5360690000000 1.0
C      1  0.3895020000000  0.5590580000000  0.4849540000000 1.0
C      1  0.4743250000000  0.4551970000000  0.4027110000000 1.0
C      1  0.6353670000000  0.5044780000000  0.4784860000000 1.0
C      1  0.4852510000000  0.3966760000000  0.5305590000000 1.0
C      1  0.4641250000000  0.4776640000000  0.5924500000000 1.0
C      1  0.5504170000000  0.4530770000000  0.4853040000000 1.0
C      1  0.5507830000000  0.5361090000000  0.5832430000000 1.0
C      1  0.5114130000000  0.4586600000000  0.5098090000000 1.0
C      1  0.6238240000000  0.4913420000000  0.4582960000000 1.0
C      1  0.4368640000000  0.4673120000000  0.5914600000000 1.0
C      1  0.5083280000000  0.4591580000000  0.5971170000000 1.0
C      1  0.4050690000000  0.5102100000000  0.5992370000000 1.0
C      1  0.4350100000000  0.4502740000000  0.5479860000000 1.0
C      1  0.5180970000000  0.5353530000000  0.6361960000000 1.0
C      1  0.6019100000000  0.5082390000000  0.5706260000000 1.0
C      1  0.6017360000000  0.4277110000000  0.4868270000000 1.0
C      1  0.5088130000000  0.5837250000000  0.4958120000000 1.0
C      1  0.5831070000000  0.4972230000000  0.5115750000000 1.0
C      1  0.5233410000000  0.4179560000000  0.4320260000000 1.0
C      1  0.5025230000000  0.5468210000000  0.5720730000000 1.0
C      1  0.4094820000000  0.5327280000000  0.5367230000000 1.0
C      1  0.5928760000000  0.4755750000000  0.3787040000000 1.0
C      1  0.4322720000000  0.4111450000000  0.4863950000000 1.0
C      1  0.4935470000000  0.4739180000000  0.4470660000000 1.0
C      1  0.4560550000000  0.3949530000000  0.5279030000000 1.0
C      1  0.3764110000000  0.4900380000000  0.5163870000000 1.0
C      1  0.4064700000000  0.5026690000000  0.4769680000000 1.0
C      1  0.4797710000000  0.4324840000000  0.4165500000000 1.0
C      1  0.5464940000000  0.5631130000000  0.5181420000000 1.0
C      1  0.5840320000000  0.4060810000000  0.4968220000000 1.0
C      1  0.4454340000000  0.4732350000000  0.4527740000000 1.0
C      1  0.3960270000000  0.5799610000000  0.5040480000000 1.0
C      1  0.5610500000000  0.4474400000000  0.5727630000000 1.0
C      1  0.6204180000000  0.5147810000000  0.5525540000000 1.0
C      1  0.5471870000000  0.6107080000000  0.5091380000000 1.0
C      1  0.5413860000000  0.4982970000000  0.6140370000000 1.0
C      1  0.4663090000000  0.5891520000000  0.4723930000000 1.0
C      1  0.4492500000000  0.5020140000000  0.5362890000000 1.0
C      1  0.4250720000000  0.5561650000000  0.5344460000000 1.0
C      1  0.5353560000000  0.6108330000000  0.4426630000000 1.0
C      1  0.4936380000000  0.4166080000000  0.5481190000000 1.0
C      1  0.5581310000000  0.5107780000000  0.5942630000000 1.0
C      1  0.6213280000000  0.4057920000000  0.4476900000000 1.0
C      1  0.4927220000000  0.5504480000000  0.3790420000000 1.0
C      1  0.5781070000000  0.5308490000000  0.4248970000000 1.0
C      1  0.5271810000000  0.4955950000000  0.4095580000000 1.0
C      1  0.4646030000000  0.5079410000000  0.3890450000000 1.0
C      1  0.5657470000000  0.4713230000000  0.3826080000000 1.0
C      1  0.4508180000000  0.5235870000000  0.4956350000000 1.0
C      1  0.6389840000000  0.5132330000000  0.5034680000000 1.0
C      1  0.4775840000000  0.4952710000000  0.5725710000000 1.0
C      1  0.6082950000000  0.4735780000000  0.4457430000000 1.0
C      1  0.5330830000000  0.5228190000000  0.5402830000000 1.0
C      1  0.4765370000000  0.5300220000000  0.5005180000000 1.0
C      1  0.5365590000000  0.5458500000000  0.4018480000000 1.0
C      1  0.4783610000000  0.3947050000000  0.4841720000000 1.0
C      1  0.5784000000000  0.5305910000000  0.4776660000000 1.0
C      1  0.5714600000000  0.4411030000000  0.4327900000000 1.0
C      1  0.5167180000000  0.5175140000000  0.4701090000000 1.0
C      1  0.4143300000000  0.4576050000000  0.5300490000000 1.0
C      1  0.5965390000000  0.5890280000000  0.4666690000000 1.0
C      1  0.4794330000000  0.4818370000000  0.3941570000000 1.0
C      1  0.4840670000000  0.4023460000000  0.4573770000000 1.0
C      1  0.4166730000000  0.4860570000000  0.5980550000000 1.0
C      1  0.4423760000000  0.4599610000000  0.4788450000000 1.0
C      1  0.5135610000000  0.5593770000000  0.6223020000000 1.0
C      1  0.4106240000000  0.5461610000000  0.4361110000000 1.0
C      1  0.5960700000000  0.4326550000000  0.5313870000000 1.0
C      1  0.5426840000000  0.5028810000000  0.6626840000000 1.0
C      1  0.5795780000000  0.4960190000000  0.5824730000000 1.0
C      1  0.3514690000000  0.6130730000000  0.5558920000000 1.0
C      1  0.5221350000000  0.3786900000000  0.5020590000000 1.0
C      1  0.4212140000000  0.5764510000000  0.5169040000000 1.0
C      1  0.5077550000000  0.4887380000000  0.3869430000000 1.0
C      1  0.4950860000000  0.4533140000000  0.4658200000000 1.0
C      1  0.5980040000000  0.3681170000000  0.4664940000000 1.0
C      1  0.5740510000000  0.4154180000000  0.5222260000000 1.0
C      1  0.5323690000000  0.5869060000000  0.5116330000000 1.0
C      1  0.5964420000000  0.4482120000000  0.4438710000000 1.0
C      1  0.4626630000000  0.4554950000000  0.5423410000000 1.0
C      1  0.5297880000000  0.4730100000000  0.6089550000000 1.0
C      1  0.3709430000000  0.5474040000000  0.5821340000000 1.0
C      1  0.3730800000000  0.5719660000000  0.5681930000000 1.0
C      1  0.6336290000000  0.5166460000000  0.5294200000000 1.0
C      1  0.4950140000000  0.4161220000000  0.4346040000000 1.0
C      1  0.5510740000000  0.4938130000000  0.6856300000000 1.0
C      1  0.4306810000000  0.5130410000000  0.4818190000000 1.0
C      1  0.5857500000000  0.5402250000000  0.4520060000000 1.0
C      1  0.5412730000000  0.5828940000000  0.4422470000000 1.0
C      1  0.4526870000000  0.3970510000000  0.4985950000000 1.0
C      1  0.4650990000000  0.5147950000000  0.5563730000000 1.0
C      1  0.3466130000000  0.5138390000000  0.5556490000000 1.0
C      1  0.5215900000000  0.5887960000000  0.3822470000000 1.0
C      1  0.4018070000000  0.4378940000000  0.4593110000000 1.0
C      1  0.4039710000000  0.4843680000000  0.5299800000000 1.0
C      1  0.5274860000000  0.4968470000000  0.4861430000000 1.0
C      1  0.5112110000000  0.5624550000000  0.4777060000000 1.0
C      1  0.5269150000000  0.5321280000000  0.4466370000000 1.0
C      1  0.5657820000000  0.5750170000000  0.4300250000000 1.0
C      1  0.4749160000000  0.5411390000000  0.4559350000000 1.0
C      1  0.3619530000000  0.4650970000000  0.5105460000000 1.0
C      1  0.4950130000000  0.5371130000000  0.4791220000000 1.0
END
