TITL C-247198-3593-23 499.412498209225 125000 -1157.73358193949 0 0 186 (C1) n - 1
REM
REM in /home/nfs/bkarasulu/CARBON/AIRSS/Generating-Clusters/LCBOP/Only-C1/SD-CG/FIRE-HFTN
REM
REM
REM
REM
REM
REM ./C.cell (11c1c37f851c82e70ff6c80c92926a4b)
REM AIRSS Version 0.9.1 bugfix July 2018 build 013d7b7c2542+ Fri, 06 Jul 2018 19:26:36 +0100
REM compiler GCC version 9.2.1 20190827 (Red Hat 9.2.1-1)
REM options -cpp -mtune=generic -march=x86-64 -g -O0 -fpre-include=/usr/include/finclude/math-vector-fortran.h
REM seed -1485780994 -218812096 -392581446 1858761480 127820300 1082762768 -356162367 526340747 -2091531143 1388643574 1717687423 1849258871 223215432 -1328473118 -901617556 488083825 -284155681 -590133191 1272087399 27254994 -1556505288 1548711739 221931400 -702006933 1840106688 -50462470 -293510671 483430171 1737380271 816631047 159833142 339495339 -591480972
REM
CELL 1.54180   50.00000   50.00000   50.00000   90.00000   90.00000   90.00000
LATT -1
SFAC C  
C      1  0.4306240000000  0.4658990000000  0.4815690000000 1.0
C      1  0.5869380000000  0.4513400000000  0.4586260000000 1.0
C      1  0.4591400000000  0.5373940000000  0.3143980000000 1.0
C      1  0.4315510000000  0.4667000000000  0.4073640000000 1.0
C      1  0.6127320000000  0.4686740000000  0.5033120000000 1.0
C      1  0.4454870000000  0.6104990000000  0.4841470000000 1.0
C      1  0.3970370000000  0.5323430000000  0.5510140000000 1.0
C      1  0.4504050000000  0.5063470000000  0.3887410000000 1.0
C      1  0.4493680000000  0.4207420000000  0.4479320000000 1.0
C      1  0.6042550000000  0.4710460000000  0.4728180000000 1.0
C      1  0.5213590000000  0.5493880000000  0.5464010000000 1.0
C      1  0.5528140000000  0.5885170000000  0.4459910000000 1.0
C      1  0.5186720000000  0.5161430000000  0.4521590000000 1.0
C      1  0.4696720000000  0.4782140000000  0.6184950000000 1.0
C      1  0.5032080000000  0.4685590000000  0.3844660000000 1.0
C      1  0.5669760000000  0.5435290000000  0.5809480000000 1.0
C      1  0.5730130000000  0.4057710000000  0.5117010000000 1.0
C      1  0.4720800000000  0.5603860000000  0.5038710000000 1.0
C      1  0.4769050000000  0.4584550000000  0.3918660000000 1.0
C      1  0.4359930000000  0.5570540000000  0.5592840000000 1.0
C      1  0.4391350000000  0.4194010000000  0.5722320000000 1.0
C      1  0.4980790000000  0.5923510000000  0.5615300000000 1.0
C      1  0.5477380000000  0.3976140000000  0.5244910000000 1.0
C      1  0.5149920000000  0.4748290000000  0.6082750000000 1.0
C      1  0.3965160000000  0.4244290000000  0.5175470000000 1.0
C      1  0.3549930000000  0.4697760000000  0.5051090000000 1.0
C      1  0.5359790000000  0.4393270000000  0.5381060000000 1.0
C      1  0.5293000000000  0.3879800000000  0.4544730000000 1.0
C      1  0.4519710000000  0.4830770000000  0.5750830000000 1.0
C      1  0.4505930000000  0.5815260000000  0.5564220000000 1.0
C      1  0.5944760000000  0.4215200000000  0.5224720000000 1.0
C      1  0.5957060000000  0.5383870000000  0.5787350000000 1.0
C      1  0.5975150000000  0.5134750000000  0.4421410000000 1.0
C      1  0.4198370000000  0.5733240000000  0.4678830000000 1.0
C      1  0.5206570000000  0.5274910000000  0.5657310000000 1.0
C      1  0.5398560000000  0.5213980000000  0.3817380000000 1.0
C      1  0.4946160000000  0.4676630000000  0.5279490000000 1.0
C      1  0.4616600000000  0.5845100000000  0.4435440000000 1.0
C      1  0.5222410000000  0.5434530000000  0.4593820000000 1.0
C      1  0.5386370000000  0.4306180000000  0.6213890000000 1.0
C      1  0.5656680000000  0.5170240000000  0.5426750000000 1.0
C      1  0.4626790000000  0.5477800000000  0.2907500000000 1.0
C      1  0.5027140000000  0.5073990000000  0.4306230000000 1.0
C      1  0.6021190000000  0.5170700000000  0.5103320000000 1.0
C      1  0.5607450000000  0.5892060000000  0.4928620000000 1.0
C      1  0.4364540000000  0.4709590000000  0.5542670000000 1.0
C      1  0.4937840000000  0.5740360000000  0.4888660000000 1.0
C      1  0.4860880000000  0.5186710000000  0.5648230000000 1.0
C      1  0.4776460000000  0.3770920000000  0.5139370000000 1.0
C      1  0.5289060000000  0.4153760000000  0.5756430000000 1.0
C      1  0.5416140000000  0.5446510000000  0.5015940000000 1.0
C      1  0.5026610000000  0.4945870000000  0.3732780000000 1.0
C      1  0.4254540000000  0.4826450000000  0.4296570000000 1.0
C      1  0.5332460000000  0.6083090000000  0.4575760000000 1.0
C      1  0.6121560000000  0.4766520000000  0.5895760000000 1.0
C      1  0.5095870000000  0.4376820000000  0.5774030000000 1.0
C      1  0.4480270000000  0.4599720000000  0.5281450000000 1.0
C      1  0.5287680000000  0.4333050000000  0.4100630000000 1.0
C      1  0.4754490000000  0.4858060000000  0.4895190000000 1.0
C      1  0.4700480000000  0.6219520000000  0.4945480000000 1.0
C      1  0.5221940000000  0.5361320000000  0.6228370000000 1.0
C      1  0.4415420000000  0.5923710000000  0.4616100000000 1.0
C      1  0.4204620000000  0.5590080000000  0.5137040000000 1.0
C      1  0.5094690000000  0.6241340000000  0.4530270000000 1.0
C      1  0.4808070000000  0.5511670000000  0.5291040000000 1.0
C      1  0.4075970000000  0.4621680000000  0.4648810000000 1.0
C      1  0.5838850000000  0.4707160000000  0.5918190000000 1.0
C      1  0.5237830000000  0.4403080000000  0.4790700000000 1.0
C      1  0.4013590000000  0.4811190000000  0.4446740000000 1.0
C      1  0.4751530000000  0.5647850000000  0.5965600000000 1.0
C      1  0.4295810000000  0.5395670000000  0.4296010000000 1.0
C      1  0.4600610000000  0.5109940000000  0.5771320000000 1.0
C      1  0.5446120000000  0.4828800000000  0.4813930000000 1.0
C      1  0.4538710000000  0.4773350000000  0.3928860000000 1.0
C      1  0.5138480000000  0.4664800000000  0.5806750000000 1.0
C      1  0.3923140000000  0.5005890000000  0.5117690000000 1.0
C      1  0.5219240000000  0.5381560000000  0.5199530000000 1.0
C      1  0.4130440000000  0.5797550000000  0.4963820000000 1.0
C      1  0.5503820000000  0.5920600000000  0.5430170000000 1.0
C      1  0.4399850000000  0.5195270000000  0.5062750000000 1.0
C      1  0.4889350000000  0.5515700000000  0.4167400000000 1.0
C      1  0.6001490000000  0.4595140000000  0.5494750000000 1.0
C      1  0.6204670000000  0.4951760000000  0.5174000000000 1.0
C      1  0.5278580000000  0.4553300000000  0.6248200000000 1.0
C      1  0.6249810000000  0.5001470000000  0.5472360000000 1.0
C      1  0.4133090000000  0.5128570000000  0.4956800000000 1.0
C      1  0.5126410000000  0.5958280000000  0.4998380000000 1.0
C      1  0.5517730000000  0.4009590000000  0.4428220000000 1.0
C      1  0.4106260000000  0.5221750000000  0.5744040000000 1.0
C      1  0.4285860000000  0.6020580000000  0.5071820000000 1.0
C      1  0.5779120000000  0.5558820000000  0.4173900000000 1.0
C      1  0.6098850000000  0.5247500000000  0.5567470000000 1.0
C      1  0.5047750000000  0.6353410000000  0.4284540000000 1.0
C      1  0.5094830000000  0.4427100000000  0.4571650000000 1.0
C      1  0.4473840000000  0.4918350000000  0.4461800000000 1.0
C      1  0.4056390000000  0.5239910000000  0.4695440000000 1.0
C      1  0.4903220000000  0.6283120000000  0.4748190000000 1.0
C      1  0.4295260000000  0.4080480000000  0.5490800000000 1.0
C      1  0.5269540000000  0.4934250000000  0.5343320000000 1.0
C      1  0.4139660000000  0.5533130000000  0.5404590000000 1.0
C      1  0.5502040000000  0.4591130000000  0.5533080000000 1.0
C      1  0.4636710000000  0.4332140000000  0.5285490000000 1.0
C      1  0.4901290000000  0.4223400000000  0.5252920000000 1.0
C      1  0.4178490000000  0.5466800000000  0.4554810000000 1.0
C      1  0.5516810000000  0.4256720000000  0.4276070000000 1.0
C      1  0.4556400000000  0.5268490000000  0.3384620000000 1.0
C      1  0.5215950000000  0.4970830000000  0.4727270000000 1.0
C      1  0.6204650000000  0.4764820000000  0.5622630000000 1.0
C      1  0.4490010000000  0.4376850000000  0.5903030000000 1.0
C      1  0.4835880000000  0.5671760000000  0.4398240000000 1.0
C      1  0.4586810000000  0.5079320000000  0.5250810000000 1.0
C      1  0.5756010000000  0.4604220000000  0.5653520000000 1.0
C      1  0.5286200000000  0.4783900000000  0.5590560000000 1.0
C      1  0.4945520000000  0.4929670000000  0.6178360000000 1.0
C      1  0.5536350000000  0.4993390000000  0.5250630000000 1.0
C      1  0.3830440000000  0.5162970000000  0.5332720000000 1.0
C      1  0.5114990000000  0.5109040000000  0.5170350000000 1.0
C      1  0.5746970000000  0.4646810000000  0.4112930000000 1.0
C      1  0.5740390000000  0.3971650000000  0.4603840000000 1.0
C      1  0.5253500000000  0.3824420000000  0.4807090000000 1.0
C      1  0.4690850000000  0.6158890000000  0.5246440000000 1.0
C      1  0.5734280000000  0.4123450000000  0.4839870000000 1.0
C      1  0.5738290000000  0.4458340000000  0.4323530000000 1.0
C      1  0.4452600000000  0.5477040000000  0.5029220000000 1.0
C      1  0.5001420000000  0.5619830000000  0.4626890000000 1.0
C      1  0.4748690000000  0.5813640000000  0.5733380000000 1.0
C      1  0.5618520000000  0.5722210000000  0.4693800000000 1.0
C      1  0.5026760000000  0.4208190000000  0.4096680000000 1.0
C      1  0.4265210000000  0.4587860000000  0.5080450000000 1.0
C      1  0.4531610000000  0.5163170000000  0.3626380000000 1.0
C      1  0.4400540000000  0.5249150000000  0.4089070000000 1.0
C      1  0.4337060000000  0.3972240000000  0.4978420000000 1.0
C      1  0.5364470000000  0.6034210000000  0.4860030000000 1.0
C      1  0.5975210000000  0.4988140000000  0.4660010000000 1.0
C      1  0.5409620000000  0.4123580000000  0.6012460000000 1.0
C      1  0.5559860000000  0.4998850000000  0.3840510000000 1.0
C      1  0.4763610000000  0.5255970000000  0.5389570000000 1.0
C      1  0.4878550000000  0.4568160000000  0.4477220000000 1.0
C      1  0.5468800000000  0.4546570000000  0.4834710000000 1.0
C      1  0.5140360000000  0.6130940000000  0.5231240000000 1.0
C      1  0.4919300000000  0.4813720000000  0.4340720000000 1.0
C      1  0.5290180000000  0.4584560000000  0.3948480000000 1.0
C      1  0.4780360000000  0.5420410000000  0.6111060000000 1.0
C      1  0.4565220000000  0.4649870000000  0.5968930000000 1.0
C      1  0.5334680000000  0.5580620000000  0.6113520000000 1.0
C      1  0.4924060000000  0.6105440000000  0.5399690000000 1.0
C      1  0.5090690000000  0.4436080000000  0.5281660000000 1.0
C      1  0.4287490000000  0.4385040000000  0.4077540000000 1.0
C      1  0.4645240000000  0.4435530000000  0.4554070000000 1.0
C      1  0.5663940000000  0.5839790000000  0.5204390000000 1.0
C      1  0.5536800000000  0.4739830000000  0.3948460000000 1.0
C      1  0.5401390000000  0.4123750000000  0.5485660000000 1.0
C      1  0.5245570000000  0.3898850000000  0.5081080000000 1.0
C      1  0.3995290000000  0.4521110000000  0.5136870000000 1.0
C      1  0.5509500000000  0.5228150000000  0.5672960000000 1.0
C      1  0.5851150000000  0.5101630000000  0.4891080000000 1.0
C      1  0.5900000000000  0.5334910000000  0.4259540000000 1.0
C      1  0.4762230000000  0.4314510000000  0.4051530000000 1.0
C      1  0.4974070000000  0.5222720000000  0.6192550000000 1.0
C      1  0.5305470000000  0.5754810000000  0.5602860000000 1.0
C      1  0.3907420000000  0.5057940000000  0.4532360000000 1.0
C      1  0.5707580000000  0.4807150000000  0.6140210000000 1.0
C      1  0.5669500000000  0.4941460000000  0.6360770000000 1.0
C      1  0.4384380000000  0.5313880000000  0.5754720000000 1.0
C      1  0.4190200000000  0.4073110000000  0.5216150000000 1.0
C      1  0.4980200000000  0.3960050000000  0.5178550000000 1.0
C      1  0.5383960000000  0.6171130000000  0.5364130000000 1.0
C      1  0.3865770000000  0.4623630000000  0.5727710000000 1.0
C      1  0.4092970000000  0.4668130000000  0.5607350000000 1.0
C      1  0.5908640000000  0.5272040000000  0.5346440000000 1.0
C      1  0.4526970000000  0.3771850000000  0.5043650000000 1.0
C      1  0.6035730000000  0.4485160000000  0.5234660000000 1.0
C      1  0.5455270000000  0.5495470000000  0.4744170000000 1.0
C      1  0.4525730000000  0.4824440000000  0.4724170000000 1.0
C      1  0.4362670000000  0.4073310000000  0.4702490000000 1.0
C      1  0.4453370000000  0.6004860000000  0.5327410000000 1.0
C      1  0.5011980000000  0.4993980000000  0.4921960000000 1.0
C      1  0.4505330000000  0.4230890000000  0.4182920000000 1.0
C      1  0.5630590000000  0.5779880000000  0.4220050000000 1.0
C      1  0.5119130000000  0.5187430000000  0.3848660000000 1.0
C      1  0.4687830000000  0.4804050000000  0.5189660000000 1.0
C      1  0.5465940000000  0.5641650000000  0.5868910000000 1.0
C      1  0.5703200000000  0.4400920000000  0.4789440000000 1.0
C      1  0.5613780000000  0.4976630000000  0.4980940000000 1.0
C      1  0.4996110000000  0.5264030000000  0.4093640000000 1.0
C      1  0.3815620000000  0.4738850000000  0.5101330000000 1.0
END
