TITL C-247196-3112-303 4.05444326414385 125000 -296.918143436592 0 0 50 (C1) n - 1
REM
REM in /home/nfs/bkarasulu/CARBON/AIRSS/Generating-Clusters/LCBOP/Only-C1/SD-CG/FIRE-HFTN
REM
REM
REM
REM
REM
REM ./C.cell (11c1c37f851c82e70ff6c80c92926a4b)
REM AIRSS Version 0.9.1 bugfix July 2018 build 013d7b7c2542+ Fri, 06 Jul 2018 19:26:36 +0100
REM compiler GCC version 9.2.1 20190827 (Red Hat 9.2.1-1)
REM options -cpp -mtune=generic -march=x86-64 -g -O0 -fpre-include=/usr/include/finclude/math-vector-fortran.h
REM seed -1180305387 -2102005836 -49868359 550456953 42047889 1549135873 -1763074100 -663523824 -1590640199 -929608344 601867187 -1588484274 154573624 1091488345 -812946153 72229966 1148201249 -1169035882 1111581370 -2125391634 -934125298 2121102303 -1892463243 -1139423510 -1460447549 -1778079497 523460098 -269390180 865433183 860336116 1849006457 -963597393 -1579530517
REM
CELL 1.54180   50.00000   50.00000   50.00000   90.00000   90.00000   90.00000
LATT -1
SFAC C  
C      1  0.4686100000000  0.5209900000000  0.5091020000000 1.0
C      1  0.5648650000000  0.6342260000000  0.5023250000000 1.0
C      1  0.4747460000000  0.4901330000000  0.5757140000000 1.0
C      1  0.4718770000000  0.3889190000000  0.4341470000000 1.0
C      1  0.5408880000000  0.5570490000000  0.5528650000000 1.0
C      1  0.4794490000000  0.5067870000000  0.4874560000000 1.0
C      1  0.5960490000000  0.6267100000000  0.5380600000000 1.0
C      1  0.5413700000000  0.5276390000000  0.5060570000000 1.0
C      1  0.4705570000000  0.5121740000000  0.5357130000000 1.0
C      1  0.4961620000000  0.5104320000000  0.4668450000000 1.0
C      1  0.4801250000000  0.3098060000000  0.4639860000000 1.0
C      1  0.5396290000000  0.5560020000000  0.5044320000000 1.0
C      1  0.4616660000000  0.5486800000000  0.5052270000000 1.0
C      1  0.5009130000000  0.4463590000000  0.5301940000000 1.0
C      1  0.4893980000000  0.3775030000000  0.4933450000000 1.0
C      1  0.4659240000000  0.5319170000000  0.5574060000000 1.0
C      1  0.5097480000000  0.5308860000000  0.4560130000000 1.0
C      1  0.5751100000000  0.6180790000000  0.5227340000000 1.0
C      1  0.4750600000000  0.4144460000000  0.4441700000000 1.0
C      1  0.4886150000000  0.5884700000000  0.5157600000000 1.0
C      1  0.5636410000000  0.5930020000000  0.5272550000000 1.0
C      1  0.5440400000000  0.5287530000000  0.5530000000000 1.0
C      1  0.5393110000000  0.5126010000000  0.5300710000000 1.0
C      1  0.4888520000000  0.5763960000000  0.4532980000000 1.0
C      1  0.5226740000000  0.5689710000000  0.4861240000000 1.0
C      1  0.4638290000000  0.3817410000000  0.4072820000000 1.0
C      1  0.4725630000000  0.3149350000000  0.4384270000000 1.0
C      1  0.4943060000000  0.6004360000000  0.4687760000000 1.0
C      1  0.4741440000000  0.5583850000000  0.5520210000000 1.0
C      1  0.4779130000000  0.4387490000000  0.4531420000000 1.0
C      1  0.5486290000000  0.5696600000000  0.5281930000000 1.0
C      1  0.4854190000000  0.3300740000000  0.4812420000000 1.0
C      1  0.4627220000000  0.3542770000000  0.4042950000000 1.0
C      1  0.4757770000000  0.3634530000000  0.4479370000000 1.0
C      1  0.4941490000000  0.5697680000000  0.5682630000000 1.0
C      1  0.5209630000000  0.5687740000000  0.5687750000000 1.0
C      1  0.4661430000000  0.5158570000000  0.5813760000000 1.0
C      1  0.4721480000000  0.5672570000000  0.5247780000000 1.0
C      1  0.4836950000000  0.3576930000000  0.4747050000000 1.0
C      1  0.5110200000000  0.5583590000000  0.4613800000000 1.0
C      1  0.4980000000000  0.4216810000000  0.5210270000000 1.0
C      1  0.5541470000000  0.6480440000000  0.4830010000000 1.0
C      1  0.4810030000000  0.4874670000000  0.5475020000000 1.0
C      1  0.4699070000000  0.3411490000000  0.4287980000000 1.0
C      1  0.4627460000000  0.5660820000000  0.4568070000000 1.0
C      1  0.5060890000000  0.5922930000000  0.4939930000000 1.0
C      1  0.4941600000000  0.3985030000000  0.5087710000000 1.0
C      1  0.5262970000000  0.4880210000000  0.5316940000000 1.0
C      1  0.5027680000000  0.4733990000000  0.5365320000000 1.0
C      1  0.4521830000000  0.5570140000000  0.4799840000000 1.0
END
