TITL C-247199-3331-22 0.0909286804705118 125000 -170.486588311375 0 0 30 (C1) n - 1
REM
REM in /home/nfs/bkarasulu/CARBON/AIRSS/Generating-Clusters/LCBOP/Only-C1/SD-CG/FIRE-HFTN
REM
REM
REM
REM
REM
REM ./C.cell (11c1c37f851c82e70ff6c80c92926a4b)
REM AIRSS Version 0.9.1 bugfix July 2018 build 013d7b7c2542+ Fri, 06 Jul 2018 19:26:36 +0100
REM compiler GCC version 9.2.1 20190827 (Red Hat 9.2.1-1)
REM options -cpp -mtune=generic -march=x86-64 -g -O0 -fpre-include=/usr/include/finclude/math-vector-fortran.h
REM seed -1597320269 -1036258800 972431306 1896926384 1712321738 -743737991 626872605 1585481303 -105071862 129623334 -487724304 -498591357 -1802095070 1304506521 -1163392340 -1984597361 -1247588397 1954629455 -698956049 919128915 1763175630 2012824257 1508368760 -2085237978 932501806 661029404 1895890669 1477744389 1303019503 -64095824 -499221077 644237885 1044994152
REM
CELL 1.54180   50.00000   50.00000   50.00000   90.00000   90.00000   90.00000
LATT -1
SFAC C  
C      1  0.4368860000000  0.4648450000000  0.4815310000000 1.0
C      1  0.5357340000000  0.4642420000000  0.5205140000000 1.0
C      1  0.4869910000000  0.4692490000000  0.4802280000000 1.0
C      1  0.4503090000000  0.3866820000000  0.6172530000000 1.0
C      1  0.4877140000000  0.5212070000000  0.5302810000000 1.0
C      1  0.5504010000000  0.5302770000000  0.4326080000000 1.0
C      1  0.4303970000000  0.4821380000000  0.5012210000000 1.0
C      1  0.5086850000000  0.4622940000000  0.5240810000000 1.0
C      1  0.4981120000000  0.4456880000000  0.5439320000000 1.0
C      1  0.4908640000000  0.4769950000000  0.5075890000000 1.0
C      1  0.5114450000000  0.5321000000000  0.5189190000000 1.0
C      1  0.4812820000000  0.5936580000000  0.4955610000000 1.0
C      1  0.5219160000000  0.4954560000000  0.4511180000000 1.0
C      1  0.5230520000000  0.5385480000000  0.4719690000000 1.0
C      1  0.5099930000000  0.5474680000000  0.4950210000000 1.0
C      1  0.4670330000000  0.6154660000000  0.4965580000000 1.0
C      1  0.4472760000000  0.4965040000000  0.5165250000000 1.0
C      1  0.4753810000000  0.4985050000000  0.5185790000000 1.0
C      1  0.4769810000000  0.5326600000000  0.5527460000000 1.0
C      1  0.5060050000000  0.4767660000000  0.4612560000000 1.0
C      1  0.4742690000000  0.4160090000000  0.5807820000000 1.0
C      1  0.5355900000000  0.5282760000000  0.5312880000000 1.0
C      1  0.5853290000000  0.5470330000000  0.3964470000000 1.0
C      1  0.4956740000000  0.5714320000000  0.4947210000000 1.0
C      1  0.6025110000000  0.5552770000000  0.3786580000000 1.0
C      1  0.5678590000000  0.5386510000000  0.4145330000000 1.0
C      1  0.4621900000000  0.4012240000000  0.5991690000000 1.0
C      1  0.4617520000000  0.4590200000000  0.4728680000000 1.0
C      1  0.4863400000000  0.4307920000000  0.5623990000000 1.0
C      1  0.5320290000000  0.5215380000000  0.4516440000000 1.0
END
