TITL C-247198-3593-303 9.60143183740517e-05 125000 -1189.9239298353 0 0 195 (C1) n - 1
REM
REM in /home/nfs/bkarasulu/CARBON/AIRSS/Generating-Clusters/LCBOP/Only-C1/SD-CG/FIRE-HFTN
REM
REM
REM
REM
REM
REM ./C.cell (11c1c37f851c82e70ff6c80c92926a4b)
REM AIRSS Version 0.9.1 bugfix July 2018 build 013d7b7c2542+ Fri, 06 Jul 2018 19:26:36 +0100
REM compiler GCC version 9.2.1 20190827 (Red Hat 9.2.1-1)
REM options -cpp -mtune=generic -march=x86-64 -g -O0 -fpre-include=/usr/include/finclude/math-vector-fortran.h
REM seed -1496896695 110984581 -482069065 -1465984476 -1597819067 261587545 -1363000871 271869966 118661284 -2012101066 617680455 350501139 -417418932 -30856869 537848913 -749800665 -1115668583 -1075928608 479340993 -1902551056 -1586036537 180089598 1308131738 147606963 -989349669 1089357673 1855613286 1032257678 559156170 114991876 1873001453 2128252973 -2048533348
REM
CELL 1.54180   50.00000   50.00000   50.00000   90.00000   90.00000   90.00000
LATT -1
SFAC C  
C      1  0.3816960000000  0.5094740000000  0.4404710000000 1.0
C      1  0.4888480000000  0.5428290000000  0.4921940000000 1.0
C      1  0.5812850000000  0.5136580000000  0.4956450000000 1.0
C      1  0.5149030000000  0.5298450000000  0.3386680000000 1.0
C      1  0.5000560000000  0.4791640000000  0.6305960000000 1.0
C      1  0.4053950000000  0.5038570000000  0.5387520000000 1.0
C      1  0.4049160000000  0.5750020000000  0.5262810000000 1.0
C      1  0.4454220000000  0.5351490000000  0.4693970000000 1.0
C      1  0.4665640000000  0.6030320000000  0.4714040000000 1.0
C      1  0.4733780000000  0.4445470000000  0.4265600000000 1.0
C      1  0.5156510000000  0.6199760000000  0.5352040000000 1.0
C      1  0.5535560000000  0.5454020000000  0.3934070000000 1.0
C      1  0.5057200000000  0.5605320000000  0.4026990000000 1.0
C      1  0.4242410000000  0.5317600000000  0.5942910000000 1.0
C      1  0.5025060000000  0.5042470000000  0.5130760000000 1.0
C      1  0.4664490000000  0.4246150000000  0.4772800000000 1.0
C      1  0.3612860000000  0.4931030000000  0.4859960000000 1.0
C      1  0.4994530000000  0.4526790000000  0.6241480000000 1.0
C      1  0.5052670000000  0.3814120000000  0.5264430000000 1.0
C      1  0.4638970000000  0.5160260000000  0.4314000000000 1.0
C      1  0.3455550000000  0.4880700000000  0.5765460000000 1.0
C      1  0.5027660000000  0.4499650000000  0.4271520000000 1.0
C      1  0.4323780000000  0.4898360000000  0.5335000000000 1.0
C      1  0.6312370000000  0.4583130000000  0.4710530000000 1.0
C      1  0.5324240000000  0.4878000000000  0.4245470000000 1.0
C      1  0.5964730000000  0.4871520000000  0.5632220000000 1.0
C      1  0.5046960000000  0.5334960000000  0.5826410000000 1.0
C      1  0.5162300000000  0.5781570000000  0.5041230000000 1.0
C      1  0.4786120000000  0.5703560000000  0.5943610000000 1.0
C      1  0.5398080000000  0.4154990000000  0.4857190000000 1.0
C      1  0.3747820000000  0.4821300000000  0.5086780000000 1.0
C      1  0.5378440000000  0.4103870000000  0.5565500000000 1.0
C      1  0.5670110000000  0.5379150000000  0.4910390000000 1.0
C      1  0.3847110000000  0.5362510000000  0.4514280000000 1.0
C      1  0.5870780000000  0.4476780000000  0.4858220000000 1.0
C      1  0.5299270000000  0.3655750000000  0.4567390000000 1.0
C      1  0.4449750000000  0.4954830000000  0.4387460000000 1.0
C      1  0.5331670000000  0.6033970000000  0.5517550000000 1.0
C      1  0.4663840000000  0.5496320000000  0.5106110000000 1.0
C      1  0.5532210000000  0.5019650000000  0.5444460000000 1.0
C      1  0.3752690000000  0.4404960000000  0.4361860000000 1.0
C      1  0.5553210000000  0.5881850000000  0.5386420000000 1.0
C      1  0.5337160000000  0.4347080000000  0.5717790000000 1.0
C      1  0.4730430000000  0.4715280000000  0.3865320000000 1.0
C      1  0.4543000000000  0.4194460000000  0.5737510000000 1.0
C      1  0.3903200000000  0.5499020000000  0.4766930000000 1.0
C      1  0.5356080000000  0.5627560000000  0.4068860000000 1.0
C      1  0.5614150000000  0.3983990000000  0.4906400000000 1.0
C      1  0.4864260000000  0.5827010000000  0.4104250000000 1.0
C      1  0.5599770000000  0.4836240000000  0.4638030000000 1.0
C      1  0.4528520000000  0.5828840000000  0.4508890000000 1.0
C      1  0.6278510000000  0.5356550000000  0.4832310000000 1.0
C      1  0.4825780000000  0.5777160000000  0.5439280000000 1.0
C      1  0.5646100000000  0.4840120000000  0.3677090000000 1.0
C      1  0.4845300000000  0.5435310000000  0.5999490000000 1.0
C      1  0.5392240000000  0.5714260000000  0.5897600000000 1.0
C      1  0.4892220000000  0.4391420000000  0.6013100000000 1.0
C      1  0.6063080000000  0.4212770000000  0.4469920000000 1.0
C      1  0.4801110000000  0.4009660000000  0.4862310000000 1.0
C      1  0.5367770000000  0.5464170000000  0.4600590000000 1.0
C      1  0.5001220000000  0.4584870000000  0.4719340000000 1.0
C      1  0.4048560000000  0.4224010000000  0.5018210000000 1.0
C      1  0.4571980000000  0.4580420000000  0.4060590000000 1.0
C      1  0.6080520000000  0.4418750000000  0.4667220000000 1.0
C      1  0.4927570000000  0.5343960000000  0.3958140000000 1.0
C      1  0.5018940000000  0.5762740000000  0.4580930000000 1.0
C      1  0.4863600000000  0.4980970000000  0.6150790000000 1.0
C      1  0.4602640000000  0.5767120000000  0.4219460000000 1.0
C      1  0.5146180000000  0.3683140000000  0.4786000000000 1.0
C      1  0.3797740000000  0.4916060000000  0.5346180000000 1.0
C      1  0.5504100000000  0.4595720000000  0.5713550000000 1.0
C      1  0.5247780000000  0.5536500000000  0.5431600000000 1.0
C      1  0.4708550000000  0.5233780000000  0.6149170000000 1.0
C      1  0.5435360000000  0.4668560000000  0.5050760000000 1.0
C      1  0.5852890000000  0.3927190000000  0.4799100000000 1.0
C      1  0.4561130000000  0.5012220000000  0.5507400000000 1.0
C      1  0.5785600000000  0.5229880000000  0.6261550000000 1.0
C      1  0.4513580000000  0.3915310000000  0.5742780000000 1.0
C      1  0.3938370000000  0.4151230000000  0.4782450000000 1.0
C      1  0.5522300000000  0.5591050000000  0.5422530000000 1.0
C      1  0.4220710000000  0.5779630000000  0.5041720000000 1.0
C      1  0.4632640000000  0.4313190000000  0.4497950000000 1.0
C      1  0.4278110000000  0.4916130000000  0.4616380000000 1.0
C      1  0.5969950000000  0.4541280000000  0.5125290000000 1.0
C      1  0.4297980000000  0.4662400000000  0.4060270000000 1.0
C      1  0.3613910000000  0.4890450000000  0.5553310000000 1.0
C      1  0.4890310000000  0.4788660000000  0.5118810000000 1.0
C      1  0.5734690000000  0.3840120000000  0.4354690000000 1.0
C      1  0.6170050000000  0.5521320000000  0.5300450000000 1.0
C      1  0.5023350000000  0.4617960000000  0.5336440000000 1.0
C      1  0.4671250000000  0.6393170000000  0.5792770000000 1.0
C      1  0.5057560000000  0.6224550000000  0.5074680000000 1.0
C      1  0.5784730000000  0.4628660000000  0.5614990000000 1.0
C      1  0.4653390000000  0.4297630000000  0.5493970000000 1.0
C      1  0.5498940000000  0.3668640000000  0.5393270000000 1.0
C      1  0.5600910000000  0.5595040000000  0.4492160000000 1.0
C      1  0.5405060000000  0.4363500000000  0.4652190000000 1.0
C      1  0.4973340000000  0.6060740000000  0.4216990000000 1.0
C      1  0.5962790000000  0.5124190000000  0.5200180000000 1.0
C      1  0.5131730000000  0.5324370000000  0.5560540000000 1.0
C      1  0.5652170000000  0.6008440000000  0.5151430000000 1.0
C      1  0.4684150000000  0.5492530000000  0.5403440000000 1.0
C      1  0.5747220000000  0.5279600000000  0.5986090000000 1.0
C      1  0.5802150000000  0.5541470000000  0.4694440000000 1.0
C      1  0.3972940000000  0.4679570000000  0.4963440000000 1.0
C      1  0.3829200000000  0.4230570000000  0.4550450000000 1.0
C      1  0.5912290000000  0.3977680000000  0.4527520000000 1.0
C      1  0.5085420000000  0.5711770000000  0.5290980000000 1.0
C      1  0.5399260000000  0.6004840000000  0.4389970000000 1.0
C      1  0.3304100000000  0.4874450000000  0.5977540000000 1.0
C      1  0.4237220000000  0.4601670000000  0.5340450000000 1.0
C      1  0.3785650000000  0.4927750000000  0.4634480000000 1.0
C      1  0.5287530000000  0.6258090000000  0.4906630000000 1.0
C      1  0.6192550000000  0.4733820000000  0.5148870000000 1.0
C      1  0.4672670000000  0.5943890000000  0.5202510000000 1.0
C      1  0.5069050000000  0.4851460000000  0.5546270000000 1.0
C      1  0.6085480000000  0.5520520000000  0.4687940000000 1.0
C      1  0.5584140000000  0.4577360000000  0.4786010000000 1.0
C      1  0.4599930000000  0.4358280000000  0.5967740000000 1.0
C      1  0.4424860000000  0.5139720000000  0.6076820000000 1.0
C      1  0.6044790000000  0.5043200000000  0.4279820000000 1.0
C      1  0.5034950000000  0.5113090000000  0.3821560000000 1.0
C      1  0.4135550000000  0.5048430000000  0.3812630000000 1.0
C      1  0.6187030000000  0.4242170000000  0.4227640000000 1.0
C      1  0.3746180000000  0.4640440000000  0.4232720000000 1.0
C      1  0.4735780000000  0.4851400000000  0.5924880000000 1.0
C      1  0.5502760000000  0.5764630000000  0.4286550000000 1.0
C      1  0.4882920000000  0.5519910000000  0.4643640000000 1.0
C      1  0.5671410000000  0.3473990000000  0.5376570000000 1.0
C      1  0.5423200000000  0.4950150000000  0.3579220000000 1.0
C      1  0.5573760000000  0.5508770000000  0.5930550000000 1.0
C      1  0.4271000000000  0.5360430000000  0.5659080000000 1.0
C      1  0.4649560000000  0.3728620000000  0.5605520000000 1.0
C      1  0.5885990000000  0.5089930000000  0.5811530000000 1.0
C      1  0.5147220000000  0.5036300000000  0.4670270000000 1.0
C      1  0.4453920000000  0.4846990000000  0.6014660000000 1.0
C      1  0.5124080000000  0.5998610000000  0.4446650000000 1.0
C      1  0.4846150000000  0.3707480000000  0.5426090000000 1.0
C      1  0.3930750000000  0.5493560000000  0.5286500000000 1.0
C      1  0.6337370000000  0.5464770000000  0.5090380000000 1.0
C      1  0.4442870000000  0.4928460000000  0.5048230000000 1.0
C      1  0.5758960000000  0.5314730000000  0.3983700000000 1.0
C      1  0.4494770000000  0.5541980000000  0.4079010000000 1.0
C      1  0.5244190000000  0.4237790000000  0.5077970000000 1.0
C      1  0.4797240000000  0.6103960000000  0.4989090000000 1.0
C      1  0.5128340000000  0.4724100000000  0.4118680000000 1.0
C      1  0.4594900000000  0.4428230000000  0.4985860000000 1.0
C      1  0.4127070000000  0.5683100000000  0.4786220000000 1.0
C      1  0.4352560000000  0.5619160000000  0.4630810000000 1.0
C      1  0.5053660000000  0.4379740000000  0.5771830000000 1.0
C      1  0.5823100000000  0.4987650000000  0.4712030000000 1.0
C      1  0.4093260000000  0.4481860000000  0.5122590000000 1.0
C      1  0.4782370000000  0.6159500000000  0.5763200000000 1.0
C      1  0.4045520000000  0.5445470000000  0.6083670000000 1.0
C      1  0.5157960000000  0.4456300000000  0.4530130000000 1.0
C      1  0.4530230000000  0.5302300000000  0.5545280000000 1.0
C      1  0.5498650000000  0.3716230000000  0.4397990000000 1.0
C      1  0.4059330000000  0.5311970000000  0.5467580000000 1.0
C      1  0.5202730000000  0.5125370000000  0.3591260000000 1.0
C      1  0.5899400000000  0.5077040000000  0.4041130000000 1.0
C      1  0.5940260000000  0.5364990000000  0.5350850000000 1.0
C      1  0.6096370000000  0.4920450000000  0.5355530000000 1.0
C      1  0.5671030000000  0.5351060000000  0.5439120000000 1.0
C      1  0.5305540000000  0.3873520000000  0.5404670000000 1.0
C      1  0.4036650000000  0.4790510000000  0.4703610000000 1.0
C      1  0.4895150000000  0.5884620000000  0.5727850000000 1.0
C      1  0.5382920000000  0.5369300000000  0.4875350000000 1.0
C      1  0.5213200000000  0.5895540000000  0.5749260000000 1.0
C      1  0.4640950000000  0.4715960000000  0.5009710000000 1.0
C      1  0.4995960000000  0.3831720000000  0.4976000000000 1.0
C      1  0.4695770000000  0.5332520000000  0.4533160000000 1.0
C      1  0.5778730000000  0.4596080000000  0.5326340000000 1.0
C      1  0.4410910000000  0.4565190000000  0.6046180000000 1.0
C      1  0.4497990000000  0.5743480000000  0.5082090000000 1.0
C      1  0.5078970000000  0.5108260000000  0.5396290000000 1.0
C      1  0.5118380000000  0.5218080000000  0.4915800000000 1.0
C      1  0.6275600000000  0.5071340000000  0.4755230000000 1.0
C      1  0.6060430000000  0.5023850000000  0.4558620000000 1.0
C      1  0.5362550000000  0.4848010000000  0.5640850000000 1.0
C      1  0.4105230000000  0.4873580000000  0.4021630000000 1.0
C      1  0.3813210000000  0.5417690000000  0.5030950000000 1.0
C      1  0.6318080000000  0.4809040000000  0.4893760000000 1.0
C      1  0.4778870000000  0.4881160000000  0.5653630000000 1.0
C      1  0.5537810000000  0.6163340000000  0.4959850000000 1.0
C      1  0.5365020000000  0.4935540000000  0.4515110000000 1.0
C      1  0.4972210000000  0.4848630000000  0.3916230000000 1.0
C      1  0.4554130000000  0.4294940000000  0.5234500000000 1.0
C      1  0.4378690000000  0.5099460000000  0.4822590000000 1.0
C      1  0.5840080000000  0.4868410000000  0.3860730000000 1.0
C      1  0.4907060000000  0.4414550000000  0.5524280000000 1.0
C      1  0.5591540000000  0.4809810000000  0.5239690000000 1.0
C      1  0.5813070000000  0.5179360000000  0.6515730000000 1.0
C      1  0.4660860000000  0.5307710000000  0.4071520000000 1.0
C      1  0.5240630000000  0.4499610000000  0.5171350000000 1.0
C      1  0.3874400000000  0.4894940000000  0.4191540000000 1.0
END
