TITL C-247195-3186-635 1.10550208499723 125000 -1048.07256400975 0 0 170 (C1) n - 1
REM
REM in /home/nfs/bkarasulu/CARBON/AIRSS/Generating-Clusters/LCBOP/Only-C1/SD-CG/FIRE-HFTN
REM
REM
REM
REM
REM
REM ./C.cell (11c1c37f851c82e70ff6c80c92926a4b)
REM AIRSS Version 0.9.1 bugfix July 2018 build 013d7b7c2542+ Fri, 06 Jul 2018 19:26:36 +0100
REM compiler GCC version 9.2.1 20190827 (Red Hat 9.2.1-1)
REM options -cpp -mtune=generic -march=x86-64 -g -O0 -fpre-include=/usr/include/finclude/math-vector-fortran.h
REM seed -1892931841 1698942142 1091523972 416003149 1412542173 -1254622710 -646189971 1382641003 526981991 290747651 200976870 1195868022 -702186089 -40914828 2108023995 61350335 1639984670 107633951 1080905745 -1138493373 1892512028 -1273193456 -268149643 -907180485 -1485591042 924254743 603997329 2026258256 1993961452 1244760863 1097154981 -1701686992 -316043729
REM
CELL 1.54180   50.00000   50.00000   50.00000   90.00000   90.00000   90.00000
LATT -1
SFAC C  
C      1  0.4392630000000  0.4199490000000  0.4966420000000 1.0
C      1  0.5083410000000  0.5620890000000  0.5678130000000 1.0
C      1  0.6097700000000  0.4476130000000  0.4782400000000 1.0
C      1  0.4989440000000  0.6183460000000  0.4997700000000 1.0
C      1  0.4923290000000  0.4095150000000  0.5573470000000 1.0
C      1  0.4095030000000  0.4707490000000  0.5291810000000 1.0
C      1  0.5886990000000  0.5098120000000  0.4298530000000 1.0
C      1  0.3914040000000  0.5315330000000  0.4674550000000 1.0
C      1  0.4594760000000  0.4123990000000  0.4504090000000 1.0
C      1  0.4041340000000  0.6102400000000  0.4349960000000 1.0
C      1  0.4468900000000  0.4976120000000  0.4383450000000 1.0
C      1  0.5081310000000  0.5764830000000  0.4402500000000 1.0
C      1  0.5004390000000  0.5982160000000  0.4562360000000 1.0
C      1  0.5500880000000  0.4898890000000  0.3964460000000 1.0
C      1  0.6078140000000  0.4663990000000  0.4284200000000 1.0
C      1  0.4948460000000  0.4487060000000  0.4125370000000 1.0
C      1  0.4436340000000  0.5131550000000  0.3925750000000 1.0
C      1  0.4138750000000  0.5091020000000  0.4021890000000 1.0
C      1  0.5334100000000  0.5573500000000  0.5801170000000 1.0
C      1  0.4872050000000  0.4034760000000  0.4903680000000 1.0
C      1  0.5230380000000  0.5153960000000  0.6129990000000 1.0
C      1  0.4368030000000  0.4230580000000  0.4674640000000 1.0
C      1  0.4097630000000  0.3813300000000  0.5060000000000 1.0
C      1  0.4830690000000  0.4660940000000  0.4637480000000 1.0
C      1  0.4289040000000  0.5562430000000  0.4570800000000 1.0
C      1  0.5691330000000  0.5058210000000  0.6223980000000 1.0
C      1  0.4868170000000  0.5777920000000  0.5771690000000 1.0
C      1  0.3692020000000  0.3520150000000  0.4899330000000 1.0
C      1  0.5421310000000  0.4975090000000  0.6279060000000 1.0
C      1  0.5191150000000  0.5610500000000  0.3977520000000 1.0
C      1  0.4469960000000  0.6114170000000  0.4846130000000 1.0
C      1  0.4979340000000  0.5758900000000  0.4129070000000 1.0
C      1  0.5354170000000  0.4587950000000  0.4344130000000 1.0
C      1  0.4560420000000  0.5355950000000  0.5296980000000 1.0
C      1  0.5824930000000  0.5386520000000  0.5341150000000 1.0
C      1  0.4466550000000  0.3927770000000  0.5367880000000 1.0
C      1  0.5857810000000  0.5686830000000  0.5246450000000 1.0
C      1  0.5957530000000  0.4463810000000  0.5930830000000 1.0
C      1  0.3958600000000  0.5408740000000  0.5217890000000 1.0
C      1  0.4299050000000  0.6014530000000  0.4361350000000 1.0
C      1  0.3935940000000  0.4859650000000  0.5110350000000 1.0
C      1  0.4790040000000  0.4639700000000  0.6214740000000 1.0
C      1  0.5146030000000  0.6038620000000  0.4803230000000 1.0
C      1  0.4752110000000  0.6054470000000  0.4437640000000 1.0
C      1  0.4560220000000  0.4724510000000  0.4267580000000 1.0
C      1  0.4740000000000  0.4312200000000  0.5772140000000 1.0
C      1  0.5178780000000  0.4169600000000  0.5411010000000 1.0
C      1  0.5294070000000  0.5179110000000  0.4726510000000 1.0
C      1  0.6110960000000  0.4543020000000  0.4522470000000 1.0
C      1  0.5211520000000  0.4064580000000  0.4284430000000 1.0
C      1  0.4164210000000  0.4396850000000  0.4510480000000 1.0
C      1  0.5502560000000  0.5642220000000  0.4834530000000 1.0
C      1  0.4721550000000  0.5173190000000  0.5418280000000 1.0
C      1  0.4431900000000  0.5617210000000  0.5681120000000 1.0
C      1  0.5147280000000  0.5904490000000  0.5326690000000 1.0
C      1  0.4101190000000  0.4938780000000  0.4892490000000 1.0
C      1  0.4346310000000  0.4600080000000  0.5683690000000 1.0
C      1  0.4426060000000  0.5837050000000  0.4161910000000 1.0
C      1  0.5099690000000  0.5630320000000  0.5391030000000 1.0
C      1  0.3893160000000  0.3665110000000  0.4979890000000 1.0
C      1  0.5669860000000  0.5302570000000  0.6065310000000 1.0
C      1  0.4520360000000  0.4221890000000  0.4239940000000 1.0
C      1  0.4856100000000  0.4011580000000  0.4617920000000 1.0
C      1  0.5457460000000  0.4126090000000  0.5304450000000 1.0
C      1  0.5385540000000  0.5375580000000  0.6008980000000 1.0
C      1  0.5420280000000  0.5144350000000  0.4129250000000 1.0
C      1  0.6093870000000  0.5235240000000  0.5319310000000 1.0
C      1  0.4989290000000  0.4292390000000  0.4942210000000 1.0
C      1  0.4565770000000  0.4446960000000  0.5577530000000 1.0
C      1  0.5400540000000  0.4111760000000  0.4795030000000 1.0
C      1  0.5439470000000  0.5114610000000  0.5387190000000 1.0
C      1  0.5159800000000  0.5456620000000  0.5174500000000 1.0
C      1  0.5495980000000  0.5560590000000  0.4363640000000 1.0
C      1  0.4698600000000  0.5014750000000  0.3884570000000 1.0
C      1  0.4718700000000  0.5896050000000  0.4171740000000 1.0
C      1  0.5409290000000  0.5930260000000  0.5213010000000 1.0
C      1  0.4572660000000  0.5246290000000  0.4355960000000 1.0
C      1  0.5559210000000  0.5657580000000  0.5631980000000 1.0
C      1  0.4626320000000  0.5825550000000  0.5630130000000 1.0
C      1  0.4736220000000  0.4477130000000  0.3923700000000 1.0
C      1  0.4072180000000  0.4858330000000  0.4210830000000 1.0
C      1  0.5135130000000  0.5274950000000  0.4501440000000 1.0
C      1  0.5949400000000  0.5269370000000  0.4834970000000 1.0
C      1  0.5224990000000  0.5545130000000  0.4470660000000 1.0
C      1  0.4671900000000  0.4493920000000  0.5326110000000 1.0
C      1  0.5758280000000  0.5447560000000  0.5625870000000 1.0
C      1  0.5665860000000  0.5591000000000  0.4595310000000 1.0
C      1  0.5553150000000  0.4626350000000  0.4936570000000 1.0
C      1  0.6142020000000  0.5693250000000  0.5190830000000 1.0
C      1  0.5776930000000  0.5090180000000  0.4974480000000 1.0
C      1  0.4944030000000  0.4574850000000  0.5301820000000 1.0
C      1  0.5915590000000  0.4472000000000  0.5300500000000 1.0
C      1  0.5962610000000  0.4877100000000  0.4138870000000 1.0
C      1  0.4389100000000  0.5424190000000  0.5889190000000 1.0
C      1  0.5123430000000  0.5128750000000  0.4236420000000 1.0
C      1  0.5017380000000  0.5000630000000  0.6011350000000 1.0
C      1  0.5435310000000  0.5461650000000  0.4085110000000 1.0
C      1  0.6053640000000  0.4909250000000  0.5922600000000 1.0
C      1  0.4362020000000  0.5706160000000  0.5061730000000 1.0
C      1  0.6087130000000  0.5179380000000  0.5860270000000 1.0
C      1  0.5477880000000  0.4396300000000  0.4771080000000 1.0
C      1  0.4170390000000  0.5598130000000  0.5250180000000 1.0
C      1  0.4431280000000  0.4654790000000  0.5947410000000 1.0
C      1  0.4567240000000  0.5492310000000  0.5047310000000 1.0
C      1  0.5026410000000  0.4493130000000  0.4739950000000 1.0
C      1  0.4329850000000  0.5141440000000  0.5859080000000 1.0
C      1  0.5193230000000  0.4993740000000  0.5429410000000 1.0
C      1  0.4493200000000  0.4940630000000  0.5999960000000 1.0
C      1  0.3853060000000  0.5392380000000  0.4948240000000 1.0
C      1  0.5399040000000  0.4659770000000  0.5170070000000 1.0
C      1  0.4313750000000  0.4632280000000  0.5119660000000 1.0
C      1  0.4750910000000  0.3927010000000  0.5390870000000 1.0
C      1  0.4355530000000  0.5496070000000  0.5443310000000 1.0
C      1  0.4140620000000  0.5054500000000  0.5636350000000 1.0
C      1  0.6041040000000  0.4671990000000  0.5747020000000 1.0
C      1  0.4927230000000  0.6063580000000  0.5247840000000 1.0
C      1  0.6094070000000  0.4951530000000  0.5355930000000 1.0
C      1  0.4618960000000  0.4790140000000  0.4783770000000 1.0
C      1  0.5861780000000  0.5346310000000  0.5861430000000 1.0
C      1  0.4659040000000  0.4467210000000  0.6023560000000 1.0
C      1  0.3974220000000  0.5220560000000  0.5450310000000 1.0
C      1  0.5152700000000  0.4013290000000  0.4553440000000 1.0
C      1  0.5607710000000  0.5086680000000  0.4373300000000 1.0
C      1  0.5279030000000  0.4595250000000  0.6025810000000 1.0
C      1  0.6017160000000  0.4694050000000  0.5464660000000 1.0
C      1  0.4190800000000  0.4973810000000  0.4448550000000 1.0
C      1  0.5129040000000  0.4767450000000  0.5874940000000 1.0
C      1  0.5536430000000  0.3715660000000  0.5045030000000 1.0
C      1  0.5116170000000  0.4261090000000  0.4129120000000 1.0
C      1  0.5167030000000  0.4748160000000  0.5305930000000 1.0
C      1  0.6271340000000  0.5450670000000  0.5235780000000 1.0
C      1  0.5878810000000  0.4572080000000  0.6174080000000 1.0
C      1  0.4764600000000  0.4926470000000  0.6126970000000 1.0
C      1  0.5605710000000  0.5243650000000  0.5174790000000 1.0
C      1  0.4033990000000  0.5058720000000  0.4658570000000 1.0
C      1  0.5783830000000  0.4862960000000  0.3914240000000 1.0
C      1  0.5891000000000  0.4862070000000  0.6167350000000 1.0
C      1  0.4037550000000  0.5469390000000  0.4461990000000 1.0
C      1  0.4829350000000  0.4652550000000  0.4351980000000 1.0
C      1  0.5914900000000  0.5447150000000  0.4616550000000 1.0
C      1  0.4500000000000  0.4479470000000  0.4098500000000 1.0
C      1  0.5386720000000  0.5383390000000  0.4978600000000 1.0
C      1  0.5385720000000  0.5896270000000  0.4920870000000 1.0
C      1  0.4958410000000  0.5109710000000  0.5513620000000 1.0
C      1  0.5650130000000  0.4875110000000  0.4831490000000 1.0
C      1  0.4473940000000  0.5965410000000  0.5091310000000 1.0
C      1  0.4538450000000  0.5425010000000  0.4570060000000 1.0
C      1  0.4515040000000  0.5362960000000  0.4095550000000 1.0
C      1  0.6016710000000  0.5332890000000  0.4378270000000 1.0
C      1  0.5062580000000  0.4337860000000  0.5203570000000 1.0
C      1  0.5373630000000  0.4694450000000  0.6262040000000 1.0
C      1  0.5464940000000  0.3981090000000  0.5045380000000 1.0
C      1  0.5692180000000  0.4292150000000  0.5364060000000 1.0
C      1  0.4312850000000  0.3975330000000  0.5129240000000 1.0
C      1  0.4927780000000  0.5054090000000  0.4035350000000 1.0
C      1  0.5504150000000  0.5010630000000  0.4627790000000 1.0
C      1  0.4657850000000  0.5987840000000  0.5324680000000 1.0
C      1  0.5389620000000  0.4669010000000  0.4090500000000 1.0
C      1  0.4861210000000  0.3868620000000  0.5130360000000 1.0
C      1  0.5276100000000  0.4505140000000  0.4598640000000 1.0
C      1  0.4166170000000  0.4775020000000  0.5554690000000 1.0
C      1  0.5619370000000  0.5812430000000  0.5374330000000 1.0
C      1  0.4682050000000  0.5425860000000  0.4806130000000 1.0
C      1  0.4322120000000  0.5575870000000  0.4093630000000 1.0
C      1  0.4058770000000  0.4568900000000  0.4306230000000 1.0
C      1  0.6036180000000  0.4443980000000  0.5042090000000 1.0
C      1  0.4487620000000  0.4419410000000  0.5121920000000 1.0
C      1  0.4075950000000  0.5414610000000  0.4171460000000 1.0
C      1  0.4363950000000  0.4818020000000  0.4910720000000 1.0
C      1  0.4494930000000  0.6097290000000  0.4563350000000 1.0
END
