TITL C-247202-1916-547 -4442.68140891466 125000 -856.5652878948 0 0 140 (C1) n - 1
REM
REM in /home/nfs/bkarasulu/CARBON/AIRSS/Generating-Clusters/LCBOP/Only-C1/SD-CG/FIRE-HFTN
REM
REM
REM
REM
REM
REM ./C.cell (11c1c37f851c82e70ff6c80c92926a4b)
REM AIRSS Version 0.9.1 bugfix July 2018 build 013d7b7c2542+ Fri, 06 Jul 2018 19:26:36 +0100
REM compiler GCC version 9.2.1 20190827 (Red Hat 9.2.1-1)
REM options -cpp -mtune=generic -march=x86-64 -g -O0 -fpre-include=/usr/include/finclude/math-vector-fortran.h
REM seed -1812089627 -1807202292 -643414043 -1240396523 1725202849 1832241298 -840412677 -379738591 -2030634274 -1848513065 896103014 -1823650604 308906411 622944362 -621173142 240821803 1443123073 -1537074873 1616373245 -1154263832 -1188122241 1065701732 1322308774 -925538004 1828685852 -2020419578 -1533358447 -949828898 -1012221507 -2049134392 -2039745863 1147644601 46330784
REM
CELL 1.54180   50.00000   50.00000   50.00000   90.00000   90.00000   90.00000
LATT -1
SFAC C  
C      1  0.5766160000000  0.4200230000000  0.5388080000000 1.0
C      1  0.5936500000000  0.5662240000000  0.5574870000000 1.0
C      1  0.5013060000000  0.4551990000000  0.5088540000000 1.0
C      1  0.4729030000000  0.3929400000000  0.5128340000000 1.0
C      1  0.4155030000000  0.5371790000000  0.4166650000000 1.0
C      1  0.5923880000000  0.4248850000000  0.4851610000000 1.0
C      1  0.5959920000000  0.5021910000000  0.4452270000000 1.0
C      1  0.4597260000000  0.4539080000000  0.5900660000000 1.0
C      1  0.3971940000000  0.6385810000000  0.5381410000000 1.0
C      1  0.5387220000000  0.4773480000000  0.4699280000000 1.0
C      1  0.5655120000000  0.4142830000000  0.4800480000000 1.0
C      1  0.5490880000000  0.5067540000000  0.5240510000000 1.0
C      1  0.4951270000000  0.3901730000000  0.4976150000000 1.0
C      1  0.4507440000000  0.5651620000000  0.5762330000000 1.0
C      1  0.4133980000000  0.4354400000000  0.4237730000000 1.0
C      1  0.3955300000000  0.5845910000000  0.4192210000000 1.0
C      1  0.4896910000000  0.4289580000000  0.5494580000000 1.0
C      1  0.5578640000000  0.4628560000000  0.5355340000000 1.0
C      1  0.6056150000000  0.5717630000000  0.5339280000000 1.0
C      1  0.3958270000000  0.5848260000000  0.5330180000000 1.0
C      1  0.4858660000000  0.6032400000000  0.4732280000000 1.0
C      1  0.4332020000000  0.4232880000000  0.5174150000000 1.0
C      1  0.4782800000000  0.5164740000000  0.6147670000000 1.0
C      1  0.5047820000000  0.5271900000000  0.4634580000000 1.0
C      1  0.4029360000000  0.6080440000000  0.4295000000000 1.0
C      1  0.4110860000000  0.5731430000000  0.5127370000000 1.0
C      1  0.4542160000000  0.4070920000000  0.5295760000000 1.0
C      1  0.6162700000000  0.4769960000000  0.4878040000000 1.0
C      1  0.4198500000000  0.6221210000000  0.4445900000000 1.0
C      1  0.3985530000000  0.4768870000000  0.4838360000000 1.0
C      1  0.5325340000000  0.4779230000000  0.6093920000000 1.0
C      1  0.4476190000000  0.4977810000000  0.4253600000000 1.0
C      1  0.5569090000000  0.5748770000000  0.4591660000000 1.0
C      1  0.4735740000000  0.5255730000000  0.5586830000000 1.0
C      1  0.4513410000000  0.5384130000000  0.5710170000000 1.0
C      1  0.5627090000000  0.5053440000000  0.5525300000000 1.0
C      1  0.4808030000000  0.5178820000000  0.4747310000000 1.0
C      1  0.5581250000000  0.4828910000000  0.5982420000000 1.0
C      1  0.4872690000000  0.4535870000000  0.5997680000000 1.0
C      1  0.4184670000000  0.4410830000000  0.5346720000000 1.0
C      1  0.4507800000000  0.5006900000000  0.5257730000000 1.0
C      1  0.5215410000000  0.5001870000000  0.6223360000000 1.0
C      1  0.5403790000000  0.5086250000000  0.3957380000000 1.0
C      1  0.5639000000000  0.5203900000000  0.4074660000000 1.0
C      1  0.5239350000000  0.4558460000000  0.4610900000000 1.0
C      1  0.5179970000000  0.5384130000000  0.5925090000000 1.0
C      1  0.6066310000000  0.5264310000000  0.4914990000000 1.0
C      1  0.5241130000000  0.4386080000000  0.5052330000000 1.0
C      1  0.5389400000000  0.5922960000000  0.5188060000000 1.0
C      1  0.5703700000000  0.3988460000000  0.4327590000000 1.0
C      1  0.5157040000000  0.4581620000000  0.5970160000000 1.0
C      1  0.5135880000000  0.4242520000000  0.5631160000000 1.0
C      1  0.4478320000000  0.4173810000000  0.4677160000000 1.0
C      1  0.5263840000000  0.4016930000000  0.4562560000000 1.0
C      1  0.5098350000000  0.4176480000000  0.4383650000000 1.0
C      1  0.5131410000000  0.5212460000000  0.3937580000000 1.0
C      1  0.5165290000000  0.5811000000000  0.5041440000000 1.0
C      1  0.4575600000000  0.6011470000000  0.4722360000000 1.0
C      1  0.6124420000000  0.5127450000000  0.5170740000000 1.0
C      1  0.4648180000000  0.4174840000000  0.5544270000000 1.0
C      1  0.6023800000000  0.4518060000000  0.4805180000000 1.0
C      1  0.6151220000000  0.4837070000000  0.5167170000000 1.0
C      1  0.5564020000000  0.4067190000000  0.5261170000000 1.0
C      1  0.5817430000000  0.4479040000000  0.5393690000000 1.0
C      1  0.4555840000000  0.4143550000000  0.4408950000000 1.0
C      1  0.5161650000000  0.5094840000000  0.4445430000000 1.0
C      1  0.4350340000000  0.5321830000000  0.4942660000000 1.0
C      1  0.5681480000000  0.5589960000000  0.5618130000000 1.0
C      1  0.5915520000000  0.5732800000000  0.5095350000000 1.0
C      1  0.5588130000000  0.4805920000000  0.5127220000000 1.0
C      1  0.4220520000000  0.4345180000000  0.5626800000000 1.0
C      1  0.3997450000000  0.5586290000000  0.4149290000000 1.0
C      1  0.5552670000000  0.4046020000000  0.4546330000000 1.0
C      1  0.4984970000000  0.4810000000000  0.4976170000000 1.0
C      1  0.4409790000000  0.6207590000000  0.4609290000000 1.0
C      1  0.4457500000000  0.5754900000000  0.4754110000000 1.0
C      1  0.3968640000000  0.4658800000000  0.4595760000000 1.0
C      1  0.4409530000000  0.5277190000000  0.4241840000000 1.0
C      1  0.5677660000000  0.4965460000000  0.5772590000000 1.0
C      1  0.5678650000000  0.5537330000000  0.4751660000000 1.0
C      1  0.3961220000000  0.6126290000000  0.5359990000000 1.0
C      1  0.4346480000000  0.4189870000000  0.4226540000000 1.0
C      1  0.4867670000000  0.4779950000000  0.5479590000000 1.0
C      1  0.5119630000000  0.5937500000000  0.4783100000000 1.0
C      1  0.5798940000000  0.4631930000000  0.4675860000000 1.0
C      1  0.4107300000000  0.4823490000000  0.5566100000000 1.0
C      1  0.4928090000000  0.5021350000000  0.4026960000000 1.0
C      1  0.5341080000000  0.5900040000000  0.4604210000000 1.0
C      1  0.5853550000000  0.4757120000000  0.4432480000000 1.0
C      1  0.4594400000000  0.4975360000000  0.6118820000000 1.0
C      1  0.4687720000000  0.4997050000000  0.5467880000000 1.0
C      1  0.4819540000000  0.5549930000000  0.4146420000000 1.0
C      1  0.5206080000000  0.4668430000000  0.4171740000000 1.0
C      1  0.5034240000000  0.5474140000000  0.3996600000000 1.0
C      1  0.5195960000000  0.3967980000000  0.4848440000000 1.0
C      1  0.5059300000000  0.5211170000000  0.6117450000000 1.0
C      1  0.4264790000000  0.4929870000000  0.5774090000000 1.0
C      1  0.4574790000000  0.5321730000000  0.4759210000000 1.0
C      1  0.5208730000000  0.5440420000000  0.5647260000000 1.0
C      1  0.5454020000000  0.5486220000000  0.5482370000000 1.0
C      1  0.4108070000000  0.4687550000000  0.5313820000000 1.0
C      1  0.5183530000000  0.4450780000000  0.4356840000000 1.0
C      1  0.5336140000000  0.6088030000000  0.5401240000000 1.0
C      1  0.3808780000000  0.5692330000000  0.5497930000000 1.0
C      1  0.4298860000000  0.5075700000000  0.5083330000000 1.0
C      1  0.5507060000000  0.5364830000000  0.5197760000000 1.0
C      1  0.4600970000000  0.5480820000000  0.4313950000000 1.0
C      1  0.5211320000000  0.5411200000000  0.4814750000000 1.0
C      1  0.4974380000000  0.5377400000000  0.5496940000000 1.0
C      1  0.5932700000000  0.5522810000000  0.4890570000000 1.0
C      1  0.5269570000000  0.4470040000000  0.5729300000000 1.0
C      1  0.4290100000000  0.5612370000000  0.4952930000000 1.0
C      1  0.4799330000000  0.4896340000000  0.4769950000000 1.0
C      1  0.4484940000000  0.4327130000000  0.5729980000000 1.0
C      1  0.4570250000000  0.5550590000000  0.4584700000000 1.0
C      1  0.5053750000000  0.4907390000000  0.4254790000000 1.0
C      1  0.4875080000000  0.4526370000000  0.5339130000000 1.0
C      1  0.4231060000000  0.4818340000000  0.4231870000000 1.0
C      1  0.4460640000000  0.4794980000000  0.5941130000000 1.0
C      1  0.5402710000000  0.5001970000000  0.4544600000000 1.0
C      1  0.5348590000000  0.4656920000000  0.5526900000000 1.0
C      1  0.5480780000000  0.5409330000000  0.4907610000000 1.0
C      1  0.5390550000000  0.4789300000000  0.3981520000000 1.0
C      1  0.5412880000000  0.4137180000000  0.5008840000000 1.0
C      1  0.4338500000000  0.4235930000000  0.4894950000000 1.0
C      1  0.5142960000000  0.4855740000000  0.5461430000000 1.0
C      1  0.4083020000000  0.4609460000000  0.4344180000000 1.0
C      1  0.6097270000000  0.5038630000000  0.4715680000000 1.0
C      1  0.4109400000000  0.4855110000000  0.5074210000000 1.0
C      1  0.6054780000000  0.4632870000000  0.5342730000000 1.0
C      1  0.5039600000000  0.5312370000000  0.5229750000000 1.0
C      1  0.5078750000000  0.5531290000000  0.5045480000000 1.0
C      1  0.4826860000000  0.4114510000000  0.4340830000000 1.0
C      1  0.4296290000000  0.5213420000000  0.5771120000000 1.0
C      1  0.5176220000000  0.5029220000000  0.5214080000000 1.0
C      1  0.4658210000000  0.4955720000000  0.4016440000000 1.0
C      1  0.5663780000000  0.5879310000000  0.5111720000000 1.0
C      1  0.5605570000000  0.4729420000000  0.4859830000000 1.0
C      1  0.4631830000000  0.4831320000000  0.4538120000000 1.0
C      1  0.5842560000000  0.5194070000000  0.4256740000000 1.0
END
