TITL C-247197-3123-72 -1.45133314326208e-07 125000 -741.845800868015 0 0 121 (C1) n - 1
REM
REM in /home/nfs/bkarasulu/CARBON/AIRSS/Generating-Clusters/LCBOP/Only-C1/SD-CG/FIRE-HFTN
REM
REM
REM
REM
REM
REM ./C.cell (11c1c37f851c82e70ff6c80c92926a4b)
REM AIRSS Version 0.9.1 bugfix July 2018 build 013d7b7c2542+ Fri, 06 Jul 2018 19:26:36 +0100
REM compiler GCC version 9.2.1 20190827 (Red Hat 9.2.1-1)
REM options -cpp -mtune=generic -march=x86-64 -g -O0 -fpre-include=/usr/include/finclude/math-vector-fortran.h
REM seed 786645776 -918960094 127945982 1304058627 1421379664 -1557041389 -1509929223 6995836 780777497 187457779 -38567981 -516649459 254793699 1816046255 -553806826 554971951 -66227964 992575506 1737816502 771411230 578128856 2072470902 1268578566 1500627866 1808120943 1985220024 -2022255683 -579836075 1411147140 -1646333368 1943030249 -763084929 61668706
REM
CELL 1.54180   50.00000   50.00000   50.00000   90.00000   90.00000   90.00000
LATT -1
SFAC C  
C      1  0.4642310000000  0.5812610000000  0.5286530000000 1.0
C      1  0.6177960000000  0.5012740000000  0.5091700000000 1.0
C      1  0.4751880000000  0.4336480000000  0.5769540000000 1.0
C      1  0.5995480000000  0.5555030000000  0.4630400000000 1.0
C      1  0.5742120000000  0.5673980000000  0.4651000000000 1.0
C      1  0.4554260000000  0.4490900000000  0.5284200000000 1.0
C      1  0.6166930000000  0.5590560000000  0.5519660000000 1.0
C      1  0.5352240000000  0.5205580000000  0.5485560000000 1.0
C      1  0.6100500000000  0.5833250000000  0.5430000000000 1.0
C      1  0.5493740000000  0.4986050000000  0.5117160000000 1.0
C      1  0.5070420000000  0.5468270000000  0.4731250000000 1.0
C      1  0.4292610000000  0.5294060000000  0.5552850000000 1.0
C      1  0.5604580000000  0.4766190000000  0.5871560000000 1.0
C      1  0.5801660000000  0.4654410000000  0.5127460000000 1.0
C      1  0.5227760000000  0.5246950000000  0.6332800000000 1.0
C      1  0.4981500000000  0.4429170000000  0.3964090000000 1.0
C      1  0.4712740000000  0.5423040000000  0.4407850000000 1.0
C      1  0.4230150000000  0.5452320000000  0.4329030000000 1.0
C      1  0.4474600000000  0.4835530000000  0.4104280000000 1.0
C      1  0.5144860000000  0.5552710000000  0.5723860000000 1.0
C      1  0.5320020000000  0.5554150000000  0.4001310000000 1.0
C      1  0.5656720000000  0.4562970000000  0.5677510000000 1.0
C      1  0.5443240000000  0.4821340000000  0.4694500000000 1.0
C      1  0.5186890000000  0.4727010000000  0.5417070000000 1.0
C      1  0.4998910000000  0.4152510000000  0.4374390000000 1.0
C      1  0.4585940000000  0.5339330000000  0.5473120000000 1.0
C      1  0.5389640000000  0.4269110000000  0.5429450000000 1.0
C      1  0.5183740000000  0.4762620000000  0.4561920000000 1.0
C      1  0.4829370000000  0.5580490000000  0.4623660000000 1.0
C      1  0.4555530000000  0.4960690000000  0.4347000000000 1.0
C      1  0.5019320000000  0.4478660000000  0.6168590000000 1.0
C      1  0.4578700000000  0.4304300000000  0.4420970000000 1.0
C      1  0.4730430000000  0.5149880000000  0.3847240000000 1.0
C      1  0.4913420000000  0.4692570000000  0.3880240000000 1.0
C      1  0.4777950000000  0.4879210000000  0.5302040000000 1.0
C      1  0.4820270000000  0.4951180000000  0.4786670000000 1.0
C      1  0.5770770000000  0.4608630000000  0.5414150000000 1.0
C      1  0.5454740000000  0.5495020000000  0.5001730000000 1.0
C      1  0.5355450000000  0.3661650000000  0.5056510000000 1.0
C      1  0.4401940000000  0.4938180000000  0.4590040000000 1.0
C      1  0.4791590000000  0.4462330000000  0.6022520000000 1.0
C      1  0.4348940000000  0.5837050000000  0.5303410000000 1.0
C      1  0.4715890000000  0.4501210000000  0.5542430000000 1.0
C      1  0.4984520000000  0.4559850000000  0.4640890000000 1.0
C      1  0.4106370000000  0.5118720000000  0.5464920000000 1.0
C      1  0.4820230000000  0.5904900000000  0.5536080000000 1.0
C      1  0.5631130000000  0.5699690000000  0.4914000000000 1.0
C      1  0.4728780000000  0.4656350000000  0.5114980000000 1.0
C      1  0.5361030000000  0.5410450000000  0.5883200000000 1.0
C      1  0.4198260000000  0.4772500000000  0.4093480000000 1.0
C      1  0.4481480000000  0.4117410000000  0.4852900000000 1.0
C      1  0.4912080000000  0.4733060000000  0.5510110000000 1.0
C      1  0.4885220000000  0.4086120000000  0.5746130000000 1.0
C      1  0.3907060000000  0.5087970000000  0.4315820000000 1.0
C      1  0.5544660000000  0.5299270000000  0.5676590000000 1.0
C      1  0.5140280000000  0.4027830000000  0.5819890000000 1.0
C      1  0.5443660000000  0.5126460000000  0.4695840000000 1.0
C      1  0.5142420000000  0.3771270000000  0.4953970000000 1.0
C      1  0.4207110000000  0.4497000000000  0.4643880000000 1.0
C      1  0.4494510000000  0.5460200000000  0.4219090000000 1.0
C      1  0.4565770000000  0.5358370000000  0.3956960000000 1.0
C      1  0.4885870000000  0.5682060000000  0.5724470000000 1.0
C      1  0.4941170000000  0.6139850000000  0.5140170000000 1.0
C      1  0.5479420000000  0.4955710000000  0.6019760000000 1.0
C      1  0.6054810000000  0.4761520000000  0.5057360000000 1.0
C      1  0.3990280000000  0.5276860000000  0.4740780000000 1.0
C      1  0.4168340000000  0.4773590000000  0.4572340000000 1.0
C      1  0.5076340000000  0.4189930000000  0.4099350000000 1.0
C      1  0.5500500000000  0.4319170000000  0.5687700000000 1.0
C      1  0.4613870000000  0.5099100000000  0.5297580000000 1.0
C      1  0.6240110000000  0.5170260000000  0.4868680000000 1.0
C      1  0.5018330000000  0.5161070000000  0.3803800000000 1.0
C      1  0.5523060000000  0.5223150000000  0.4958720000000 1.0
C      1  0.4734480000000  0.5529160000000  0.5276030000000 1.0
C      1  0.3983290000000  0.5504050000000  0.5152960000000 1.0
C      1  0.5819600000000  0.5288700000000  0.5650250000000 1.0
C      1  0.5162030000000  0.5413100000000  0.5461860000000 1.0
C      1  0.5264950000000  0.4373510000000  0.6122410000000 1.0
C      1  0.5342010000000  0.4963820000000  0.5351260000000 1.0
C      1  0.5233590000000  0.4007820000000  0.3969450000000 1.0
C      1  0.5733690000000  0.5892040000000  0.5088640000000 1.0
C      1  0.5168340000000  0.5528110000000  0.4992720000000 1.0
C      1  0.4316820000000  0.4386950000000  0.4403400000000 1.0
C      1  0.3987110000000  0.5249350000000  0.5021750000000 1.0
C      1  0.5342980000000  0.4214440000000  0.5900580000000 1.0
C      1  0.6064980000000  0.5328810000000  0.5520320000000 1.0
C      1  0.4022980000000  0.5304370000000  0.4460400000000 1.0
C      1  0.5920730000000  0.5948440000000  0.5269850000000 1.0
C      1  0.4737120000000  0.5806640000000  0.4776860000000 1.0
C      1  0.4550230000000  0.5036610000000  0.4804790000000 1.0
C      1  0.5590710000000  0.5722220000000  0.4420760000000 1.0
C      1  0.5113960000000  0.4888590000000  0.3799780000000 1.0
C      1  0.4872990000000  0.3961360000000  0.4570510000000 1.0
C      1  0.6169220000000  0.5136810000000  0.5344380000000 1.0
C      1  0.5352530000000  0.5206190000000  0.6087790000000 1.0
C      1  0.5261440000000  0.4474220000000  0.5309860000000 1.0
C      1  0.4586660000000  0.4064380000000  0.4579990000000 1.0
C      1  0.5575960000000  0.4752030000000  0.4962160000000 1.0
C      1  0.4853240000000  0.4398760000000  0.4451390000000 1.0
C      1  0.4756490000000  0.5944330000000  0.5028310000000 1.0
C      1  0.4785480000000  0.5134960000000  0.4375100000000 1.0
C      1  0.4974360000000  0.6119930000000  0.5415200000000 1.0
C      1  0.4668890000000  0.4862180000000  0.3902980000000 1.0
C      1  0.4299520000000  0.4355530000000  0.4887620000000 1.0
C      1  0.4690060000000  0.3989550000000  0.5010500000000 1.0
C      1  0.4296930000000  0.4504440000000  0.5140150000000 1.0
C      1  0.5103420000000  0.5283720000000  0.6558850000000 1.0
C      1  0.5177770000000  0.5382450000000  0.3856340000000 1.0
C      1  0.4046390000000  0.5020320000000  0.5201540000000 1.0
C      1  0.6170340000000  0.5370000000000  0.4707370000000 1.0
C      1  0.4684620000000  0.5471980000000  0.5731570000000 1.0
C      1  0.5454300000000  0.5672640000000  0.4197930000000 1.0
C      1  0.4999570000000  0.5023390000000  0.4550820000000 1.0
C      1  0.4117430000000  0.5717890000000  0.5241390000000 1.0
C      1  0.4484350000000  0.5142290000000  0.5048880000000 1.0
C      1  0.4125920000000  0.4742790000000  0.5158590000000 1.0
C      1  0.4848290000000  0.4674940000000  0.4866330000000 1.0
C      1  0.4917770000000  0.3896610000000  0.4851610000000 1.0
C      1  0.5193790000000  0.5238930000000  0.4612110000000 1.0
C      1  0.4031350000000  0.4833970000000  0.4319110000000 1.0
C      1  0.5016950000000  0.5487040000000  0.5230820000000 1.0
END
