TITL C-247199-3331-521 -2.06963781447629e-07 125000 -40.6967309406211 0 0 8 (Cs) n - 1
REM
REM in /home/nfs/bkarasulu/CARBON/AIRSS/Generating-Clusters/LCBOP/Only-C1/SD-CG/FIRE-HFTN
REM
REM
REM
REM
REM
REM ./C.cell (11c1c37f851c82e70ff6c80c92926a4b)
REM AIRSS Version 0.9.1 bugfix July 2018 build 013d7b7c2542+ Fri, 06 Jul 2018 19:26:36 +0100
REM compiler GCC version 9.2.1 20190827 (Red Hat 9.2.1-1)
REM options -cpp -mtune=generic -march=x86-64 -g -O0 -fpre-include=/usr/include/finclude/math-vector-fortran.h
REM seed -1440992121 852247483 -183609625 1408214249 1832642637 -582350939 -1140816238 1365152060 364997943 -1912709947 -169111396 -949050793 1517127164 -200935940 -1162587367 -314251491 1272303739 -1250281671 -2114965512 1352728442 -1595561356 -1469094964 566533934 1036274542 259739490 -1098320251 299237070 1145411039 1261016509 927734245 -88649123 -2044171173 -1595879543
REM
CELL 1.54180   50.00000   50.00000   50.00000   90.00000   90.00000   90.00000
LATT -1
SFAC C  
C      1  0.4875060000000  0.5286060000000  0.4770340000000 1.0
C      1  0.4949230000000  0.4841950000000  0.4735880000000 1.0
C      1  0.5008250000000  0.5359650000000  0.5250870000000 1.0
C      1  0.4971090000000  0.5203430000000  0.5032330000000 1.0
C      1  0.5112440000000  0.4742680000000  0.5206740000000 1.0
C      1  0.4864160000000  0.5067920000000  0.4598960000000 1.0
C      1  0.5019570000000  0.4912250000000  0.5009250000000 1.0
C      1  0.5200200000000  0.4586060000000  0.5395640000000 1.0
END
