TITL C-247195-3186-396 18455.6227252115 125000 -446.768216122583 0 0 76 (C1) n - 1
REM
REM in /home/nfs/bkarasulu/CARBON/AIRSS/Generating-Clusters/LCBOP/Only-C1/SD-CG/FIRE-HFTN
REM
REM
REM
REM
REM
REM ./C.cell (11c1c37f851c82e70ff6c80c92926a4b)
REM AIRSS Version 0.9.1 bugfix July 2018 build 013d7b7c2542+ Fri, 06 Jul 2018 19:26:36 +0100
REM compiler GCC version 9.2.1 20190827 (Red Hat 9.2.1-1)
REM options -cpp -mtune=generic -march=x86-64 -g -O0 -fpre-include=/usr/include/finclude/math-vector-fortran.h
REM seed 675531863 1652709336 -1489849213 1415917385 -119210164 447241819 -1824440664 1678752105 -1149182458 93533559 -1638355142 391114050 932050663 -491384216 1359594910 -627467519 -1427268726 1012820825 292926656 337487816 -1967749667 58725654 2076174997 -2067661179 -1780184186 1738250414 -653865959 -1405713420 -398848911 1679123725 2026857320 343791041 61107489
REM
CELL 1.54180   50.00000   50.00000   50.00000   90.00000   90.00000   90.00000
LATT -1
SFAC C  
C      1  0.5092760000000  0.4929720000000  0.4255210000000 1.0
C      1  0.4613880000000  0.5889980000000  0.5100100000000 1.0
C      1  0.5303140000000  0.5581850000000  0.4565320000000 1.0
C      1  0.4672900000000  0.5129950000000  0.4312110000000 1.0
C      1  0.5495360000000  0.5226480000000  0.4245190000000 1.0
C      1  0.4595090000000  0.4703280000000  0.5298850000000 1.0
C      1  0.5240820000000  0.5132420000000  0.4775750000000 1.0
C      1  0.4454610000000  0.5107610000000  0.5612060000000 1.0
C      1  0.4630640000000  0.4526540000000  0.4527130000000 1.0
C      1  0.5679920000000  0.5216890000000  0.4699760000000 1.0
C      1  0.5477010000000  0.3725220000000  0.5863110000000 1.0
C      1  0.4865130000000  0.5800870000000  0.5212760000000 1.0
C      1  0.5498900000000  0.4407450000000  0.4943210000000 1.0
C      1  0.5617310000000  0.5798950000000  0.5161190000000 1.0
C      1  0.5266240000000  0.5304460000000  0.5225690000000 1.0
C      1  0.4571170000000  0.5521860000000  0.4733470000000 1.0
C      1  0.4939190000000  0.4900120000000  0.5916790000000 1.0
C      1  0.4766620000000  0.4283940000000  0.4736980000000 1.0
C      1  0.4760650000000  0.5917060000000  0.4156480000000 1.0
C      1  0.4395630000000  0.4686090000000  0.4626840000000 1.0
C      1  0.5356430000000  0.5011450000000  0.4149380000000 1.0
C      1  0.5124640000000  0.5797120000000  0.5058680000000 1.0
C      1  0.5117040000000  0.4673900000000  0.5308960000000 1.0
C      1  0.5211580000000  0.5609360000000  0.4845620000000 1.0
C      1  0.4554170000000  0.5608100000000  0.5557490000000 1.0
C      1  0.5694570000000  0.4259920000000  0.5084970000000 1.0
C      1  0.5290970000000  0.3867440000000  0.5738920000000 1.0
C      1  0.4353360000000  0.5830380000000  0.5044720000000 1.0
C      1  0.5849040000000  0.4108830000000  0.5238250000000 1.0
C      1  0.4756190000000  0.4184100000000  0.5011080000000 1.0
C      1  0.4628020000000  0.5562400000000  0.4453640000000 1.0
C      1  0.4184430000000  0.5649280000000  0.4924440000000 1.0
C      1  0.4855410000000  0.5044850000000  0.4112570000000 1.0
C      1  0.5003200000000  0.4242730000000  0.5469290000000 1.0
C      1  0.5010590000000  0.4767870000000  0.4827530000000 1.0
C      1  0.4796280000000  0.5083420000000  0.4572800000000 1.0
C      1  0.5677620000000  0.4917230000000  0.4734260000000 1.0
C      1  0.5604130000000  0.4655520000000  0.4806820000000 1.0
C      1  0.5007790000000  0.5154300000000  0.5972640000000 1.0
C      1  0.4830630000000  0.5107880000000  0.5320060000000 1.0
C      1  0.5071040000000  0.4589110000000  0.4614580000000 1.0
C      1  0.5054560000000  0.5265860000000  0.5402440000000 1.0
C      1  0.4822680000000  0.5667250000000  0.5474750000000 1.0
C      1  0.5669440000000  0.3597310000000  0.5983820000000 1.0
C      1  0.4657710000000  0.4918340000000  0.5502130000000 1.0
C      1  0.5513700000000  0.5365640000000  0.4496840000000 1.0
C      1  0.4278000000000  0.4945790000000  0.4552610000000 1.0
C      1  0.5089380000000  0.5095730000000  0.4525530000000 1.0
C      1  0.4895570000000  0.4465420000000  0.5638620000000 1.0
C      1  0.5256680000000  0.5351030000000  0.4950740000000 1.0
C      1  0.5010130000000  0.4215270000000  0.5171800000000 1.0
C      1  0.4425700000000  0.5376760000000  0.5614960000000 1.0
C      1  0.4909700000000  0.4637790000000  0.4396100000000 1.0
C      1  0.5128570000000  0.4033770000000  0.5611920000000 1.0
C      1  0.4824640000000  0.4746360000000  0.5708480000000 1.0
C      1  0.4860300000000  0.4619240000000  0.5234380000000 1.0
C      1  0.4375250000000  0.4636860000000  0.5144170000000 1.0
C      1  0.4706530000000  0.5403330000000  0.4947720000000 1.0
C      1  0.5769080000000  0.5603810000000  0.5054320000000 1.0
C      1  0.5796840000000  0.5386640000000  0.4897720000000 1.0
C      1  0.4480050000000  0.5333410000000  0.4337550000000 1.0
C      1  0.5309320000000  0.4813300000000  0.5185380000000 1.0
C      1  0.4279750000000  0.5449860000000  0.4742240000000 1.0
C      1  0.5365370000000  0.5897980000000  0.5179590000000 1.0
C      1  0.5104690000000  0.5665090000000  0.4379660000000 1.0
C      1  0.4830330000000  0.5715770000000  0.4328660000000 1.0
C      1  0.5992710000000  0.3955390000000  0.5392440000000 1.0
C      1  0.4785560000000  0.4955210000000  0.4830910000000 1.0
C      1  0.5003770000000  0.5475150000000  0.5586150000000 1.0
C      1  0.5243110000000  0.4894060000000  0.4928200000000 1.0
C      1  0.5222620000000  0.4290950000000  0.4956940000000 1.0
C      1  0.4748950000000  0.5141610000000  0.5044940000000 1.0
C      1  0.4270780000000  0.5237840000000  0.4530490000000 1.0
C      1  0.5030360000000  0.5396660000000  0.5855800000000 1.0
C      1  0.5064770000000  0.4324180000000  0.4710510000000 1.0
C      1  0.4309270000000  0.4605420000000  0.4886800000000 1.0
END
