TITL C-247197-3123-419 -139.881416231865 125000 -1072.42408829671 0 0 177 (C1) n - 1
REM
REM in /home/nfs/bkarasulu/CARBON/AIRSS/Generating-Clusters/LCBOP/Only-C1/SD-CG/FIRE-HFTN
REM
REM
REM
REM
REM
REM ./C.cell (11c1c37f851c82e70ff6c80c92926a4b)
REM AIRSS Version 0.9.1 bugfix July 2018 build 013d7b7c2542+ Fri, 06 Jul 2018 19:26:36 +0100
REM compiler GCC version 9.2.1 20190827 (Red Hat 9.2.1-1)
REM options -cpp -mtune=generic -march=x86-64 -g -O0 -fpre-include=/usr/include/finclude/math-vector-fortran.h
REM seed 1992531333 1751778938 338847732 -216638019 224776259 -1821694744 1142768018 1078547375 1370131349 -1080018727 1474435789 -1474968699 525030163 621596533 -907919217 -928754073 1182532594 1973391806 -352109863 714248075 -1025413039 1186601919 942419741 -406206180 2143523523 -1997264879 1275385056 -1323225005 -1665679784 1405398271 -945554079 2076132325 1800592241
REM
CELL 1.54180   50.00000   50.00000   50.00000   90.00000   90.00000   90.00000
LATT -1
SFAC C  
C      1  0.3953140000000  0.4692220000000  0.5082440000000 1.0
C      1  0.5659470000000  0.4461730000000  0.4161160000000 1.0
C      1  0.4991380000000  0.4443350000000  0.3944630000000 1.0
C      1  0.4950580000000  0.5106990000000  0.3831990000000 1.0
C      1  0.5009180000000  0.4249580000000  0.5539350000000 1.0
C      1  0.4290550000000  0.5038700000000  0.4668440000000 1.0
C      1  0.4938110000000  0.6130320000000  0.3689540000000 1.0
C      1  0.4416420000000  0.6024380000000  0.5283020000000 1.0
C      1  0.4700470000000  0.4656000000000  0.5476640000000 1.0
C      1  0.4166360000000  0.4770730000000  0.4629950000000 1.0
C      1  0.5106110000000  0.5523960000000  0.4060650000000 1.0
C      1  0.4667890000000  0.4903850000000  0.5109960000000 1.0
C      1  0.4137340000000  0.5202670000000  0.5946430000000 1.0
C      1  0.5204580000000  0.4366700000000  0.4995460000000 1.0
C      1  0.4041080000000  0.5885950000000  0.3860710000000 1.0
C      1  0.4765240000000  0.4285260000000  0.3973460000000 1.0
C      1  0.5688250000000  0.5052330000000  0.4019050000000 1.0
C      1  0.5406290000000  0.4728200000000  0.5251680000000 1.0
C      1  0.6069060000000  0.5060290000000  0.4338500000000 1.0
C      1  0.5500630000000  0.3980240000000  0.4919610000000 1.0
C      1  0.4720820000000  0.4058870000000  0.4999270000000 1.0
C      1  0.4105810000000  0.4203760000000  0.4789070000000 1.0
C      1  0.5368760000000  0.4895870000000  0.4762410000000 1.0
C      1  0.5270070000000  0.6589150000000  0.6289510000000 1.0
C      1  0.4863840000000  0.4340730000000  0.4435850000000 1.0
C      1  0.6251070000000  0.5003080000000  0.5065810000000 1.0
C      1  0.4373940000000  0.4161870000000  0.4326550000000 1.0
C      1  0.4982690000000  0.3967780000000  0.5103900000000 1.0
C      1  0.4538630000000  0.4195340000000  0.4105950000000 1.0
C      1  0.4512210000000  0.5132820000000  0.5143930000000 1.0
C      1  0.4107850000000  0.4964060000000  0.4160170000000 1.0
C      1  0.5056380000000  0.5816840000000  0.4606150000000 1.0
C      1  0.4688050000000  0.4567740000000  0.4365120000000 1.0
C      1  0.5169730000000  0.5131600000000  0.6174870000000 1.0
C      1  0.3916820000000  0.3989400000000  0.4799500000000 1.0
C      1  0.5387890000000  0.4428640000000  0.4535420000000 1.0
C      1  0.5843930000000  0.5552570000000  0.5468810000000 1.0
C      1  0.4917420000000  0.6018600000000  0.5832860000000 1.0
C      1  0.4009940000000  0.4448140000000  0.4950010000000 1.0
C      1  0.4099650000000  0.5691680000000  0.4961270000000 1.0
C      1  0.6050920000000  0.4557140000000  0.5096460000000 1.0
C      1  0.5393190000000  0.5548470000000  0.5223740000000 1.0
C      1  0.5292260000000  0.5109680000000  0.4247840000000 1.0
C      1  0.4912930000000  0.4783130000000  0.4982940000000 1.0
C      1  0.4953700000000  0.4496790000000  0.5091780000000 1.0
C      1  0.4108800000000  0.4976850000000  0.5773590000000 1.0
C      1  0.4466640000000  0.5447130000000  0.4467340000000 1.0
C      1  0.5177510000000  0.5298890000000  0.3864020000000 1.0
C      1  0.5660730000000  0.4327670000000  0.5136600000000 1.0
C      1  0.3615200000000  0.5323390000000  0.5216950000000 1.0
C      1  0.5052920000000  0.5309900000000  0.4888600000000 1.0
C      1  0.5245810000000  0.5589160000000  0.4535460000000 1.0
C      1  0.6191980000000  0.5140900000000  0.4576300000000 1.0
C      1  0.4447890000000  0.5910950000000  0.4651750000000 1.0
C      1  0.5149420000000  0.5444090000000  0.5123000000000 1.0
C      1  0.6134000000000  0.4805350000000  0.5235980000000 1.0
C      1  0.5049920000000  0.4444580000000  0.6015920000000 1.0
C      1  0.5066050000000  0.4885920000000  0.4728130000000 1.0
C      1  0.4799510000000  0.5710290000000  0.5013880000000 1.0
C      1  0.5516510000000  0.5071840000000  0.4918360000000 1.0
C      1  0.3936700000000  0.4954640000000  0.5230680000000 1.0
C      1  0.5752670000000  0.4167430000000  0.5663530000000 1.0
C      1  0.4872680000000  0.5106160000000  0.5557920000000 1.0
C      1  0.4974640000000  0.4529370000000  0.5410940000000 1.0
C      1  0.5331300000000  0.5211920000000  0.5632780000000 1.0
C      1  0.5628740000000  0.4926480000000  0.5995690000000 1.0
C      1  0.4143380000000  0.4242880000000  0.5872730000000 1.0
C      1  0.5143970000000  0.5024490000000  0.5542360000000 1.0
C      1  0.4555740000000  0.4844600000000  0.5889400000000 1.0
C      1  0.3985470000000  0.4952820000000  0.5517270000000 1.0
C      1  0.4698960000000  0.4337640000000  0.5042370000000 1.0
C      1  0.6537800000000  0.4419240000000  0.4368580000000 1.0
C      1  0.5711110000000  0.5078450000000  0.5354720000000 1.0
C      1  0.4927610000000  0.6122820000000  0.5097750000000 1.0
C      1  0.5388190000000  0.6772210000000  0.6432700000000 1.0
C      1  0.4612820000000  0.4031640000000  0.4727620000000 1.0
C      1  0.4658660000000  0.4857620000000  0.6141500000000 1.0
C      1  0.5874570000000  0.4648860000000  0.5650740000000 1.0
C      1  0.4798610000000  0.5376970000000  0.5453880000000 1.0
C      1  0.4695960000000  0.4731310000000  0.4121690000000 1.0
C      1  0.6153290000000  0.5405890000000  0.4675120000000 1.0
C      1  0.4408560000000  0.5858860000000  0.4168650000000 1.0
C      1  0.4062790000000  0.4784790000000  0.4361960000000 1.0
C      1  0.4200020000000  0.4501610000000  0.5878070000000 1.0
C      1  0.4500830000000  0.6231200000000  0.5693660000000 1.0
C      1  0.5474400000000  0.4558730000000  0.3967920000000 1.0
C      1  0.4544630000000  0.5173830000000  0.4084450000000 1.0
C      1  0.3860290000000  0.5227030000000  0.5131100000000 1.0
C      1  0.5091680000000  0.3971020000000  0.4626170000000 1.0
C      1  0.5858650000000  0.4629280000000  0.4284230000000 1.0
C      1  0.5034700000000  0.6217120000000  0.5994570000000 1.0
C      1  0.5886090000000  0.4387560000000  0.5546240000000 1.0
C      1  0.4307790000000  0.6183310000000  0.5503830000000 1.0
C      1  0.4528740000000  0.4686000000000  0.5245050000000 1.0
C      1  0.4323860000000  0.5351100000000  0.6080170000000 1.0
C      1  0.6228760000000  0.5280070000000  0.5126000000000 1.0
C      1  0.4094920000000  0.3987170000000  0.5857880000000 1.0
C      1  0.4586540000000  0.4983330000000  0.4646550000000 1.0
C      1  0.5366610000000  0.4645970000000  0.5732060000000 1.0
C      1  0.5678580000000  0.5561510000000  0.5239900000000 1.0
C      1  0.5215700000000  0.4730310000000  0.5482800000000 1.0
C      1  0.6280260000000  0.4961200000000  0.4782260000000 1.0
C      1  0.5199780000000  0.4066920000000  0.4893880000000 1.0
C      1  0.4535900000000  0.5518820000000  0.5988910000000 1.0
C      1  0.5423280000000  0.5170820000000  0.3992620000000 1.0
C      1  0.5236580000000  0.5661570000000  0.5836720000000 1.0
C      1  0.5276860000000  0.3875230000000  0.4435530000000 1.0
C      1  0.5068040000000  0.4743760000000  0.4469590000000 1.0
C      1  0.4756820000000  0.6113160000000  0.5616750000000 1.0
C      1  0.4379330000000  0.4601220000000  0.4756950000000 1.0
C      1  0.5636430000000  0.4717720000000  0.5786450000000 1.0
C      1  0.5537540000000  0.4281870000000  0.4343640000000 1.0
C      1  0.5342940000000  0.4915020000000  0.6102130000000 1.0
C      1  0.5863720000000  0.5082020000000  0.5949780000000 1.0
C      1  0.5479310000000  0.4009280000000  0.4317650000000 1.0
C      1  0.4895360000000  0.5277430000000  0.4427000000000 1.0
C      1  0.4984580000000  0.5911040000000  0.4901050000000 1.0
C      1  0.4726510000000  0.4982900000000  0.3978980000000 1.0
C      1  0.4259520000000  0.5184860000000  0.4058800000000 1.0
C      1  0.5174490000000  0.4846050000000  0.4230900000000 1.0
C      1  0.4381300000000  0.5240700000000  0.5369220000000 1.0
C      1  0.4507080000000  0.5482730000000  0.4738060000000 1.0
C      1  0.4648330000000  0.5321260000000  0.4300650000000 1.0
C      1  0.4976580000000  0.5746860000000  0.5907710000000 1.0
C      1  0.4205310000000  0.5730570000000  0.4016250000000 1.0
C      1  0.6036940000000  0.4863350000000  0.5528120000000 1.0
C      1  0.4469160000000  0.4506300000000  0.5025610000000 1.0
C      1  0.5368880000000  0.5449980000000  0.5745480000000 1.0
C      1  0.4241040000000  0.5822960000000  0.5179530000000 1.0
C      1  0.4965370000000  0.5964300000000  0.3888530000000 1.0
C      1  0.5497600000000  0.4658430000000  0.4665770000000 1.0
C      1  0.4819670000000  0.5539390000000  0.6046840000000 1.0
C      1  0.5150920000000  0.6403080000000  0.6143100000000 1.0
C      1  0.3747480000000  0.3791510000000  0.4807380000000 1.0
C      1  0.4164200000000  0.5448940000000  0.4017480000000 1.0
C      1  0.4164880000000  0.5855440000000  0.4719760000000 1.0
C      1  0.6019520000000  0.4507590000000  0.4507180000000 1.0
C      1  0.5708860000000  0.4190450000000  0.4892980000000 1.0
C      1  0.4523900000000  0.5434980000000  0.5511990000000 1.0
C      1  0.4906070000000  0.5138500000000  0.4683350000000 1.0
C      1  0.5111990000000  0.4464560000000  0.4490340000000 1.0
C      1  0.5220130000000  0.4666840000000  0.5984380000000 1.0
C      1  0.4902460000000  0.5539670000000  0.5236130000000 1.0
C      1  0.4114110000000  0.5248380000000  0.4731380000000 1.0
C      1  0.4512240000000  0.5299770000000  0.4933470000000 1.0
C      1  0.5872350000000  0.4910770000000  0.4200450000000 1.0
C      1  0.5547510000000  0.4962310000000  0.5177300000000 1.0
C      1  0.6076820000000  0.5443090000000  0.4947540000000 1.0
C      1  0.4578080000000  0.5918760000000  0.4391050000000 1.0
C      1  0.4586180000000  0.5730630000000  0.4830530000000 1.0
C      1  0.6288750000000  0.4455940000000  0.4435890000000 1.0
C      1  0.4704710000000  0.4885420000000  0.5652710000000 1.0
C      1  0.5801600000000  0.5465680000000  0.5001710000000 1.0
C      1  0.5614160000000  0.5329850000000  0.4834390000000 1.0
C      1  0.6013020000000  0.5111870000000  0.5699050000000 1.0
C      1  0.4838460000000  0.4082370000000  0.4550400000000 1.0
C      1  0.5499340000000  0.3826400000000  0.5168350000000 1.0
C      1  0.4871170000000  0.5866670000000  0.4369100000000 1.0
C      1  0.5202680000000  0.4636770000000  0.4017640000000 1.0
C      1  0.4012440000000  0.5401540000000  0.4949740000000 1.0
C      1  0.5429660000000  0.4476910000000  0.5129370000000 1.0
C      1  0.4284250000000  0.4764930000000  0.5849900000000 1.0
C      1  0.5095920000000  0.4019510000000  0.5376910000000 1.0
C      1  0.4976140000000  0.5322240000000  0.6156780000000 1.0
C      1  0.5949230000000  0.4419920000000  0.4776570000000 1.0
C      1  0.5151670000000  0.5381830000000  0.4331150000000 1.0
C      1  0.4980310000000  0.5783650000000  0.4102040000000 1.0
C      1  0.4472150000000  0.5602500000000  0.5725020000000 1.0
C      1  0.5543410000000  0.4004790000000  0.5615520000000 1.0
C      1  0.5369870000000  0.3918670000000  0.5409570000000 1.0
C      1  0.5480990000000  0.5504470000000  0.4660680000000 1.0
C      1  0.6004260000000  0.5377140000000  0.5597140000000 1.0
C      1  0.4725080000000  0.6079390000000  0.5314390000000 1.0
C      1  0.4599890000000  0.4699300000000  0.4597130000000 1.0
C      1  0.5896090000000  0.4392630000000  0.5266870000000 1.0
C      1  0.4353050000000  0.4130150000000  0.4620490000000 1.0
C      1  0.4988970000000  0.4259130000000  0.5825330000000 1.0
END
