TITL C-247199-3331-90 0.165710186115443 125000 -343.71802211577 0 0 59 (C1) n - 1
REM
REM in /home/nfs/bkarasulu/CARBON/AIRSS/Generating-Clusters/LCBOP/Only-C1/SD-CG/FIRE-HFTN
REM
REM
REM
REM
REM
REM ./C.cell (11c1c37f851c82e70ff6c80c92926a4b)
REM AIRSS Version 0.9.1 bugfix July 2018 build 013d7b7c2542+ Fri, 06 Jul 2018 19:26:36 +0100
REM compiler GCC version 9.2.1 20190827 (Red Hat 9.2.1-1)
REM options -cpp -mtune=generic -march=x86-64 -g -O0 -fpre-include=/usr/include/finclude/math-vector-fortran.h
REM seed 337178166 147465841 740813724 -1294695896 1914931674 -589612608 -1869972279 -2123636117 -480198748 -1021688086 -1216339337 -686731744 -767017740 507350131 -994726672 -374161425 1744299888 759522474 -931616699 672126867 -185140654 798628994 -1071482860 1473858719 -848282965 -1791538710 1705568898 -1768255757 1211938117 -1559320984 -16322135 2026880915 -500298799
REM
CELL 1.54180   50.00000   50.00000   50.00000   90.00000   90.00000   90.00000
LATT -1
SFAC C  
C      1  0.4188120000000  0.4591600000000  0.5010910000000 1.0
C      1  0.5711250000000  0.5391630000000  0.4873340000000 1.0
C      1  0.5056520000000  0.4913850000000  0.4405300000000 1.0
C      1  0.5514380000000  0.4920280000000  0.4949990000000 1.0
C      1  0.5340990000000  0.5300460000000  0.5548550000000 1.0
C      1  0.4680080000000  0.4901650000000  0.4665930000000 1.0
C      1  0.5497220000000  0.3663020000000  0.4893420000000 1.0
C      1  0.4955140000000  0.4653110000000  0.5055680000000 1.0
C      1  0.4862970000000  0.5618080000000  0.5158450000000 1.0
C      1  0.4477480000000  0.5032940000000  0.5645270000000 1.0
C      1  0.4652370000000  0.5455670000000  0.4703490000000 1.0
C      1  0.4331480000000  0.5234230000000  0.5003760000000 1.0
C      1  0.4453690000000  0.5021520000000  0.4582390000000 1.0
C      1  0.5125310000000  0.5487200000000  0.5561020000000 1.0
C      1  0.5066130000000  0.4863640000000  0.5226760000000 1.0
C      1  0.5455550000000  0.3924280000000  0.4878160000000 1.0
C      1  0.6135080000000  0.5188500000000  0.5408620000000 1.0
C      1  0.4863390000000  0.5027630000000  0.4824170000000 1.0
C      1  0.4854350000000  0.5118390000000  0.5348120000000 1.0
C      1  0.5364470000000  0.4457750000000  0.4848110000000 1.0
C      1  0.4414400000000  0.5004550000000  0.5161420000000 1.0
C      1  0.4400780000000  0.5495340000000  0.5104900000000 1.0
C      1  0.3742670000000  0.4352870000000  0.4851840000000 1.0
C      1  0.5547840000000  0.5762790000000  0.5181870000000 1.0
C      1  0.5213660000000  0.5927810000000  0.5766900000000 1.0
C      1  0.5210030000000  0.5760070000000  0.5553330000000 1.0
C      1  0.4419850000000  0.4728890000000  0.5080020000000 1.0
C      1  0.3296840000000  0.4115570000000  0.4690950000000 1.0
C      1  0.5368000000000  0.5210340000000  0.5283960000000 1.0
C      1  0.5103990000000  0.5193220000000  0.4462400000000 1.0
C      1  0.5579870000000  0.3144680000000  0.4923690000000 1.0
C      1  0.5351950000000  0.4939870000000  0.5195140000000 1.0
C      1  0.3519780000000  0.4234230000000  0.4771400000000 1.0
C      1  0.3077560000000  0.3998850000000  0.4611820000000 1.0
C      1  0.4646010000000  0.5584420000000  0.4977760000000 1.0
C      1  0.5538890000000  0.3401700000000  0.4908680000000 1.0
C      1  0.5590350000000  0.5649540000000  0.4919810000000 1.0
C      1  0.5072950000000  0.5806830000000  0.5093200000000 1.0
C      1  0.5158920000000  0.5847310000000  0.4823790000000 1.0
C      1  0.5061000000000  0.4684540000000  0.4553530000000 1.0
C      1  0.5413380000000  0.4185320000000  0.4862960000000 1.0
C      1  0.4675970000000  0.4603230000000  0.5079470000000 1.0
C      1  0.5549910000000  0.5165710000000  0.4784860000000 1.0
C      1  0.4912550000000  0.5413240000000  0.5373950000000 1.0
C      1  0.5403650000000  0.5763470000000  0.4734700000000 1.0
C      1  0.5368440000000  0.5225950000000  0.4569790000000 1.0
C      1  0.5288580000000  0.5830050000000  0.5288630000000 1.0
C      1  0.6076930000000  0.5271440000000  0.5168510000000 1.0
C      1  0.5564800000000  0.4656410000000  0.4865040000000 1.0
C      1  0.5030040000000  0.5215720000000  0.4920410000000 1.0
C      1  0.4413120000000  0.5264290000000  0.4718620000000 1.0
C      1  0.5222300000000  0.5336560000000  0.5068940000000 1.0
C      1  0.3965550000000  0.4471530000000  0.4932240000000 1.0
C      1  0.5103150000000  0.4570200000000  0.4814520000000 1.0
C      1  0.6167700000000  0.5403080000000  0.4714960000000 1.0
C      1  0.4579780000000  0.5052120000000  0.5392410000000 1.0
C      1  0.5989290000000  0.5355840000000  0.4916800000000 1.0
C      1  0.5493460000000  0.5223920000000  0.5759560000000 1.0
C      1  0.4880080000000  0.5383050000000  0.4525770000000 1.0
END
