TITL C-247195-3186-272 43088.4835600761 125000 -591.602453506199 0 0 98 (C1) n - 1
REM
REM in /home/nfs/bkarasulu/CARBON/AIRSS/Generating-Clusters/LCBOP/Only-C1/SD-CG/FIRE-HFTN
REM
REM
REM
REM
REM
REM ./C.cell (11c1c37f851c82e70ff6c80c92926a4b)
REM AIRSS Version 0.9.1 bugfix July 2018 build 013d7b7c2542+ Fri, 06 Jul 2018 19:26:36 +0100
REM compiler GCC version 9.2.1 20190827 (Red Hat 9.2.1-1)
REM options -cpp -mtune=generic -march=x86-64 -g -O0 -fpre-include=/usr/include/finclude/math-vector-fortran.h
REM seed 274582161 -1497722329 1007709849 1100768782 368063072 -893946333 -1393502416 1894236402 1103623791 -243451820 390610707 801187785 308637652 1490697855 -573086423 255456139 555737753 181670290 -315302793 -1198628861 -1333577513 640775668 2037520407 565508051 1580358982 -1369039912 2062829940 349083141 930462066 146993529 -1395450025 278264560 -1302556042
REM
CELL 1.54180   50.00000   50.00000   50.00000   90.00000   90.00000   90.00000
LATT -1
SFAC C  
C      1  0.5587370000000  0.5365490000000  0.4548820000000 1.0
C      1  0.4513810000000  0.4779170000000  0.4356330000000 1.0
C      1  0.4088360000000  0.4620000000000  0.5588120000000 1.0
C      1  0.5808560000000  0.5063350000000  0.5356300000000 1.0
C      1  0.5030400000000  0.5703920000000  0.5359620000000 1.0
C      1  0.5401610000000  0.5858490000000  0.4605420000000 1.0
C      1  0.5040990000000  0.4383560000000  0.4886930000000 1.0
C      1  0.4920210000000  0.4607200000000  0.3962030000000 1.0
C      1  0.4288440000000  0.4678260000000  0.4955610000000 1.0
C      1  0.4923490000000  0.4682910000000  0.5276510000000 1.0
C      1  0.5174990000000  0.6008180000000  0.4688750000000 1.0
C      1  0.5199010000000  0.4923980000000  0.5602410000000 1.0
C      1  0.4593990000000  0.5716450000000  0.5099680000000 1.0
C      1  0.5033320000000  0.4450850000000  0.5157540000000 1.0
C      1  0.4545130000000  0.4071100000000  0.5025380000000 1.0
C      1  0.5368310000000  0.5172530000000  0.4555100000000 1.0
C      1  0.4571560000000  0.5216260000000  0.5079680000000 1.0
C      1  0.4555560000000  0.5662460000000  0.4806790000000 1.0
C      1  0.5230460000000  0.5524650000000  0.4237910000000 1.0
C      1  0.4975220000000  0.5007320000000  0.4895080000000 1.0
C      1  0.5104360000000  0.4540980000000  0.4166110000000 1.0
C      1  0.4878430000000  0.4079410000000  0.5390710000000 1.0
C      1  0.4627900000000  0.5453070000000  0.5533600000000 1.0
C      1  0.4782170000000  0.5181790000000  0.5237840000000 1.0
C      1  0.4649450000000  0.4749610000000  0.5280210000000 1.0
C      1  0.4471120000000  0.5623050000000  0.5347390000000 1.0
C      1  0.4191450000000  0.5595160000000  0.5391370000000 1.0
C      1  0.5658440000000  0.5558360000000  0.4349360000000 1.0
C      1  0.4974290000000  0.5282200000000  0.4830330000000 1.0
C      1  0.5867180000000  0.4975220000000  0.4531180000000 1.0
C      1  0.5443590000000  0.5223850000000  0.4130200000000 1.0
C      1  0.4320030000000  0.5211640000000  0.4981750000000 1.0
C      1  0.5501820000000  0.4570630000000  0.5478160000000 1.0
C      1  0.4699960000000  0.4757240000000  0.3917800000000 1.0
C      1  0.5021760000000  0.4316400000000  0.4629770000000 1.0
C      1  0.5526380000000  0.5315680000000  0.5665140000000 1.0
C      1  0.5089070000000  0.4908960000000  0.5340270000000 1.0
C      1  0.5698110000000  0.4370420000000  0.5060290000000 1.0
C      1  0.4480790000000  0.5139650000000  0.5581640000000 1.0
C      1  0.4952200000000  0.5887160000000  0.4815770000000 1.0
C      1  0.5316760000000  0.5637500000000  0.5307930000000 1.0
C      1  0.4470020000000  0.4146890000000  0.4779860000000 1.0
C      1  0.5472850000000  0.4833200000000  0.5599900000000 1.0
C      1  0.5647410000000  0.5459610000000  0.4801100000000 1.0
C      1  0.5319850000000  0.5646830000000  0.5024290000000 1.0
C      1  0.5120030000000  0.5487470000000  0.4907500000000 1.0
C      1  0.4735190000000  0.5327700000000  0.4287160000000 1.0
C      1  0.5827140000000  0.4837370000000  0.5157460000000 1.0
C      1  0.4535970000000  0.4906480000000  0.4095060000000 1.0
C      1  0.4898250000000  0.5561430000000  0.4365980000000 1.0
C      1  0.5519750000000  0.5715340000000  0.4836280000000 1.0
C      1  0.5436540000000  0.4923780000000  0.4687960000000 1.0
C      1  0.5038310000000  0.4353010000000  0.4365510000000 1.0
C      1  0.4897430000000  0.5554100000000  0.5575540000000 1.0
C      1  0.5130480000000  0.5105930000000  0.4407070000000 1.0
C      1  0.4415250000000  0.4523120000000  0.4416330000000 1.0
C      1  0.4212190000000  0.4386710000000  0.5539050000000 1.0
C      1  0.4081350000000  0.5332260000000  0.5373240000000 1.0
C      1  0.4554900000000  0.5198360000000  0.4103140000000 1.0
C      1  0.5110290000000  0.4907370000000  0.5876490000000 1.0
C      1  0.5707490000000  0.5311450000000  0.5246180000000 1.0
C      1  0.4689690000000  0.4902120000000  0.4541800000000 1.0
C      1  0.5605980000000  0.5259620000000  0.4994470000000 1.0
C      1  0.5896540000000  0.4899290000000  0.4815590000000 1.0
C      1  0.5259840000000  0.5008460000000  0.4165060000000 1.0
C      1  0.5688670000000  0.4582890000000  0.5245770000000 1.0
C      1  0.4947380000000  0.5066490000000  0.6024820000000 1.0
C      1  0.5192190000000  0.4651740000000  0.5977570000000 1.0
C      1  0.4550210000000  0.4754960000000  0.5011820000000 1.0
C      1  0.4648800000000  0.4670280000000  0.5746730000000 1.0
C      1  0.4855420000000  0.5105650000000  0.4427760000000 1.0
C      1  0.4399820000000  0.4210870000000  0.5461950000000 1.0
C      1  0.5306970000000  0.4730220000000  0.4240040000000 1.0
C      1  0.4605400000000  0.4100080000000  0.5300950000000 1.0
C      1  0.5564500000000  0.4459880000000  0.4584780000000 1.0
C      1  0.4823200000000  0.4463880000000  0.5788470000000 1.0
C      1  0.4582770000000  0.4861210000000  0.5542580000000 1.0
C      1  0.4877010000000  0.5818790000000  0.5118360000000 1.0
C      1  0.4034040000000  0.4626450000000  0.4930730000000 1.0
C      1  0.5419690000000  0.5720690000000  0.4345490000000 1.0
C      1  0.5318810000000  0.5396180000000  0.5838100000000 1.0
C      1  0.5113120000000  0.4438170000000  0.5805180000000 1.0
C      1  0.5744220000000  0.5069930000000  0.4274760000000 1.0
C      1  0.4079900000000  0.5240410000000  0.5103970000000 1.0
C      1  0.4065180000000  0.4887550000000  0.5605580000000 1.0
C      1  0.5656290000000  0.4330100000000  0.4799380000000 1.0
C      1  0.5271730000000  0.4378960000000  0.5560920000000 1.0
C      1  0.5533100000000  0.5473150000000  0.5419310000000 1.0
C      1  0.4418400000000  0.4301600000000  0.4567340000000 1.0
C      1  0.5442550000000  0.5016710000000  0.4960660000000 1.0
C      1  0.5439050000000  0.4697530000000  0.4504390000000 1.0
C      1  0.5068430000000  0.5488100000000  0.5791160000000 1.0
C      1  0.4741110000000  0.4856540000000  0.4815050000000 1.0
C      1  0.5192600000000  0.4977220000000  0.5085900000000 1.0
C      1  0.5653630000000  0.5049770000000  0.5605120000000 1.0
C      1  0.4188140000000  0.5139030000000  0.5558710000000 1.0
C      1  0.4789140000000  0.5714200000000  0.4627010000000 1.0
C      1  0.5099750000000  0.4258760000000  0.5356810000000 1.0
END
