TITL C-247196-3112-64 -1.21347265976999e-06 125000 -1122.93432316795 0 0 183 (C1) n - 1
REM
REM in /home/nfs/bkarasulu/CARBON/AIRSS/Generating-Clusters/LCBOP/Only-C1/SD-CG/FIRE-HFTN
REM
REM
REM
REM
REM
REM ./C.cell (11c1c37f851c82e70ff6c80c92926a4b)
REM AIRSS Version 0.9.1 bugfix July 2018 build 013d7b7c2542+ Fri, 06 Jul 2018 19:26:36 +0100
REM compiler GCC version 9.2.1 20190827 (Red Hat 9.2.1-1)
REM options -cpp -mtune=generic -march=x86-64 -g -O0 -fpre-include=/usr/include/finclude/math-vector-fortran.h
REM seed 2051626538 -1734690041 -1388207297 1553326885 1346320145 2068732210 -1882337402 -1105045052 386177327 1114195141 1888902807 -1767643145 -112920630 -1123058313 461142562 -338095075 1160352859 1890680819 720619817 650949661 1080931834 1657032738 -1801689934 -203365623 74957045 -1666745874 -1210535335 486337335 -1363883237 -2088634961 -1809483074 732467286 -810701772
REM
CELL 1.54180   50.00000   50.00000   50.00000   90.00000   90.00000   90.00000
LATT -1
SFAC C  
C      1  0.4432820000000  0.4025820000000  0.4622190000000 1.0
C      1  0.5184780000000  0.4818640000000  0.4445090000000 1.0
C      1  0.5989220000000  0.4776560000000  0.4281930000000 1.0
C      1  0.5323880000000  0.4941010000000  0.3910420000000 1.0
C      1  0.4277990000000  0.5090060000000  0.4065410000000 1.0
C      1  0.5476900000000  0.6131870000000  0.5115420000000 1.0
C      1  0.5306210000000  0.5330190000000  0.4498680000000 1.0
C      1  0.5773030000000  0.5020770000000  0.5822620000000 1.0
C      1  0.4359950000000  0.4275830000000  0.4213510000000 1.0
C      1  0.4217410000000  0.4701920000000  0.4385520000000 1.0
C      1  0.4661590000000  0.3756290000000  0.5187150000000 1.0
C      1  0.4944750000000  0.5780180000000  0.5053150000000 1.0
C      1  0.4298560000000  0.4235830000000  0.4490250000000 1.0
C      1  0.4557440000000  0.5341160000000  0.4665290000000 1.0
C      1  0.4870790000000  0.3684410000000  0.5030670000000 1.0
C      1  0.4147380000000  0.4983710000000  0.4312510000000 1.0
C      1  0.4704640000000  0.4065740000000  0.4694420000000 1.0
C      1  0.5327700000000  0.3824990000000  0.4899700000000 1.0
C      1  0.4227270000000  0.5018480000000  0.5400650000000 1.0
C      1  0.6159410000000  0.5360900000000  0.4453270000000 1.0
C      1  0.5345970000000  0.6083760000000  0.5604890000000 1.0
C      1  0.5332160000000  0.5752510000000  0.4813800000000 1.0
C      1  0.5693050000000  0.6022370000000  0.4920210000000 1.0
C      1  0.5953310000000  0.5860840000000  0.4986030000000 1.0
C      1  0.5961560000000  0.5447220000000  0.4262260000000 1.0
C      1  0.5913220000000  0.5507700000000  0.5310010000000 1.0
C      1  0.5025950000000  0.5319460000000  0.3867890000000 1.0
C      1  0.4357390000000  0.5099330000000  0.5161000000000 1.0
C      1  0.5230750000000  0.4880670000000  0.5021320000000 1.0
C      1  0.4650890000000  0.5749640000000  0.4363210000000 1.0
C      1  0.4697990000000  0.4643120000000  0.5529860000000 1.0
C      1  0.4836920000000  0.5499020000000  0.3988090000000 1.0
C      1  0.5354630000000  0.4625550000000  0.4347090000000 1.0
C      1  0.5558150000000  0.5363150000000  0.4645130000000 1.0
C      1  0.3885610000000  0.5351310000000  0.5232970000000 1.0
C      1  0.4189950000000  0.4477670000000  0.4908920000000 1.0
C      1  0.4454410000000  0.5831370000000  0.5815330000000 1.0
C      1  0.4144070000000  0.3894760000000  0.5246240000000 1.0
C      1  0.4324630000000  0.5827240000000  0.5562140000000 1.0
C      1  0.4582560000000  0.4720810000000  0.4707130000000 1.0
C      1  0.6039960000000  0.4512440000000  0.5035760000000 1.0
C      1  0.5035370000000  0.5532230000000  0.5458800000000 1.0
C      1  0.6182050000000  0.5353760000000  0.4737900000000 1.0
C      1  0.4916230000000  0.4823670000000  0.4373810000000 1.0
C      1  0.5563810000000  0.4602890000000  0.4164690000000 1.0
C      1  0.4555440000000  0.5472170000000  0.3938130000000 1.0
C      1  0.4342390000000  0.5172160000000  0.4692790000000 1.0
C      1  0.5300490000000  0.5620880000000  0.5824140000000 1.0
C      1  0.4785910000000  0.5349610000000  0.5090380000000 1.0
C      1  0.5272170000000  0.4301310000000  0.4884190000000 1.0
C      1  0.5818950000000  0.4021080000000  0.4880160000000 1.0
C      1  0.4455160000000  0.6288800000000  0.4704660000000 1.0
C      1  0.5542270000000  0.5907020000000  0.4692500000000 1.0
C      1  0.4910920000000  0.3888400000000  0.4595590000000 1.0
C      1  0.5673700000000  0.5855440000000  0.4449820000000 1.0
C      1  0.5577750000000  0.4839390000000  0.3999180000000 1.0
C      1  0.5741920000000  0.4918310000000  0.4679800000000 1.0
C      1  0.5415500000000  0.5163280000000  0.5536030000000 1.0
C      1  0.5559180000000  0.5358820000000  0.3979230000000 1.0
C      1  0.3942430000000  0.5026250000000  0.4907420000000 1.0
C      1  0.4866960000000  0.5552260000000  0.5692330000000 1.0
C      1  0.4964390000000  0.5314590000000  0.4856660000000 1.0
C      1  0.5316840000000  0.4272280000000  0.5638980000000 1.0
C      1  0.4238000000000  0.5028910000000  0.4914360000000 1.0
C      1  0.3976290000000  0.4869930000000  0.5369160000000 1.0
C      1  0.4765370000000  0.4876280000000  0.5384530000000 1.0
C      1  0.6207480000000  0.5050580000000  0.4926370000000 1.0
C      1  0.4510230000000  0.5338440000000  0.5147530000000 1.0
C      1  0.5026940000000  0.4692920000000  0.5029560000000 1.0
C      1  0.4308000000000  0.5813510000000  0.4730510000000 1.0
C      1  0.4071820000000  0.5692040000000  0.5565410000000 1.0
C      1  0.3880310000000  0.4356840000000  0.5380220000000 1.0
C      1  0.4232950000000  0.5480260000000  0.4340270000000 1.0
C      1  0.4112970000000  0.5236940000000  0.4506560000000 1.0
C      1  0.6156360000000  0.4777260000000  0.4819290000000 1.0
C      1  0.5168710000000  0.5095630000000  0.4856330000000 1.0
C      1  0.4787990000000  0.5054400000000  0.4410830000000 1.0
C      1  0.3897200000000  0.5274930000000  0.4735440000000 1.0
C      1  0.5280460000000  0.4572280000000  0.6201760000000 1.0
C      1  0.4911090000000  0.5072170000000  0.3762420000000 1.0
C      1  0.4548340000000  0.5704090000000  0.6035510000000 1.0
C      1  0.4380220000000  0.5706130000000  0.4466610000000 1.0
C      1  0.4184740000000  0.5641670000000  0.4930640000000 1.0
C      1  0.4368640000000  0.4086330000000  0.4019990000000 1.0
C      1  0.4573460000000  0.4703580000000  0.4977810000000 1.0
C      1  0.5344790000000  0.4300990000000  0.6267600000000 1.0
C      1  0.4191680000000  0.4484770000000  0.4614940000000 1.0
C      1  0.4803430000000  0.4292220000000  0.4827930000000 1.0
C      1  0.5489270000000  0.4580820000000  0.5280780000000 1.0
C      1  0.5809020000000  0.5266170000000  0.4096340000000 1.0
C      1  0.6083940000000  0.5069800000000  0.5460860000000 1.0
C      1  0.4714040000000  0.5296840000000  0.5674710000000 1.0
C      1  0.4438300000000  0.5832960000000  0.5295470000000 1.0
C      1  0.4572770000000  0.4683480000000  0.3997170000000 1.0
C      1  0.5072080000000  0.6015780000000  0.5675200000000 1.0
C      1  0.4952160000000  0.4349220000000  0.4019080000000 1.0
C      1  0.5435050000000  0.4295010000000  0.4656620000000 1.0
C      1  0.5052800000000  0.3749480000000  0.4814070000000 1.0
C      1  0.4993240000000  0.4643810000000  0.6172940000000 1.0
C      1  0.5830520000000  0.4976900000000  0.4104420000000 1.0
C      1  0.4027020000000  0.3719250000000  0.5057230000000 1.0
C      1  0.3987480000000  0.4601190000000  0.5477980000000 1.0
C      1  0.5904950000000  0.5301070000000  0.5490680000000 1.0
C      1  0.4426170000000  0.3857550000000  0.5274300000000 1.0
C      1  0.5951520000000  0.4258760000000  0.4919900000000 1.0
C      1  0.5673180000000  0.5213860000000  0.5629890000000 1.0
C      1  0.5596360000000  0.5415490000000  0.4930980000000 1.0
C      1  0.5287410000000  0.4070940000000  0.5044250000000 1.0
C      1  0.5077910000000  0.4126050000000  0.4148850000000 1.0
C      1  0.4390660000000  0.4556510000000  0.4180490000000 1.0
C      1  0.5358190000000  0.4131270000000  0.4188320000000 1.0
C      1  0.5894480000000  0.4606770000000  0.5607890000000 1.0
C      1  0.4446430000000  0.4923380000000  0.3910100000000 1.0
C      1  0.5250760000000  0.5053100000000  0.4582340000000 1.0
C      1  0.4690990000000  0.5508110000000  0.6157630000000 1.0
C      1  0.5312510000000  0.5574090000000  0.5528140000000 1.0
C      1  0.5508690000000  0.4702500000000  0.6048060000000 1.0
C      1  0.5680990000000  0.4807780000000  0.4910120000000 1.0
C      1  0.4447860000000  0.5007120000000  0.5984070000000 1.0
C      1  0.5030380000000  0.4440210000000  0.4906890000000 1.0
C      1  0.5044490000000  0.4828770000000  0.3857200000000 1.0
C      1  0.4444620000000  0.6048640000000  0.4847580000000 1.0
C      1  0.4700180000000  0.4622780000000  0.6230260000000 1.0
C      1  0.6219620000000  0.5058530000000  0.5212220000000 1.0
C      1  0.5057220000000  0.4357900000000  0.5709210000000 1.0
C      1  0.5975230000000  0.5790020000000  0.5277100000000 1.0
C      1  0.6036350000000  0.5576790000000  0.4871060000000 1.0
C      1  0.3838740000000  0.5049820000000  0.5181320000000 1.0
C      1  0.5438020000000  0.5613680000000  0.5049910000000 1.0
C      1  0.5843530000000  0.5702750000000  0.4308460000000 1.0
C      1  0.4884220000000  0.5616940000000  0.4246150000000 1.0
C      1  0.4109820000000  0.3666570000000  0.4807220000000 1.0
C      1  0.5485240000000  0.4176240000000  0.4421350000000 1.0
C      1  0.6140610000000  0.4766490000000  0.4528280000000 1.0
C      1  0.5190610000000  0.6204430000000  0.5063620000000 1.0
C      1  0.4452130000000  0.4525880000000  0.5422180000000 1.0
C      1  0.5530840000000  0.4262180000000  0.5827000000000 1.0
C      1  0.4332030000000  0.5372530000000  0.4083110000000 1.0
C      1  0.4473450000000  0.4727630000000  0.6060210000000 1.0
C      1  0.5308030000000  0.5240000000000  0.3916250000000 1.0
C      1  0.4958740000000  0.3931180000000  0.4319510000000 1.0
C      1  0.4450940000000  0.5208300000000  0.5774430000000 1.0
C      1  0.5449820000000  0.5706590000000  0.5322230000000 1.0
C      1  0.5481120000000  0.4783600000000  0.5095380000000 1.0
C      1  0.5403720000000  0.4356330000000  0.5389590000000 1.0
C      1  0.4386370000000  0.4539680000000  0.5122650000000 1.0
C      1  0.4859220000000  0.4613290000000  0.3946740000000 1.0
C      1  0.5974440000000  0.4879710000000  0.5665020000000 1.0
C      1  0.4873050000000  0.5093180000000  0.5526390000000 1.0
C      1  0.4846770000000  0.5286180000000  0.6142610000000 1.0
C      1  0.4948760000000  0.5071790000000  0.6010060000000 1.0
C      1  0.4026200000000  0.5423290000000  0.5489260000000 1.0
C      1  0.5398850000000  0.5453770000000  0.6028970000000 1.0
C      1  0.4881540000000  0.6052220000000  0.5155870000000 1.0
C      1  0.4788890000000  0.4800150000000  0.5118710000000 1.0
C      1  0.3941600000000  0.5482870000000  0.4952470000000 1.0
C      1  0.5593490000000  0.4971670000000  0.6035140000000 1.0
C      1  0.5828310000000  0.4534900000000  0.4242030000000 1.0
C      1  0.5063440000000  0.5688360000000  0.4825350000000 1.0
C      1  0.5478060000000  0.5989250000000  0.5368500000000 1.0
C      1  0.4373210000000  0.5592410000000  0.5144050000000 1.0
C      1  0.4896700000000  0.6086940000000  0.5461150000000 1.0
C      1  0.5852580000000  0.5417930000000  0.5040180000000 1.0
C      1  0.4474490000000  0.6508250000000  0.4565480000000 1.0
C      1  0.5032290000000  0.5763420000000  0.5833150000000 1.0
C      1  0.5984910000000  0.4529500000000  0.5331760000000 1.0
C      1  0.4566970000000  0.6033550000000  0.5115750000000 1.0
C      1  0.3984140000000  0.4110070000000  0.5337640000000 1.0
C      1  0.4832210000000  0.5295760000000  0.4586460000000 1.0
C      1  0.4311280000000  0.4561370000000  0.5889360000000 1.0
C      1  0.5688340000000  0.4505810000000  0.5818700000000 1.0
C      1  0.4973050000000  0.4798070000000  0.5924670000000 1.0
C      1  0.5616440000000  0.3833430000000  0.4851320000000 1.0
C      1  0.4898710000000  0.4592460000000  0.5724230000000 1.0
C      1  0.5157830000000  0.5094300000000  0.5535450000000 1.0
C      1  0.5469040000000  0.5210690000000  0.6125920000000 1.0
C      1  0.5733770000000  0.5157800000000  0.4566870000000 1.0
C      1  0.5046570000000  0.5454200000000  0.4422300000000 1.0
C      1  0.4222150000000  0.5225880000000  0.5597030000000 1.0
C      1  0.5478410000000  0.4151270000000  0.6082970000000 1.0
C      1  0.4237520000000  0.4545130000000  0.5614180000000 1.0
C      1  0.4906560000000  0.5565270000000  0.5224320000000 1.0
C      1  0.4295250000000  0.3784320000000  0.4654760000000 1.0
END
