TITL C-247197-3123-7 7.85239523465958e-07 125000 -576.342675573446 0 0 94 (C1) n - 1
REM
REM in /home/nfs/bkarasulu/CARBON/AIRSS/Generating-Clusters/LCBOP/Only-C1/SD-CG/FIRE-HFTN
REM
REM
REM
REM
REM
REM ./C.cell (11c1c37f851c82e70ff6c80c92926a4b)
REM AIRSS Version 0.9.1 bugfix July 2018 build 013d7b7c2542+ Fri, 06 Jul 2018 19:26:36 +0100
REM compiler GCC version 9.2.1 20190827 (Red Hat 9.2.1-1)
REM options -cpp -mtune=generic -march=x86-64 -g -O0 -fpre-include=/usr/include/finclude/math-vector-fortran.h
REM seed 827338040 873825462 -981178657 328287926 -1812972734 -233543239 771990754 -1494024040 -111121435 -504029203 1175951840 46006718 -1597768383 622910944 -1383213855 1051020728 -851681641 -1427269015 64541912 267333228 -127608382 85322867 -346286281 326144102 -934822055 -1530881710 199374142 255310251 -1756540663 -1586362074 -434640333 1792063770 -11045971
REM
CELL 1.54180   50.00000   50.00000   50.00000   90.00000   90.00000   90.00000
LATT -1
SFAC C  
C      1  0.4443710000000  0.5893220000000  0.3974400000000 1.0
C      1  0.4241150000000  0.4740710000000  0.5005950000000 1.0
C      1  0.5186370000000  0.4754770000000  0.4395380000000 1.0
C      1  0.5084260000000  0.4095610000000  0.5208750000000 1.0
C      1  0.4864310000000  0.5273180000000  0.5024140000000 1.0
C      1  0.5276600000000  0.5762350000000  0.4750430000000 1.0
C      1  0.4516310000000  0.5228120000000  0.5589500000000 1.0
C      1  0.4359790000000  0.5702650000000  0.5324200000000 1.0
C      1  0.5281850000000  0.4501510000000  0.4479130000000 1.0
C      1  0.4936840000000  0.5906970000000  0.4441040000000 1.0
C      1  0.5171630000000  0.5215540000000  0.5674880000000 1.0
C      1  0.5834750000000  0.4388360000000  0.4837630000000 1.0
C      1  0.4063890000000  0.5250160000000  0.5126290000000 1.0
C      1  0.5789050000000  0.5176630000000  0.4456960000000 1.0
C      1  0.5116030000000  0.4544120000000  0.4934380000000 1.0
C      1  0.4853920000000  0.4850210000000  0.5206360000000 1.0
C      1  0.5209600000000  0.4523440000000  0.5395280000000 1.0
C      1  0.4406020000000  0.4352920000000  0.5249880000000 1.0
C      1  0.5633540000000  0.5319380000000  0.5517490000000 1.0
C      1  0.5316660000000  0.4683980000000  0.5614940000000 1.0
C      1  0.4809030000000  0.4316940000000  0.5582640000000 1.0
C      1  0.4257380000000  0.5907500000000  0.4166180000000 1.0
C      1  0.4874510000000  0.5730940000000  0.5185070000000 1.0
C      1  0.5360010000000  0.4954120000000  0.4263840000000 1.0
C      1  0.5197610000000  0.5183310000000  0.4192930000000 1.0
C      1  0.4460730000000  0.4304860000000  0.4972950000000 1.0
C      1  0.4997220000000  0.5196570000000  0.4404700000000 1.0
C      1  0.4937510000000  0.4908320000000  0.4460040000000 1.0
C      1  0.4860950000000  0.5963620000000  0.4193090000000 1.0
C      1  0.5296430000000  0.5087810000000  0.5134140000000 1.0
C      1  0.5543500000000  0.4968220000000  0.5193520000000 1.0
C      1  0.5545790000000  0.4384770000000  0.4442370000000 1.0
C      1  0.4794060000000  0.4412980000000  0.6316200000000 1.0
C      1  0.5633350000000  0.5524620000000  0.5318060000000 1.0
C      1  0.4996720000000  0.5715560000000  0.4663900000000 1.0
C      1  0.4543610000000  0.4594690000000  0.4577370000000 1.0
C      1  0.5040240000000  0.4291560000000  0.5417840000000 1.0
C      1  0.5843130000000  0.5495360000000  0.5123660000000 1.0
C      1  0.4343320000000  0.5894130000000  0.4671280000000 1.0
C      1  0.4422660000000  0.5149790000000  0.4853490000000 1.0
C      1  0.4828290000000  0.4518760000000  0.5789740000000 1.0
C      1  0.4863610000000  0.5697870000000  0.3796340000000 1.0
C      1  0.5044170000000  0.5501450000000  0.3805700000000 1.0
C      1  0.5397610000000  0.4175510000000  0.4834070000000 1.0
C      1  0.4282320000000  0.4795560000000  0.5711130000000 1.0
C      1  0.5119060000000  0.5603870000000  0.5317550000000 1.0
C      1  0.4590670000000  0.5254710000000  0.5055470000000 1.0
C      1  0.5132020000000  0.4912940000000  0.5686750000000 1.0
C      1  0.4472310000000  0.5274300000000  0.5317550000000 1.0
C      1  0.4810790000000  0.4462090000000  0.6060830000000 1.0
C      1  0.5878040000000  0.5321280000000  0.4662820000000 1.0
C      1  0.6077050000000  0.5073590000000  0.5013240000000 1.0
C      1  0.4189630000000  0.5025180000000  0.4972780000000 1.0
C      1  0.5019180000000  0.5074140000000  0.5137220000000 1.0
C      1  0.5626540000000  0.5008560000000  0.4328260000000 1.0
C      1  0.5443330000000  0.5298300000000  0.5723460000000 1.0
C      1  0.5953480000000  0.5315910000000  0.4933940000000 1.0
C      1  0.4812330000000  0.5771890000000  0.4904600000000 1.0
C      1  0.5639950000000  0.4253390000000  0.4685570000000 1.0
C      1  0.5314950000000  0.4574810000000  0.5135980000000 1.0
C      1  0.4864250000000  0.4023610000000  0.5044600000000 1.0
C      1  0.4551840000000  0.5857850000000  0.4832600000000 1.0
C      1  0.4777400000000  0.5595470000000  0.5617970000000 1.0
C      1  0.4666480000000  0.4846860000000  0.4525370000000 1.0
C      1  0.4657430000000  0.4119190000000  0.4876230000000 1.0
C      1  0.4304380000000  0.4625140000000  0.5268570000000 1.0
C      1  0.5389460000000  0.5648520000000  0.5229670000000 1.0
C      1  0.5565120000000  0.4703470000000  0.5101820000000 1.0
C      1  0.4509990000000  0.5069040000000  0.4602720000000 1.0
C      1  0.4384550000000  0.4550810000000  0.4817790000000 1.0
C      1  0.4559470000000  0.4252010000000  0.5464090000000 1.0
C      1  0.5700470000000  0.5070180000000  0.5402310000000 1.0
C      1  0.5558520000000  0.4143920000000  0.5320750000000 1.0
C      1  0.5198330000000  0.4374760000000  0.4729010000000 1.0
C      1  0.4870320000000  0.4648280000000  0.5011970000000 1.0
C      1  0.5362310000000  0.4091990000000  0.5111940000000 1.0
C      1  0.4686350000000  0.4128260000000  0.4593780000000 1.0
C      1  0.4960530000000  0.5432820000000  0.4553200000000 1.0
C      1  0.4493110000000  0.5245050000000  0.5849820000000 1.0
C      1  0.6027610000000  0.4809460000000  0.5011810000000 1.0
C      1  0.4632420000000  0.4354890000000  0.4453730000000 1.0
C      1  0.5409720000000  0.5777620000000  0.4980300000000 1.0
C      1  0.4227940000000  0.5908810000000  0.4431550000000 1.0
C      1  0.5625630000000  0.4303890000000  0.5533670000000 1.0
C      1  0.4723240000000  0.5870320000000  0.3966300000000 1.0
C      1  0.4423410000000  0.4772240000000  0.5477090000000 1.0
C      1  0.4706500000000  0.4827830000000  0.5450510000000 1.0
C      1  0.5024950000000  0.5448970000000  0.5559490000000 1.0
C      1  0.4236250000000  0.5443600000000  0.5269350000000 1.0
C      1  0.4647580000000  0.5727000000000  0.5385320000000 1.0
C      1  0.5817350000000  0.4621980000000  0.4993910000000 1.0
C      1  0.5177400000000  0.5327470000000  0.3957200000000 1.0
C      1  0.4866860000000  0.4785580000000  0.5684390000000 1.0
C      1  0.5553490000000  0.4529460000000  0.5677900000000 1.0
END
