TITL C-247201-3759-344 55.4597433831373 125000 -1215.86546218803 0 0 199 (C1) n - 1
REM
REM in /home/nfs/bkarasulu/CARBON/AIRSS/Generating-Clusters/LCBOP/Only-C1/SD-CG/FIRE-HFTN
REM
REM
REM
REM
REM
REM ./C.cell (11c1c37f851c82e70ff6c80c92926a4b)
REM AIRSS Version 0.9.1 bugfix July 2018 build 013d7b7c2542+ Fri, 06 Jul 2018 19:26:36 +0100
REM compiler GCC version 9.2.1 20190827 (Red Hat 9.2.1-1)
REM options -cpp -mtune=generic -march=x86-64 -g -O0 -fpre-include=/usr/include/finclude/math-vector-fortran.h
REM seed 2070250479 -323032932 796592184 -1915450685 -1430272846 1647408902 2056764533 -289962506 -1343971221 -1432677805 -1492341368 -1848176007 1934281188 935417447 -193586530 2111550859 -214350540 152168534 1853690279 880953266 1377260238 172153077 1371315745 -531622193 -1527241557 -1816921021 -1250161440 -663365882 -588521060 318214870 2013018110 -1608829452 895219387
REM
CELL 1.54180   50.00000   50.00000   50.00000   90.00000   90.00000   90.00000
LATT -1
SFAC C  
C      1  0.3783190000000  0.5275510000000  0.4619430000000 1.0
C      1  0.5669250000000  0.3846050000000  0.5003120000000 1.0
C      1  0.4295540000000  0.4996050000000  0.5738370000000 1.0
C      1  0.5696630000000  0.5016700000000  0.3943780000000 1.0
C      1  0.4342460000000  0.4470840000000  0.4519770000000 1.0
C      1  0.5854770000000  0.5473260000000  0.5467330000000 1.0
C      1  0.4491970000000  0.4214850000000  0.4567020000000 1.0
C      1  0.5500860000000  0.4833430000000  0.3825110000000 1.0
C      1  0.5021810000000  0.4132290000000  0.3970520000000 1.0
C      1  0.5473620000000  0.4656040000000  0.5104610000000 1.0
C      1  0.5182090000000  0.5920740000000  0.5089350000000 1.0
C      1  0.5118930000000  0.5702730000000  0.6258400000000 1.0
C      1  0.5059450000000  0.4661840000000  0.4288020000000 1.0
C      1  0.4892760000000  0.5987920000000  0.5911890000000 1.0
C      1  0.5752200000000  0.5452260000000  0.5902650000000 1.0
C      1  0.4877190000000  0.6101490000000  0.4310130000000 1.0
C      1  0.5813810000000  0.5923000000000  0.4524390000000 1.0
C      1  0.5669070000000  0.5716610000000  0.5064200000000 1.0
C      1  0.4585700000000  0.5819360000000  0.5000080000000 1.0
C      1  0.5819240000000  0.4442820000000  0.5366020000000 1.0
C      1  0.4771360000000  0.4736890000000  0.5456610000000 1.0
C      1  0.4940100000000  0.5419270000000  0.4300630000000 1.0
C      1  0.5040930000000  0.5267220000000  0.5586030000000 1.0
C      1  0.5077500000000  0.5202330000000  0.4150820000000 1.0
C      1  0.5687490000000  0.5434330000000  0.4164810000000 1.0
C      1  0.4259750000000  0.3951470000000  0.4952030000000 1.0
C      1  0.4318430000000  0.4708910000000  0.5716670000000 1.0
C      1  0.5754480000000  0.4683660000000  0.5851250000000 1.0
C      1  0.5574530000000  0.5281620000000  0.3951150000000 1.0
C      1  0.4947360000000  0.6026800000000  0.5227300000000 1.0
C      1  0.4835060000000  0.3968330000000  0.4349670000000 1.0
C      1  0.4481830000000  0.3832260000000  0.5102500000000 1.0
C      1  0.5145270000000  0.5437560000000  0.6170560000000 1.0
C      1  0.5301720000000  0.4477730000000  0.5810180000000 1.0
C      1  0.4167290000000  0.4610100000000  0.5496370000000 1.0
C      1  0.3823430000000  0.5574290000000  0.5050760000000 1.0
C      1  0.5072610000000  0.4003320000000  0.4870710000000 1.0
C      1  0.6515400000000  0.4682420000000  0.5193920000000 1.0
C      1  0.4805660000000  0.5034460000000  0.4458820000000 1.0
C      1  0.5487630000000  0.5281060000000  0.4956110000000 1.0
C      1  0.4914870000000  0.5794440000000  0.4677040000000 1.0
C      1  0.4466570000000  0.4697310000000  0.4689510000000 1.0
C      1  0.5679860000000  0.5601750000000  0.5657460000000 1.0
C      1  0.4046860000000  0.4917040000000  0.4365110000000 1.0
C      1  0.5291750000000  0.3982840000000  0.4421440000000 1.0
C      1  0.5666040000000  0.4847170000000  0.5103880000000 1.0
C      1  0.5296490000000  0.4475160000000  0.5200400000000 1.0
C      1  0.5944290000000  0.5470180000000  0.4297440000000 1.0
C      1  0.4089550000000  0.5453190000000  0.4314430000000 1.0
C      1  0.6080080000000  0.4642130000000  0.4965770000000 1.0
C      1  0.6027930000000  0.5196110000000  0.4378500000000 1.0
C      1  0.5703180000000  0.6287290000000  0.5477110000000 1.0
C      1  0.4758230000000  0.4260060000000  0.3952300000000 1.0
C      1  0.3846580000000  0.4993050000000  0.5049500000000 1.0
C      1  0.5870600000000  0.4996710000000  0.4193380000000 1.0
C      1  0.6106880000000  0.4938030000000  0.5622480000000 1.0
C      1  0.5367540000000  0.4629810000000  0.6235680000000 1.0
C      1  0.4440240000000  0.6025550000000  0.5661240000000 1.0
C      1  0.5319820000000  0.5557260000000  0.4456080000000 1.0
C      1  0.4294640000000  0.5845240000000  0.4943880000000 1.0
C      1  0.4013140000000  0.4346090000000  0.4911360000000 1.0
C      1  0.5140170000000  0.5932630000000  0.4804340000000 1.0
C      1  0.6042700000000  0.5104290000000  0.4688150000000 1.0
C      1  0.4561730000000  0.5171860000000  0.4411480000000 1.0
C      1  0.6253040000000  0.4748670000000  0.5167570000000 1.0
C      1  0.5790070000000  0.6546250000000  0.5498040000000 1.0
C      1  0.4876960000000  0.4464530000000  0.4385790000000 1.0
C      1  0.4551510000000  0.4423050000000  0.5189690000000 1.0
C      1  0.4516700000000  0.3740000000000  0.4629440000000 1.0
C      1  0.4270040000000  0.6488800000000  0.4375820000000 1.0
C      1  0.4457160000000  0.4490550000000  0.5854220000000 1.0
C      1  0.5844030000000  0.6104940000000  0.5308410000000 1.0
C      1  0.6038360000000  0.5649680000000  0.5340600000000 1.0
C      1  0.3890150000000  0.4585080000000  0.5535720000000 1.0
C      1  0.5693430000000  0.4641690000000  0.5553640000000 1.0
C      1  0.5000820000000  0.5303860000000  0.4846870000000 1.0
C      1  0.5302820000000  0.6061560000000  0.4604370000000 1.0
C      1  0.5717110000000  0.5452310000000  0.4950150000000 1.0
C      1  0.4528330000000  0.5336210000000  0.4179320000000 1.0
C      1  0.5692370000000  0.4453350000000  0.4596220000000 1.0
C      1  0.4694450000000  0.4880450000000  0.3830220000000 1.0
C      1  0.5319310000000  0.5364590000000  0.5958790000000 1.0
C      1  0.4460910000000  0.4980240000000  0.5092070000000 1.0
C      1  0.4648510000000  0.3715780000000  0.4893660000000 1.0
C      1  0.4426660000000  0.6285130000000  0.4332250000000 1.0
C      1  0.4047900000000  0.4090100000000  0.4514510000000 1.0
C      1  0.4536530000000  0.3900420000000  0.5369250000000 1.0
C      1  0.5717330000000  0.4307040000000  0.4843350000000 1.0
C      1  0.4059960000000  0.4103550000000  0.5352970000000 1.0
C      1  0.5318420000000  0.4557450000000  0.4266800000000 1.0
C      1  0.5843130000000  0.5193830000000  0.5951030000000 1.0
C      1  0.5315120000000  0.4017040000000  0.4709890000000 1.0
C      1  0.4401970000000  0.4953720000000  0.4812120000000 1.0
C      1  0.3894430000000  0.5137790000000  0.5268580000000 1.0
C      1  0.5389630000000  0.4009610000000  0.5872800000000 1.0
C      1  0.6021740000000  0.4806400000000  0.4730480000000 1.0
C      1  0.3951180000000  0.4794270000000  0.4885560000000 1.0
C      1  0.5213270000000  0.4206590000000  0.5797320000000 1.0
C      1  0.5191160000000  0.5465450000000  0.4700940000000 1.0
C      1  0.5877980000000  0.5060260000000  0.5188350000000 1.0
C      1  0.4627450000000  0.5533970000000  0.4983290000000 1.0
C      1  0.4019740000000  0.5595890000000  0.5264500000000 1.0
C      1  0.5892530000000  0.5848850000000  0.5194820000000 1.0
C      1  0.4955200000000  0.4124760000000  0.5713670000000 1.0
C      1  0.4265360000000  0.5670470000000  0.4710450000000 1.0
C      1  0.5892290000000  0.4196160000000  0.5489660000000 1.0
C      1  0.5076090000000  0.5714830000000  0.4002300000000 1.0
C      1  0.5222210000000  0.5762470000000  0.4247460000000 1.0
C      1  0.6308930000000  0.5633180000000  0.5355600000000 1.0
C      1  0.5458840000000  0.4824990000000  0.5536800000000 1.0
C      1  0.5037320000000  0.4366330000000  0.5228770000000 1.0
C      1  0.4850980000000  0.5612440000000  0.4479820000000 1.0
C      1  0.5045620000000  0.4833610000000  0.5094780000000 1.0
C      1  0.4864070000000  0.5413050000000  0.5090400000000 1.0
C      1  0.4063550000000  0.4114380000000  0.5067540000000 1.0
C      1  0.4572450000000  0.4523530000000  0.6116260000000 1.0
C      1  0.5454540000000  0.5090640000000  0.4755130000000 1.0
C      1  0.5472400000000  0.6204160000000  0.5624580000000 1.0
C      1  0.4846210000000  0.4567410000000  0.6180660000000 1.0
C      1  0.4935250000000  0.5702210000000  0.5521080000000 1.0
C      1  0.4944330000000  0.4226840000000  0.4989520000000 1.0
C      1  0.5745180000000  0.5217880000000  0.5409780000000 1.0
C      1  0.4448980000000  0.4904860000000  0.3955160000000 1.0
C      1  0.5516520000000  0.4576270000000  0.5996170000000 1.0
C      1  0.4922240000000  0.5266180000000  0.6198980000000 1.0
C      1  0.4427090000000  0.5437630000000  0.4795740000000 1.0
C      1  0.5814150000000  0.4702300000000  0.4567350000000 1.0
C      1  0.4419080000000  0.5192980000000  0.4659420000000 1.0
C      1  0.4747220000000  0.4217200000000  0.4452130000000 1.0
C      1  0.5691040000000  0.4891240000000  0.4396070000000 1.0
C      1  0.5085070000000  0.3996040000000  0.4222050000000 1.0
C      1  0.4625130000000  0.6053240000000  0.5854080000000 1.0
C      1  0.3635110000000  0.4569910000000  0.5587180000000 1.0
C      1  0.4393340000000  0.4511310000000  0.6332550000000 1.0
C      1  0.5585460000000  0.6049620000000  0.4592600000000 1.0
C      1  0.4994410000000  0.4943740000000  0.4264490000000 1.0
C      1  0.4909260000000  0.5057410000000  0.4719970000000 1.0
C      1  0.4417930000000  0.5955770000000  0.5390530000000 1.0
C      1  0.5877190000000  0.4443370000000  0.5061830000000 1.0
C      1  0.5284870000000  0.5265160000000  0.3964200000000 1.0
C      1  0.4207260000000  0.5225310000000  0.5615770000000 1.0
C      1  0.4666220000000  0.5972320000000  0.5225360000000 1.0
C      1  0.4575130000000  0.5605100000000  0.4086680000000 1.0
C      1  0.4605350000000  0.4920150000000  0.5311680000000 1.0
C      1  0.4588880000000  0.6058230000000  0.4299190000000 1.0
C      1  0.4812450000000  0.5673430000000  0.3941740000000 1.0
C      1  0.5882640000000  0.3933490000000  0.5439470000000 1.0
C      1  0.5964740000000  0.5720120000000  0.4428560000000 1.0
C      1  0.5519530000000  0.5099040000000  0.4488710000000 1.0
C      1  0.4807340000000  0.5128840000000  0.5998170000000 1.0
C      1  0.5922190000000  0.4932060000000  0.5848850000000 1.0
C      1  0.5326530000000  0.5963290000000  0.5648450000000 1.0
C      1  0.4450460000000  0.5802670000000  0.4259700000000 1.0
C      1  0.4529450000000  0.4383170000000  0.4042680000000 1.0
C      1  0.4283560000000  0.4549420000000  0.5240610000000 1.0
C      1  0.4236020000000  0.5681890000000  0.4424660000000 1.0
C      1  0.4902290000000  0.5073090000000  0.5741090000000 1.0
C      1  0.3965970000000  0.5207420000000  0.4407580000000 1.0
C      1  0.4957080000000  0.4814750000000  0.5647190000000 1.0
C      1  0.4360080000000  0.4536940000000  0.4223550000000 1.0
C      1  0.5509580000000  0.5365950000000  0.4378990000000 1.0
C      1  0.5168850000000  0.5031620000000  0.5217820000000 1.0
C      1  0.4935200000000  0.5449320000000  0.5384270000000 1.0
C      1  0.5154220000000  0.6023890000000  0.4356550000000 1.0
C      1  0.5568130000000  0.4057540000000  0.4847980000000 1.0
C      1  0.5322300000000  0.5244130000000  0.5172580000000 1.0
C      1  0.5219790000000  0.4702680000000  0.5650800000000 1.0
C      1  0.5512030000000  0.5110090000000  0.5551790000000 1.0
C      1  0.4927840000000  0.3760490000000  0.4899630000000 1.0
C      1  0.5051660000000  0.5900410000000  0.5692250000000 1.0
C      1  0.4045880000000  0.4403490000000  0.4600890000000 1.0
C      1  0.4450980000000  0.4230570000000  0.5719120000000 1.0
C      1  0.4907630000000  0.4812660000000  0.4859020000000 1.0
C      1  0.5232360000000  0.4803320000000  0.3763590000000 1.0
C      1  0.4992660000000  0.5921080000000  0.6165690000000 1.0
C      1  0.3946220000000  0.4720370000000  0.4590550000000 1.0
C      1  0.5940180000000  0.5248520000000  0.4933690000000 1.0
C      1  0.4263390000000  0.4101510000000  0.5540890000000 1.0
C      1  0.4196800000000  0.5822480000000  0.5229270000000 1.0
C      1  0.4694380000000  0.4368890000000  0.4939870000000 1.0
C      1  0.4681550000000  0.3741080000000  0.4401590000000 1.0
C      1  0.5197300000000  0.4135490000000  0.3760600000000 1.0
C      1  0.4049740000000  0.5337210000000  0.5402770000000 1.0
C      1  0.4957910000000  0.4832530000000  0.3764500000000 1.0
C      1  0.4312260000000  0.3974200000000  0.4648810000000 1.0
C      1  0.4089850000000  0.4587440000000  0.5033130000000 1.0
C      1  0.3746150000000  0.5444700000000  0.4826900000000 1.0
C      1  0.4262140000000  0.4807650000000  0.4163040000000 1.0
C      1  0.4221620000000  0.4503110000000  0.6528400000000 1.0
C      1  0.5503160000000  0.4411580000000  0.4393770000000 1.0
C      1  0.4787050000000  0.4478100000000  0.5355150000000 1.0
C      1  0.5312910000000  0.5272480000000  0.5688660000000 1.0
C      1  0.5420850000000  0.5778960000000  0.5211820000000 1.0
C      1  0.5097160000000  0.4613650000000  0.6269470000000 1.0
C      1  0.4718360000000  0.4611400000000  0.4796300000000 1.0
C      1  0.5466300000000  0.5753080000000  0.5512710000000 1.0
C      1  0.6115030000000  0.4933230000000  0.5334930000000 1.0
C      1  0.4692930000000  0.4080590000000  0.5634640000000 1.0
C      1  0.5789280000000  0.3788270000000  0.5234710000000 1.0
END
