TITL C-247195-3186-302 -5.26843167503092e-08 125000 -666.557587957139 0 0 109 (C1) n - 1
REM
REM in /home/nfs/bkarasulu/CARBON/AIRSS/Generating-Clusters/LCBOP/Only-C1/SD-CG/FIRE-HFTN
REM
REM
REM
REM
REM
REM ./C.cell (11c1c37f851c82e70ff6c80c92926a4b)
REM AIRSS Version 0.9.1 bugfix July 2018 build 013d7b7c2542+ Fri, 06 Jul 2018 19:26:36 +0100
REM compiler GCC version 9.2.1 20190827 (Red Hat 9.2.1-1)
REM options -cpp -mtune=generic -march=x86-64 -g -O0 -fpre-include=/usr/include/finclude/math-vector-fortran.h
REM seed -1857075259 115955306 944269180 -1963657475 -946683355 1807330749 -14054740 -1020100090 -579260854 -1204457528 1334400178 95062491 783690436 -520335521 -706042335 -1621325249 -717371791 -1083750525 1581053212 1585854457 -1617156077 -954174209 -210492145 -1940637573 1683763865 350913047 -435512809 1004338795 1115992269 155425246 -1020554084 417648300 186694892
REM
CELL 1.54180   50.00000   50.00000   50.00000   90.00000   90.00000   90.00000
LATT -1
SFAC C  
C      1  0.4673780000000  0.5158800000000  0.5951970000000 1.0
C      1  0.4719640000000  0.5130670000000  0.4035390000000 1.0
C      1  0.4578930000000  0.4872910000000  0.5332740000000 1.0
C      1  0.4625410000000  0.4247770000000  0.5078590000000 1.0
C      1  0.5380180000000  0.5439150000000  0.4211610000000 1.0
C      1  0.5388920000000  0.5626110000000  0.4777910000000 1.0
C      1  0.4414480000000  0.4847470000000  0.5103010000000 1.0
C      1  0.4573700000000  0.4244020000000  0.4403600000000 1.0
C      1  0.4645580000000  0.5729420000000  0.4746900000000 1.0
C      1  0.5634670000000  0.5310540000000  0.4289910000000 1.0
C      1  0.4344830000000  0.4833740000000  0.4164570000000 1.0
C      1  0.4702320000000  0.5394140000000  0.5413930000000 1.0
C      1  0.4400610000000  0.5421420000000  0.4293300000000 1.0
C      1  0.4568040000000  0.5358340000000  0.4092670000000 1.0
C      1  0.6072240000000  0.4755460000000  0.5296510000000 1.0
C      1  0.4437170000000  0.4076500000000  0.4257910000000 1.0
C      1  0.5767580000000  0.5118290000000  0.4436610000000 1.0
C      1  0.4846500000000  0.5821600000000  0.4560240000000 1.0
C      1  0.4304070000000  0.5062880000000  0.4623940000000 1.0
C      1  0.4443460000000  0.5043410000000  0.5871730000000 1.0
C      1  0.5018330000000  0.5802750000000  0.4325170000000 1.0
C      1  0.5144050000000  0.4935880000000  0.4580080000000 1.0
C      1  0.4702820000000  0.4675320000000  0.5492490000000 1.0
C      1  0.5303620000000  0.4415930000000  0.4857910000000 1.0
C      1  0.5506580000000  0.4636810000000  0.4847390000000 1.0
C      1  0.5886850000000  0.4918690000000  0.5440250000000 1.0
C      1  0.5581830000000  0.5924840000000  0.5203810000000 1.0
C      1  0.5391670000000  0.5273160000000  0.5292390000000 1.0
C      1  0.5218430000000  0.5392970000000  0.4750510000000 1.0
C      1  0.5137240000000  0.5197850000000  0.5192080000000 1.0
C      1  0.5044410000000  0.4782310000000  0.4027280000000 1.0
C      1  0.4654930000000  0.5135430000000  0.5395300000000 1.0
C      1  0.5534130000000  0.4411120000000  0.5622490000000 1.0
C      1  0.5240330000000  0.4342830000000  0.4223700000000 1.0
C      1  0.5173650000000  0.5208990000000  0.4528420000000 1.0
C      1  0.5530180000000  0.5105200000000  0.5740580000000 1.0
C      1  0.4599360000000  0.5450570000000  0.4727620000000 1.0
C      1  0.4713320000000  0.4414520000000  0.4550640000000 1.0
C      1  0.5035910000000  0.5327890000000  0.4962800000000 1.0
C      1  0.5773720000000  0.6108890000000  0.5115050000000 1.0
C      1  0.4655780000000  0.3962440000000  0.5142590000000 1.0
C      1  0.4576270000000  0.4874750000000  0.4011670000000 1.0
C      1  0.5851600000000  0.4898420000000  0.4607580000000 1.0
C      1  0.4272350000000  0.4317150000000  0.5738180000000 1.0
C      1  0.3961610000000  0.4618440000000  0.5198950000000 1.0
C      1  0.5778600000000  0.4431510000000  0.4485180000000 1.0
C      1  0.4407340000000  0.5700650000000  0.5217300000000 1.0
C      1  0.5113300000000  0.4929170000000  0.5281830000000 1.0
C      1  0.4235270000000  0.4902630000000  0.4400810000000 1.0
C      1  0.5875510000000  0.6200020000000  0.4885050000000 1.0
C      1  0.4369010000000  0.4346060000000  0.5029920000000 1.0
C      1  0.5650410000000  0.5966620000000  0.4515070000000 1.0
C      1  0.4882780000000  0.3861510000000  0.4991810000000 1.0
C      1  0.5515520000000  0.4881820000000  0.5006710000000 1.0
C      1  0.5275940000000  0.5528720000000  0.5708810000000 1.0
C      1  0.5292130000000  0.5697050000000  0.4320300000000 1.0
C      1  0.5101320000000  0.3950840000000  0.4847500000000 1.0
C      1  0.4721640000000  0.5010210000000  0.4805270000000 1.0
C      1  0.3942260000000  0.4839960000000  0.5348950000000 1.0
C      1  0.5151220000000  0.5102150000000  0.6073100000000 1.0
C      1  0.6139480000000  0.4791560000000  0.5034020000000 1.0
C      1  0.5652040000000  0.4880950000000  0.5606940000000 1.0
C      1  0.5383240000000  0.5783610000000  0.5663150000000 1.0
C      1  0.6067300000000  0.4900170000000  0.4795690000000 1.0
C      1  0.4448700000000  0.4943440000000  0.4842040000000 1.0
C      1  0.5842320000000  0.5142540000000  0.5265300000000 1.0
C      1  0.4257110000000  0.4895350000000  0.5713760000000 1.0
C      1  0.5413480000000  0.5313940000000  0.5577720000000 1.0
C      1  0.4887390000000  0.4351490000000  0.5136690000000 1.0
C      1  0.5591230000000  0.5132090000000  0.5141600000000 1.0
C      1  0.5028660000000  0.4473490000000  0.4929500000000 1.0
C      1  0.4189510000000  0.5516560000000  0.5265060000000 1.0
C      1  0.4916850000000  0.5898500000000  0.4087210000000 1.0
C      1  0.5450250000000  0.5774970000000  0.4541190000000 1.0
C      1  0.5701280000000  0.4649790000000  0.4631450000000 1.0
C      1  0.5276210000000  0.4172230000000  0.4431470000000 1.0
C      1  0.5496930000000  0.5924890000000  0.5469110000000 1.0
C      1  0.5208760000000  0.4089050000000  0.5484630000000 1.0
C      1  0.5166570000000  0.5252200000000  0.4240420000000 1.0
C      1  0.5024640000000  0.4219700000000  0.5343680000000 1.0
C      1  0.5269630000000  0.4153060000000  0.4716800000000 1.0
C      1  0.5214490000000  0.4623210000000  0.4191130000000 1.0
C      1  0.5006820000000  0.5080340000000  0.4076290000000 1.0
C      1  0.5295330000000  0.4766390000000  0.4418130000000 1.0
C      1  0.4497640000000  0.5827490000000  0.4973580000000 1.0
C      1  0.4115810000000  0.5293160000000  0.5404500000000 1.0
C      1  0.4948900000000  0.4634390000000  0.5599170000000 1.0
C      1  0.4521940000000  0.3945500000000  0.5398630000000 1.0
C      1  0.4124420000000  0.4209180000000  0.5944940000000 1.0
C      1  0.5025390000000  0.5505830000000  0.5850000000000 1.0
C      1  0.4903240000000  0.4843670000000  0.4684750000000 1.0
C      1  0.4610990000000  0.5659210000000  0.5411950000000 1.0
C      1  0.5405110000000  0.5063880000000  0.5991030000000 1.0
C      1  0.5185240000000  0.4740660000000  0.5483600000000 1.0
C      1  0.5436860000000  0.4163230000000  0.5602720000000 1.0
C      1  0.5472690000000  0.5738730000000  0.5021610000000 1.0
C      1  0.4939290000000  0.5258560000000  0.5970280000000 1.0
C      1  0.4267780000000  0.4604430000000  0.5719580000000 1.0
C      1  0.4782490000000  0.4685160000000  0.3950670000000 1.0
C      1  0.4093490000000  0.5023680000000  0.5505190000000 1.0
C      1  0.4871830000000  0.4571050000000  0.4716870000000 1.0
C      1  0.4124330000000  0.4440080000000  0.5083040000000 1.0
C      1  0.4395770000000  0.5334550000000  0.4561780000000 1.0
C      1  0.4850080000000  0.5726580000000  0.5831280000000 1.0
C      1  0.5458650000000  0.4673510000000  0.5560940000000 1.0
C      1  0.4689250000000  0.5812140000000  0.5632710000000 1.0
C      1  0.5820340000000  0.6136620000000  0.4630700000000 1.0
C      1  0.4409220000000  0.4126680000000  0.5571060000000 1.0
C      1  0.4777710000000  0.5277810000000  0.4860850000000 1.0
END
