TITL C-247195-3186-513 4.92904600963209 125000 -701.726862006176 0 0 116 (C1) n - 1
REM
REM in /home/nfs/bkarasulu/CARBON/AIRSS/Generating-Clusters/LCBOP/Only-C1/SD-CG/FIRE-HFTN
REM
REM
REM
REM
REM
REM ./C.cell (11c1c37f851c82e70ff6c80c92926a4b)
REM AIRSS Version 0.9.1 bugfix July 2018 build 013d7b7c2542+ Fri, 06 Jul 2018 19:26:36 +0100
REM compiler GCC version 9.2.1 20190827 (Red Hat 9.2.1-1)
REM options -cpp -mtune=generic -march=x86-64 -g -O0 -fpre-include=/usr/include/finclude/math-vector-fortran.h
REM seed 332990559 1005045842 -799406815 247112754 -250788965 667054083 55363479 -2114820865 1827465080 -1021550744 -1955517403 -1187208958 363279067 -972309394 1846390837 871081670 -1821810902 -823147495 693648368 1471716519 -40809481 2049274414 1674008178 -253438626 -1490923812 2039430485 -1433415698 1526517328 970710181 52743426 -1695170181 -1714011560 -1943062944
REM
CELL 1.54180   50.00000   50.00000   50.00000   90.00000   90.00000   90.00000
LATT -1
SFAC C  
C      1  0.4216340000000  0.4889850000000  0.5267460000000 1.0
C      1  0.5207640000000  0.5699770000000  0.5395010000000 1.0
C      1  0.5355260000000  0.5385960000000  0.4528590000000 1.0
C      1  0.5858880000000  0.4339530000000  0.5341030000000 1.0
C      1  0.5432610000000  0.5200570000000  0.4984510000000 1.0
C      1  0.4800280000000  0.5381760000000  0.4250710000000 1.0
C      1  0.4760660000000  0.5654410000000  0.4175050000000 1.0
C      1  0.5364350000000  0.5342550000000  0.5652390000000 1.0
C      1  0.4257290000000  0.4467320000000  0.4706080000000 1.0
C      1  0.5440710000000  0.5639850000000  0.4621600000000 1.0
C      1  0.4051130000000  0.4645480000000  0.4793520000000 1.0
C      1  0.4447440000000  0.4097670000000  0.4984770000000 1.0
C      1  0.5639410000000  0.5006360000000  0.4327350000000 1.0
C      1  0.4531620000000  0.4393690000000  0.4278320000000 1.0
C      1  0.4074660000000  0.4742580000000  0.5055970000000 1.0
C      1  0.5833280000000  0.5423820000000  0.4672280000000 1.0
C      1  0.4404460000000  0.5131430000000  0.4316180000000 1.0
C      1  0.5317190000000  0.5326520000000  0.4256040000000 1.0
C      1  0.4597980000000  0.5231300000000  0.5274090000000 1.0
C      1  0.3729270000000  0.5578880000000  0.5767670000000 1.0
C      1  0.5160690000000  0.4962750000000  0.4685810000000 1.0
C      1  0.4750420000000  0.5817890000000  0.4412590000000 1.0
C      1  0.5028720000000  0.5513760000000  0.5034380000000 1.0
C      1  0.5711450000000  0.4520410000000  0.5187340000000 1.0
C      1  0.4942100000000  0.4917460000000  0.5271130000000 1.0
C      1  0.4895410000000  0.4425340000000  0.5685550000000 1.0
C      1  0.5285880000000  0.4884020000000  0.5596450000000 1.0
C      1  0.4803560000000  0.6092090000000  0.4433740000000 1.0
C      1  0.4256250000000  0.4730100000000  0.5520290000000 1.0
C      1  0.4868540000000  0.5371260000000  0.4539120000000 1.0
C      1  0.5374980000000  0.5145150000000  0.4705320000000 1.0
C      1  0.4939610000000  0.5730520000000  0.4880680000000 1.0
C      1  0.4418200000000  0.5111690000000  0.4608610000000 1.0
C      1  0.4429880000000  0.4379960000000  0.4924150000000 1.0
C      1  0.4498190000000  0.4970730000000  0.5197090000000 1.0
C      1  0.4822150000000  0.4479230000000  0.4608050000000 1.0
C      1  0.4737070000000  0.5745430000000  0.3920260000000 1.0
C      1  0.6104280000000  0.3987280000000  0.5644230000000 1.0
C      1  0.6464880000000  0.4970330000000  0.4781790000000 1.0
C      1  0.5251850000000  0.4696080000000  0.4738340000000 1.0
C      1  0.5110060000000  0.4912660000000  0.4114980000000 1.0
C      1  0.5979270000000  0.4730830000000  0.4829670000000 1.0
C      1  0.4507410000000  0.4167850000000  0.5490830000000 1.0
C      1  0.4661600000000  0.4531120000000  0.5032970000000 1.0
C      1  0.4448530000000  0.4042330000000  0.5260910000000 1.0
C      1  0.3915910000000  0.5424340000000  0.5671790000000 1.0
C      1  0.4757060000000  0.5641060000000  0.4663620000000 1.0
C      1  0.4146070000000  0.5294980000000  0.5023950000000 1.0
C      1  0.4709370000000  0.4721050000000  0.4525920000000 1.0
C      1  0.5787780000000  0.5229600000000  0.4471500000000 1.0
C      1  0.5316450000000  0.4823640000000  0.6083920000000 1.0
C      1  0.6339940000000  0.5767080000000  0.5590330000000 1.0
C      1  0.5666280000000  0.5637570000000  0.4804850000000 1.0
C      1  0.5536090000000  0.5091210000000  0.5229750000000 1.0
C      1  0.5295690000000  0.5439770000000  0.5012150000000 1.0
C      1  0.4876210000000  0.4430630000000  0.4878180000000 1.0
C      1  0.5731830000000  0.4749820000000  0.4404640000000 1.0
C      1  0.5108590000000  0.4259430000000  0.4870780000000 1.0
C      1  0.4480540000000  0.5561520000000  0.4764280000000 1.0
C      1  0.5233860000000  0.4497570000000  0.5343950000000 1.0
C      1  0.5980160000000  0.5215840000000  0.5285010000000 1.0
C      1  0.4906890000000  0.5111470000000  0.4661210000000 1.0
C      1  0.5116070000000  0.5949880000000  0.4956940000000 1.0
C      1  0.4734010000000  0.4252010000000  0.4446610000000 1.0
C      1  0.4326590000000  0.5319970000000  0.4793580000000 1.0
C      1  0.5843470000000  0.4752730000000  0.5080280000000 1.0
C      1  0.4657930000000  0.4669980000000  0.4241700000000 1.0
C      1  0.5431220000000  0.5105990000000  0.5506890000000 1.0
C      1  0.5881830000000  0.4326760000000  0.4579300000000 1.0
C      1  0.6235980000000  0.4838820000000  0.4803820000000 1.0
C      1  0.5807550000000  0.5006560000000  0.5206880000000 1.0
C      1  0.4923160000000  0.4685000000000  0.5825370000000 1.0
C      1  0.4120370000000  0.5265820000000  0.5566590000000 1.0
C      1  0.5319050000000  0.4453910000000  0.4882620000000 1.0
C      1  0.3658340000000  0.4833470000000  0.4470250000000 1.0
C      1  0.4102960000000  0.5172340000000  0.5291460000000 1.0
C      1  0.5679510000000  0.5610160000000  0.5337750000000 1.0
C      1  0.4346930000000  0.5193460000000  0.5734910000000 1.0
C      1  0.5107370000000  0.4314930000000  0.5525120000000 1.0
C      1  0.5184300000000  0.4053960000000  0.5546750000000 1.0
C      1  0.4669950000000  0.4831190000000  0.5803240000000 1.0
C      1  0.5984000000000  0.4162640000000  0.5493440000000 1.0
C      1  0.4948670000000  0.6248510000000  0.4596920000000 1.0
C      1  0.4477970000000  0.4643570000000  0.5673450000000 1.0
C      1  0.5112910000000  0.5330570000000  0.5806910000000 1.0
C      1  0.3842570000000  0.4728170000000  0.4628870000000 1.0
C      1  0.5366160000000  0.5048940000000  0.4190030000000 1.0
C      1  0.5861750000000  0.4598760000000  0.4603980000000 1.0
C      1  0.4275360000000  0.4390220000000  0.4421050000000 1.0
C      1  0.4700960000000  0.5587440000000  0.5769480000000 1.0
C      1  0.4619600000000  0.5113660000000  0.5811040000000 1.0
C      1  0.5181330000000  0.4803670000000  0.5848520000000 1.0
C      1  0.4566350000000  0.3939450000000  0.4779210000000 1.0
C      1  0.4821420000000  0.5332610000000  0.5827640000000 1.0
C      1  0.4705250000000  0.4779550000000  0.5162600000000 1.0
C      1  0.6685270000000  0.5108250000000  0.4762710000000 1.0
C      1  0.4805460000000  0.4898120000000  0.4117230000000 1.0
C      1  0.5434860000000  0.4471500000000  0.5141100000000 1.0
C      1  0.5150580000000  0.4764220000000  0.5381070000000 1.0
C      1  0.4780930000000  0.4012000000000  0.4602520000000 1.0
C      1  0.4666040000000  0.4961730000000  0.4656280000000 1.0
C      1  0.4496830000000  0.5488960000000  0.5339000000000 1.0
C      1  0.4656330000000  0.5150320000000  0.4165560000000 1.0
C      1  0.4552370000000  0.5649480000000  0.5550740000000 1.0
C      1  0.5936060000000  0.5485320000000  0.5369310000000 1.0
C      1  0.4996320000000  0.5491260000000  0.5320680000000 1.0
C      1  0.5316250000000  0.5862380000000  0.5152350000000 1.0
C      1  0.5444380000000  0.5579790000000  0.5517730000000 1.0
C      1  0.3481140000000  0.4938050000000  0.4310190000000 1.0
C      1  0.5088060000000  0.6192020000000  0.4820080000000 1.0
C      1  0.6145650000000  0.5629710000000  0.5484060000000 1.0
C      1  0.4885140000000  0.5211360000000  0.5330670000000 1.0
C      1  0.5043500000000  0.4019230000000  0.4731500000000 1.0
C      1  0.4052580000000  0.4297230000000  0.4289270000000 1.0
C      1  0.5598350000000  0.5743550000000  0.5079970000000 1.0
C      1  0.4612890000000  0.4388710000000  0.5626070000000 1.0
END
