TITL C-247195-3186-201 0.000955093793482827 125000 -254.176474213262 0 0 44 (C1) n - 1
REM
REM in /home/nfs/bkarasulu/CARBON/AIRSS/Generating-Clusters/LCBOP/Only-C1/SD-CG/FIRE-HFTN
REM
REM
REM
REM
REM
REM ./C.cell (11c1c37f851c82e70ff6c80c92926a4b)
REM AIRSS Version 0.9.1 bugfix July 2018 build 013d7b7c2542+ Fri, 06 Jul 2018 19:26:36 +0100
REM compiler GCC version 9.2.1 20190827 (Red Hat 9.2.1-1)
REM options -cpp -mtune=generic -march=x86-64 -g -O0 -fpre-include=/usr/include/finclude/math-vector-fortran.h
REM seed 485535048 -537802108 1961114355 -1082475687 -389589989 -1432323527 -1287946647 309818232 1357504161 1843709170 -729517256 -477759326 -2037849108 -581171436 731322028 1115047535 1213592625 -453622208 46348840 -1636683826 1304210323 1715917196 991042765 2050340655 -266713969 -420264275 -1775421821 1572229824 -93896651 1504568663 -23414885 -792518717 -1435259810
REM
CELL 1.54180   50.00000   50.00000   50.00000   90.00000   90.00000   90.00000
LATT -1
SFAC C  
C      1  0.4690210000000  0.4783260000000  0.4444770000000 1.0
C      1  0.5007450000000  0.5000500000000  0.5061390000000 1.0
C      1  0.4688360000000  0.5702910000000  0.4910430000000 1.0
C      1  0.5438680000000  0.3894460000000  0.5506340000000 1.0
C      1  0.4397430000000  0.4878600000000  0.4942690000000 1.0
C      1  0.5341170000000  0.4389400000000  0.5343770000000 1.0
C      1  0.4850320000000  0.4949650000000  0.4278530000000 1.0
C      1  0.4768850000000  0.4668340000000  0.4693150000000 1.0
C      1  0.4742300000000  0.5724880000000  0.4636210000000 1.0
C      1  0.5244890000000  0.4886530000000  0.5154590000000 1.0
C      1  0.4751660000000  0.5613450000000  0.4394810000000 1.0
C      1  0.4678410000000  0.4572120000000  0.5174170000000 1.0
C      1  0.5076370000000  0.5625110000000  0.5266810000000 1.0
C      1  0.5898820000000  0.4992690000000  0.4907650000000 1.0
C      1  0.5054250000000  0.4646920000000  0.4709170000000 1.0
C      1  0.4768400000000  0.4475960000000  0.5643000000000 1.0
C      1  0.4684970000000  0.4935210000000  0.5497150000000 1.0
C      1  0.5194130000000  0.5353030000000  0.5877110000000 1.0
C      1  0.5626220000000  0.5002980000000  0.4889200000000 1.0
C      1  0.4632600000000  0.5096860000000  0.3871510000000 1.0
C      1  0.5284870000000  0.5414260000000  0.6113610000000 1.0
C      1  0.4443510000000  0.5585830000000  0.4984100000000 1.0
C      1  0.4892400000000  0.5098200000000  0.5595260000000 1.0
C      1  0.4893300000000  0.5725870000000  0.5101150000000 1.0
C      1  0.5484070000000  0.3650870000000  0.5587390000000 1.0
C      1  0.4737540000000  0.5153810000000  0.4117250000000 1.0
C      1  0.5441620000000  0.5298940000000  0.5266000000000 1.0
C      1  0.5099570000000  0.5288220000000  0.5622170000000 1.0
C      1  0.5494320000000  0.4951820000000  0.4643060000000 1.0
C      1  0.5216710000000  0.5417360000000  0.5393940000000 1.0
C      1  0.4356370000000  0.5094020000000  0.5122470000000 1.0
C      1  0.4738710000000  0.5415740000000  0.4217770000000 1.0
C      1  0.4600820000000  0.4679800000000  0.4923590000000 1.0
C      1  0.5276340000000  0.4633720000000  0.5264610000000 1.0
C      1  0.4316400000000  0.5357260000000  0.5036830000000 1.0
C      1  0.5558700000000  0.5099960000000  0.4400910000000 1.0
C      1  0.5467530000000  0.5059980000000  0.5117790000000 1.0
C      1  0.5129910000000  0.4940240000000  0.4324980000000 1.0
C      1  0.4716250000000  0.4654720000000  0.5443250000000 1.0
C      1  0.5236210000000  0.4820130000000  0.4577710000000 1.0
C      1  0.4455530000000  0.5054440000000  0.5384150000000 1.0
C      1  0.5392170000000  0.4142120000000  0.5424130000000 1.0
C      1  0.4882020000000  0.5176210000000  0.4914790000000 1.0
C      1  0.5349610000000  0.5093630000000  0.4220630000000 1.0
END
