TITL C-247201-3759-549 1.33123991280915 125000 -352.62692047775 0 0 60 (C1) n - 1
REM
REM in /home/nfs/bkarasulu/CARBON/AIRSS/Generating-Clusters/LCBOP/Only-C1/SD-CG/FIRE-HFTN
REM
REM
REM
REM
REM
REM ./C.cell (11c1c37f851c82e70ff6c80c92926a4b)
REM AIRSS Version 0.9.1 bugfix July 2018 build 013d7b7c2542+ Fri, 06 Jul 2018 19:26:36 +0100
REM compiler GCC version 9.2.1 20190827 (Red Hat 9.2.1-1)
REM options -cpp -mtune=generic -march=x86-64 -g -O0 -fpre-include=/usr/include/finclude/math-vector-fortran.h
REM seed -1420226334 1896771659 -1065492162 51581937 -1603709175 980091053 1528801568 1182135408 -1535405578 1478090936 -1603563414 -2092712040 390215772 1854253795 -828867170 -309051947 -643316896 289855299 -588266084 2081123190 -1870993496 -1989140494 1450470185 932055309 -1863872964 1219751003 -1466104858 -404021849 -908715278 -1308547151 89099088 -68798145 -1395578954
REM
CELL 1.54180   50.00000   50.00000   50.00000   90.00000   90.00000   90.00000
LATT -1
SFAC C  
C      1  0.4963160000000  0.4922830000000  0.4736600000000 1.0
C      1  0.4488010000000  0.4555950000000  0.5038140000000 1.0
C      1  0.4353130000000  0.5501050000000  0.4658210000000 1.0
C      1  0.5413120000000  0.4415930000000  0.5297310000000 1.0
C      1  0.5736190000000  0.5054650000000  0.4722260000000 1.0
C      1  0.5360400000000  0.4611080000000  0.5498920000000 1.0
C      1  0.4313970000000  0.5861590000000  0.5036910000000 1.0
C      1  0.5586870000000  0.3470740000000  0.4814470000000 1.0
C      1  0.5114640000000  0.5374450000000  0.3662160000000 1.0
C      1  0.5383280000000  0.5334670000000  0.5687200000000 1.0
C      1  0.5727250000000  0.4914940000000  0.5411210000000 1.0
C      1  0.4954410000000  0.3933660000000  0.4915490000000 1.0
C      1  0.4695990000000  0.4908640000000  0.5573970000000 1.0
C      1  0.5455420000000  0.4878700000000  0.5470330000000 1.0
C      1  0.5403890000000  0.4495360000000  0.5028580000000 1.0
C      1  0.5136610000000  0.5457010000000  0.5774040000000 1.0
C      1  0.4652170000000  0.5007870000000  0.5094480000000 1.0
C      1  0.4534360000000  0.5501340000000  0.4444720000000 1.0
C      1  0.4989980000000  0.5505460000000  0.4620240000000 1.0
C      1  0.5553230000000  0.5260120000000  0.4789510000000 1.0
C      1  0.5295430000000  0.5108630000000  0.5509470000000 1.0
C      1  0.5567190000000  0.5514720000000  0.5567800000000 1.0
C      1  0.4878720000000  0.4771430000000  0.4520040000000 1.0
C      1  0.5505660000000  0.5644840000000  0.5337600000000 1.0
C      1  0.5373660000000  0.3617990000000  0.4843110000000 1.0
C      1  0.4908730000000  0.5461850000000  0.4137800000000 1.0
C      1  0.4810640000000  0.5492110000000  0.4397130000000 1.0
C      1  0.4942980000000  0.5426350000000  0.5581720000000 1.0
C      1  0.5204180000000  0.4542310000000  0.5721130000000 1.0
C      1  0.4964960000000  0.4584180000000  0.5831970000000 1.0
C      1  0.4898480000000  0.5402560000000  0.4893870000000 1.0
C      1  0.4698940000000  0.5593650000000  0.5009240000000 1.0
C      1  0.4489020000000  0.5943450000000  0.5236230000000 1.0
C      1  0.4605820000000  0.4321020000000  0.5004970000000 1.0
C      1  0.5159130000000  0.3770380000000  0.4874930000000 1.0
C      1  0.5138460000000  0.5353310000000  0.5096480000000 1.0
C      1  0.4766980000000  0.4115180000000  0.4961660000000 1.0
C      1  0.5011670000000  0.5418820000000  0.3897510000000 1.0
C      1  0.5323430000000  0.5165040000000  0.4938050000000 1.0
C      1  0.4432330000000  0.5645120000000  0.4885640000000 1.0
C      1  0.5420210000000  0.4703900000000  0.4844860000000 1.0
C      1  0.4095250000000  0.5093830000000  0.4838630000000 1.0
C      1  0.4433740000000  0.4829430000000  0.5062370000000 1.0
C      1  0.3981100000000  0.4845510000000  0.5235230000000 1.0
C      1  0.4788110000000  0.5037750000000  0.5342320000000 1.0
C      1  0.4678940000000  0.4447310000000  0.4157950000000 1.0
C      1  0.5980800000000  0.4950590000000  0.5362780000000 1.0
C      1  0.5476570000000  0.4158620000000  0.5364830000000 1.0
C      1  0.4792930000000  0.5112500000000  0.4870000000000 1.0
C      1  0.5030170000000  0.5218390000000  0.5362550000000 1.0
C      1  0.4164990000000  0.4921050000000  0.5047590000000 1.0
C      1  0.4719450000000  0.5788710000000  0.5224100000000 1.0
C      1  0.5223490000000  0.4910590000000  0.4847060000000 1.0
C      1  0.5669250000000  0.4790940000000  0.4737010000000 1.0
C      1  0.5501880000000  0.5493450000000  0.4641910000000 1.0
C      1  0.5257220000000  0.5589310000000  0.4583030000000 1.0
C      1  0.4754040000000  0.4735810000000  0.5768510000000 1.0
C      1  0.5301180000000  0.5597870000000  0.5166840000000 1.0
C      1  0.4157690000000  0.5304100000000  0.4688070000000 1.0
C      1  0.4780510000000  0.4611340000000  0.4333250000000 1.0
END
