TITL C-247198-3593-113 313.837651313251 125000 -778.584572259798 0 0 128 (C1) n - 1
REM
REM in /home/nfs/bkarasulu/CARBON/AIRSS/Generating-Clusters/LCBOP/Only-C1/SD-CG/FIRE-HFTN
REM
REM
REM
REM
REM
REM ./C.cell (11c1c37f851c82e70ff6c80c92926a4b)
REM AIRSS Version 0.9.1 bugfix July 2018 build 013d7b7c2542+ Fri, 06 Jul 2018 19:26:36 +0100
REM compiler GCC version 9.2.1 20190827 (Red Hat 9.2.1-1)
REM options -cpp -mtune=generic -march=x86-64 -g -O0 -fpre-include=/usr/include/finclude/math-vector-fortran.h
REM seed -642623777 1970455963 -1122380916 -526759847 -710598393 -182457713 -376435216 194728657 -809282207 -871718320 -862059594 -1842697039 1827882201 223602167 1079891006 -1940122622 288424618 1472492932 1131801903 -638660594 -1162066852 106048908 1199599900 -329644729 -960436752 2087588349 -2095402664 499653515 452837609 -1318127674 1750366166 2008887795 -1510762807
REM
CELL 1.54180   50.00000   50.00000   50.00000   90.00000   90.00000   90.00000
LATT -1
SFAC C  
C      1  0.5720680000000  0.4798680000000  0.5453760000000 1.0
C      1  0.4773790000000  0.4962730000000  0.6006090000000 1.0
C      1  0.5259930000000  0.4906270000000  0.5999550000000 1.0
C      1  0.5741930000000  0.4245880000000  0.3999380000000 1.0
C      1  0.3934100000000  0.5391850000000  0.4544750000000 1.0
C      1  0.4089470000000  0.4915560000000  0.4548870000000 1.0
C      1  0.5367020000000  0.4421370000000  0.5441610000000 1.0
C      1  0.5725560000000  0.5841030000000  0.4565440000000 1.0
C      1  0.4736490000000  0.4004160000000  0.4929490000000 1.0
C      1  0.5378520000000  0.4720280000000  0.3809170000000 1.0
C      1  0.4548120000000  0.4838620000000  0.5475320000000 1.0
C      1  0.5015490000000  0.4013560000000  0.4982820000000 1.0
C      1  0.5144230000000  0.4130680000000  0.4755670000000 1.0
C      1  0.4270200000000  0.4334770000000  0.5629780000000 1.0
C      1  0.4786330000000  0.5321330000000  0.4834980000000 1.0
C      1  0.4968320000000  0.5418380000000  0.4201190000000 1.0
C      1  0.4691640000000  0.4711390000000  0.5252810000000 1.0
C      1  0.5934100000000  0.5150120000000  0.4498360000000 1.0
C      1  0.5089730000000  0.4082900000000  0.5244090000000 1.0
C      1  0.5597900000000  0.5354610000000  0.5937760000000 1.0
C      1  0.5002800000000  0.5960260000000  0.4747580000000 1.0
C      1  0.5114930000000  0.4360830000000  0.5303260000000 1.0
C      1  0.5020250000000  0.5060690000000  0.5149580000000 1.0
C      1  0.4512050000000  0.5161590000000  0.4330160000000 1.0
C      1  0.5840930000000  0.5583730000000  0.5304260000000 1.0
C      1  0.5715410000000  0.5206770000000  0.5725440000000 1.0
C      1  0.5355150000000  0.5179710000000  0.3975710000000 1.0
C      1  0.4438750000000  0.4677500000000  0.4336260000000 1.0
C      1  0.5200520000000  0.4888060000000  0.4590340000000 1.0
C      1  0.4716590000000  0.5925490000000  0.4710830000000 1.0
C      1  0.4869410000000  0.5740690000000  0.5706750000000 1.0
C      1  0.5038460000000  0.4450650000000  0.5792090000000 1.0
C      1  0.4089140000000  0.5592660000000  0.4665630000000 1.0
C      1  0.4377560000000  0.6023450000000  0.5210020000000 1.0
C      1  0.5586770000000  0.5218750000000  0.4822800000000 1.0
C      1  0.5250100000000  0.5599900000000  0.4944180000000 1.0
C      1  0.5802590000000  0.4410870000000  0.4201230000000 1.0
C      1  0.4576220000000  0.5854670000000  0.5340610000000 1.0
C      1  0.4346080000000  0.4219000000000  0.4960350000000 1.0
C      1  0.5428530000000  0.4767640000000  0.5823380000000 1.0
C      1  0.4541470000000  0.5360930000000  0.5453890000000 1.0
C      1  0.4434200000000  0.4282500000000  0.4686080000000 1.0
C      1  0.4544740000000  0.4091100000000  0.5127820000000 1.0
C      1  0.5094760000000  0.5847600000000  0.4485030000000 1.0
C      1  0.5496690000000  0.5562130000000  0.4169580000000 1.0
C      1  0.5459080000000  0.4922100000000  0.3984610000000 1.0
C      1  0.3875900000000  0.5108580000000  0.4923470000000 1.0
C      1  0.5141360000000  0.4805890000000  0.5125910000000 1.0
C      1  0.5534930000000  0.4305830000000  0.4996470000000 1.0
C      1  0.5083910000000  0.5360310000000  0.5982640000000 1.0
C      1  0.4101420000000  0.4646330000000  0.4676360000000 1.0
C      1  0.5356320000000  0.5653010000000  0.5535580000000 1.0
C      1  0.4016900000000  0.4505250000000  0.5198480000000 1.0
C      1  0.4560360000000  0.4297770000000  0.5636830000000 1.0
C      1  0.5569400000000  0.4939940000000  0.5256840000000 1.0
C      1  0.4810960000000  0.5139850000000  0.4248320000000 1.0
C      1  0.5992670000000  0.4690540000000  0.5091510000000 1.0
C      1  0.4328480000000  0.4990450000000  0.6119290000000 1.0
C      1  0.4327070000000  0.4949390000000  0.4386820000000 1.0
C      1  0.4614810000000  0.5428160000000  0.6007690000000 1.0
C      1  0.4681830000000  0.4135550000000  0.4664750000000 1.0
C      1  0.4277410000000  0.4766580000000  0.5509010000000 1.0
C      1  0.4749500000000  0.4464970000000  0.5803520000000 1.0
C      1  0.4328370000000  0.4956750000000  0.5036790000000 1.0
C      1  0.4578080000000  0.5465130000000  0.4707790000000 1.0
C      1  0.4965390000000  0.4597190000000  0.5223560000000 1.0
C      1  0.5686540000000  0.4657330000000  0.4604380000000 1.0
C      1  0.5729830000000  0.4650980000000  0.4326290000000 1.0
C      1  0.4862110000000  0.5531940000000  0.5906220000000 1.0
C      1  0.5657370000000  0.4908940000000  0.5707850000000 1.0
C      1  0.5740250000000  0.5644580000000  0.5035970000000 1.0
C      1  0.5676290000000  0.4886040000000  0.4172980000000 1.0
C      1  0.5342140000000  0.4332720000000  0.4789090000000 1.0
C      1  0.4555460000000  0.5158310000000  0.6065110000000 1.0
C      1  0.5602680000000  0.4391600000000  0.5263130000000 1.0
C      1  0.4786510000000  0.5089660000000  0.4986530000000 1.0
C      1  0.5309620000000  0.5331780000000  0.4497700000000 1.0
C      1  0.5758580000000  0.5354720000000  0.5467750000000 1.0
C      1  0.5562060000000  0.4719350000000  0.4835120000000 1.0
C      1  0.4937800000000  0.4206930000000  0.4557490000000 1.0
C      1  0.4599520000000  0.5110980000000  0.5523640000000 1.0
C      1  0.4963500000000  0.4990990000000  0.4468300000000 1.0
C      1  0.5416940000000  0.4807480000000  0.5063810000000 1.0
C      1  0.5353850000000  0.5435580000000  0.6018310000000 1.0
C      1  0.4320410000000  0.5488990000000  0.4815730000000 1.0
C      1  0.5095510000000  0.5238120000000  0.5350990000000 1.0
C      1  0.4781250000000  0.4902870000000  0.4047230000000 1.0
C      1  0.4299070000000  0.5592630000000  0.5082570000000 1.0
C      1  0.5240730000000  0.5417710000000  0.4083720000000 1.0
C      1  0.4900730000000  0.5649890000000  0.4366890000000 1.0
C      1  0.4630110000000  0.4684210000000  0.4124820000000 1.0
C      1  0.5210810000000  0.4598390000000  0.4596120000000 1.0
C      1  0.5305630000000  0.4530950000000  0.5701880000000 1.0
C      1  0.5599280000000  0.5208390000000  0.5282220000000 1.0
C      1  0.4001360000000  0.4561310000000  0.4931540000000 1.0
C      1  0.4327490000000  0.4503090000000  0.4544880000000 1.0
C      1  0.5585070000000  0.5764290000000  0.4347150000000 1.0
C      1  0.4384820000000  0.4723760000000  0.6069330000000 1.0
C      1  0.5857030000000  0.5115640000000  0.4771600000000 1.0
C      1  0.5990500000000  0.4918750000000  0.4937000000000 1.0
C      1  0.4477520000000  0.5582310000000  0.5301560000000 1.0
C      1  0.5126110000000  0.5864670000000  0.4992660000000 1.0
C      1  0.5689210000000  0.5357100000000  0.4120000000000 1.0
C      1  0.5823800000000  0.4579980000000  0.5300970000000 1.0
C      1  0.4654760000000  0.4687130000000  0.5965230000000 1.0
C      1  0.5038630000000  0.5442200000000  0.4843480000000 1.0
C      1  0.5144610000000  0.3887390000000  0.5435320000000 1.0
C      1  0.4837630000000  0.5869100000000  0.5444070000000 1.0
C      1  0.5035320000000  0.5073330000000  0.6003140000000 1.0
C      1  0.4668810000000  0.5684750000000  0.4549630000000 1.0
C      1  0.4040090000000  0.5847040000000  0.4801090000000 1.0
C      1  0.5415870000000  0.4471500000000  0.3718840000000 1.0
C      1  0.4189530000000  0.5873080000000  0.5048160000000 1.0
C      1  0.5815660000000  0.5815320000000  0.4820990000000 1.0
C      1  0.4612160000000  0.4143860000000  0.5397800000000 1.0
C      1  0.5516430000000  0.5481330000000  0.4947720000000 1.0
C      1  0.3922200000000  0.5125720000000  0.4643530000000 1.0
C      1  0.4599290000000  0.4885590000000  0.5032910000000 1.0
C      1  0.5801270000000  0.5135350000000  0.4248030000000 1.0
C      1  0.5231480000000  0.5419230000000  0.5489800000000 1.0
C      1  0.5572260000000  0.4265740000000  0.3791940000000 1.0
C      1  0.5073770000000  0.5925330000000  0.5275650000000 1.0
C      1  0.4143950000000  0.4523750000000  0.5453730000000 1.0
C      1  0.5016150000000  0.4453360000000  0.4443550000000 1.0
C      1  0.5377780000000  0.5111570000000  0.4649680000000 1.0
C      1  0.5191670000000  0.3715920000000  0.5625800000000 1.0
C      1  0.5309380000000  0.5898450000000  0.5433960000000 1.0
C      1  0.4082030000000  0.5050120000000  0.5087410000000 1.0
END
