TITL C-247202-1916-365 3847.83865639508 125000 -798.452059188121 0 0 134 (C1) n - 1
REM
REM in /home/nfs/bkarasulu/CARBON/AIRSS/Generating-Clusters/LCBOP/Only-C1/SD-CG/FIRE-HFTN
REM
REM
REM
REM
REM
REM ./C.cell (11c1c37f851c82e70ff6c80c92926a4b)
REM AIRSS Version 0.9.1 bugfix July 2018 build 013d7b7c2542+ Fri, 06 Jul 2018 19:26:36 +0100
REM compiler GCC version 9.2.1 20190827 (Red Hat 9.2.1-1)
REM options -cpp -mtune=generic -march=x86-64 -g -O0 -fpre-include=/usr/include/finclude/math-vector-fortran.h
REM seed -959436427 -1617683304 2060337074 47368902 1073566551 2030521288 1587250311 2139118374 -283316217 1740287886 -1252487488 -1999432070 214217171 -1396181252 585211771 1305725352 -249916522 -1959467492 -1854663736 183816028 454088955 -1675376459 546415636 -1081451771 -414393459 1084931424 645756190 382439949 1379807308 10600555 1424385176 -1607104524 -1162294949
REM
CELL 1.54180   50.00000   50.00000   50.00000   90.00000   90.00000   90.00000
LATT -1
SFAC C  
C      1  0.4528280000000  0.4898230000000  0.5435160000000 1.0
C      1  0.5248480000000  0.4736690000000  0.5485140000000 1.0
C      1  0.5699890000000  0.5102050000000  0.5159080000000 1.0
C      1  0.3972620000000  0.5653210000000  0.4858740000000 1.0
C      1  0.4145460000000  0.5315590000000  0.4308250000000 1.0
C      1  0.4781900000000  0.6422760000000  0.4515510000000 1.0
C      1  0.4789050000000  0.6207510000000  0.4684280000000 1.0
C      1  0.4848790000000  0.3904050000000  0.4628880000000 1.0
C      1  0.5059800000000  0.4911910000000  0.5573160000000 1.0
C      1  0.4049010000000  0.4834020000000  0.5437210000000 1.0
C      1  0.5710180000000  0.5375320000000  0.5564540000000 1.0
C      1  0.5103730000000  0.5992300000000  0.5212740000000 1.0
C      1  0.4966960000000  0.6061420000000  0.5449780000000 1.0
C      1  0.4391950000000  0.6116250000000  0.5036600000000 1.0
C      1  0.5332300000000  0.5252350000000  0.5801810000000 1.0
C      1  0.4827560000000  0.4646260000000  0.3843660000000 1.0
C      1  0.4596210000000  0.5307300000000  0.4750350000000 1.0
C      1  0.4942520000000  0.4163600000000  0.4682310000000 1.0
C      1  0.4410480000000  0.5432520000000  0.4938080000000 1.0
C      1  0.5844980000000  0.5571090000000  0.4863730000000 1.0
C      1  0.5622630000000  0.4039340000000  0.4951020000000 1.0
C      1  0.4743300000000  0.4457300000000  0.4050940000000 1.0
C      1  0.4119850000000  0.5443660000000  0.4952960000000 1.0
C      1  0.6015700000000  0.4856970000000  0.4952500000000 1.0
C      1  0.4985630000000  0.5570160000000  0.4085250000000 1.0
C      1  0.4675260000000  0.4891450000000  0.5951480000000 1.0
C      1  0.5605470000000  0.5604060000000  0.5704630000000 1.0
C      1  0.5866150000000  0.4414020000000  0.5152740000000 1.0
C      1  0.4573280000000  0.6150330000000  0.4852560000000 1.0
C      1  0.4616220000000  0.4986330000000  0.4386650000000 1.0
C      1  0.4023550000000  0.4880830000000  0.4625070000000 1.0
C      1  0.5542490000000  0.4904280000000  0.4990300000000 1.0
C      1  0.4625750000000  0.4539160000000  0.4597820000000 1.0
C      1  0.6020560000000  0.5365270000000  0.4783380000000 1.0
C      1  0.4831480000000  0.5184980000000  0.4842990000000 1.0
C      1  0.4380690000000  0.4539070000000  0.4435560000000 1.0
C      1  0.4365110000000  0.4960860000000  0.5000110000000 1.0
C      1  0.4459910000000  0.5660970000000  0.5829310000000 1.0
C      1  0.5290920000000  0.5775130000000  0.5276450000000 1.0
C      1  0.4188760000000  0.4497530000000  0.5100280000000 1.0
C      1  0.5672380000000  0.5157790000000  0.4463540000000 1.0
C      1  0.5083970000000  0.4562490000000  0.5988120000000 1.0
C      1  0.5164830000000  0.4353730000000  0.4651180000000 1.0
C      1  0.5200810000000  0.4359950000000  0.4358680000000 1.0
C      1  0.5477280000000  0.6021260000000  0.4947180000000 1.0
C      1  0.5967880000000  0.4515680000000  0.5405710000000 1.0
C      1  0.4482280000000  0.5361380000000  0.5203820000000 1.0
C      1  0.4904500000000  0.5420670000000  0.5308650000000 1.0
C      1  0.4110940000000  0.4388730000000  0.4823240000000 1.0
C      1  0.4575720000000  0.5671660000000  0.4308040000000 1.0
C      1  0.5183970000000  0.6059120000000  0.4931220000000 1.0
C      1  0.5555000000000  0.4692050000000  0.5876300000000 1.0
C      1  0.5305300000000  0.4759040000000  0.6026840000000 1.0
C      1  0.5095400000000  0.5102140000000  0.5784610000000 1.0
C      1  0.4408020000000  0.5437180000000  0.4335790000000 1.0
C      1  0.5019870000000  0.6039030000000  0.4692350000000 1.0
C      1  0.5379810000000  0.5471360000000  0.4833220000000 1.0
C      1  0.5892140000000  0.4463760000000  0.3967680000000 1.0
C      1  0.5064460000000  0.5870170000000  0.4456510000000 1.0
C      1  0.5930960000000  0.4575060000000  0.4912500000000 1.0
C      1  0.4862090000000  0.5726970000000  0.4289820000000 1.0
C      1  0.5142050000000  0.5745110000000  0.5818810000000 1.0
C      1  0.5312990000000  0.5345040000000  0.5084600000000 1.0
C      1  0.5166960000000  0.5085730000000  0.5111390000000 1.0
C      1  0.5931980000000  0.4944240000000  0.5223640000000 1.0
C      1  0.4886820000000  0.5088320000000  0.5976010000000 1.0
C      1  0.5235250000000  0.4081160000000  0.5468170000000 1.0
C      1  0.4139590000000  0.4596070000000  0.4601710000000 1.0
C      1  0.4470220000000  0.5460390000000  0.5643620000000 1.0
C      1  0.4166850000000  0.4115630000000  0.4763740000000 1.0
C      1  0.5123590000000  0.5335390000000  0.4011380000000 1.0
C      1  0.5193310000000  0.5409610000000  0.4634260000000 1.0
C      1  0.4674900000000  0.4413490000000  0.5742540000000 1.0
C      1  0.3999460000000  0.5209960000000  0.5081480000000 1.0
C      1  0.4765460000000  0.4783260000000  0.4529110000000 1.0
C      1  0.5448410000000  0.4997240000000  0.4548230000000 1.0
C      1  0.5196980000000  0.4574710000000  0.4873010000000 1.0
C      1  0.4311830000000  0.4716110000000  0.5503310000000 1.0
C      1  0.5512000000000  0.4159290000000  0.5409510000000 1.0
C      1  0.3934670000000  0.5001780000000  0.4880450000000 1.0
C      1  0.4664720000000  0.4628510000000  0.5076500000000 1.0
C      1  0.5241410000000  0.4327880000000  0.5902090000000 1.0
C      1  0.4340790000000  0.3921480000000  0.4697450000000 1.0
C      1  0.5608380000000  0.5594310000000  0.4709940000000 1.0
C      1  0.5591650000000  0.5141740000000  0.5695700000000 1.0
C      1  0.5558700000000  0.5633130000000  0.4431580000000 1.0
C      1  0.5752580000000  0.5613210000000  0.5134040000000 1.0
C      1  0.4404640000000  0.4693890000000  0.5001700000000 1.0
C      1  0.4795340000000  0.4611250000000  0.5919340000000 1.0
C      1  0.5265900000000  0.4831030000000  0.5033050000000 1.0
C      1  0.5342980000000  0.5547950000000  0.5816500000000 1.0
C      1  0.4797650000000  0.4869830000000  0.5489400000000 1.0
C      1  0.5661600000000  0.4205410000000  0.5166170000000 1.0
C      1  0.4770370000000  0.4918770000000  0.3919090000000 1.0
C      1  0.4546510000000  0.5238300000000  0.4485450000000 1.0
C      1  0.4587980000000  0.3828890000000  0.4642900000000 1.0
C      1  0.4064280000000  0.5119030000000  0.5416230000000 1.0
C      1  0.5673280000000  0.4408400000000  0.4098030000000 1.0
C      1  0.5166690000000  0.4105560000000  0.5747220000000 1.0
C      1  0.4902940000000  0.5187320000000  0.5115130000000 1.0
C      1  0.5175900000000  0.5520670000000  0.5273530000000 1.0
C      1  0.5726110000000  0.5367280000000  0.5282460000000 1.0
C      1  0.5005820000000  0.4075900000000  0.5308290000000 1.0
C      1  0.5399640000000  0.5323540000000  0.4082450000000 1.0
C      1  0.4736990000000  0.4365270000000  0.5043430000000 1.0
C      1  0.4339260000000  0.4438300000000  0.5387090000000 1.0
C      1  0.4492070000000  0.4590900000000  0.4165470000000 1.0
C      1  0.5341280000000  0.5815390000000  0.4382060000000 1.0
C      1  0.4731170000000  0.4330950000000  0.4765370000000 1.0
C      1  0.5694460000000  0.4870130000000  0.5688640000000 1.0
C      1  0.5119120000000  0.5150750000000  0.4627100000000 1.0
C      1  0.5027970000000  0.4772740000000  0.4459560000000 1.0
C      1  0.5589270000000  0.5379130000000  0.4290100000000 1.0
C      1  0.5741990000000  0.4586930000000  0.4698280000000 1.0
C      1  0.4640030000000  0.5474950000000  0.5409170000000 1.0
C      1  0.4765190000000  0.4218510000000  0.5281010000000 1.0
C      1  0.5944520000000  0.5107580000000  0.4701710000000 1.0
C      1  0.5005870000000  0.5941080000000  0.5691470000000 1.0
C      1  0.4458190000000  0.5084950000000  0.5231610000000 1.0
C      1  0.4961060000000  0.4341770000000  0.4195970000000 1.0
C      1  0.5452110000000  0.4370510000000  0.4238930000000 1.0
C      1  0.5642890000000  0.4246800000000  0.5648520000000 1.0
C      1  0.6158860000000  0.4384750000000  0.5550840000000 1.0
C      1  0.4301230000000  0.5219910000000  0.5669780000000 1.0
C      1  0.5553280000000  0.5824110000000  0.5155060000000 1.0
C      1  0.4560450000000  0.4885500000000  0.4123040000000 1.0
C      1  0.4964700000000  0.5121750000000  0.3915420000000 1.0
C      1  0.4045610000000  0.5079840000000  0.4412140000000 1.0
C      1  0.4582040000000  0.4311280000000  0.5487120000000 1.0
C      1  0.5521000000000  0.4406730000000  0.5843940000000 1.0
C      1  0.5885400000000  0.4785150000000  0.5465920000000 1.0
C      1  0.3953400000000  0.4655950000000  0.5225960000000 1.0
C      1  0.4420420000000  0.5017930000000  0.5861670000000 1.0
C      1  0.5570500000000  0.4809350000000  0.4718340000000 1.0
END
