TITL C-247195-3186-135 0.0873857757494575 125000 -858.794769534429 0 0 142 (C1) n - 1
REM
REM in /home/nfs/bkarasulu/CARBON/AIRSS/Generating-Clusters/LCBOP/Only-C1/SD-CG/FIRE-HFTN
REM
REM
REM
REM
REM
REM ./C.cell (11c1c37f851c82e70ff6c80c92926a4b)
REM AIRSS Version 0.9.1 bugfix July 2018 build 013d7b7c2542+ Fri, 06 Jul 2018 19:26:36 +0100
REM compiler GCC version 9.2.1 20190827 (Red Hat 9.2.1-1)
REM options -cpp -mtune=generic -march=x86-64 -g -O0 -fpre-include=/usr/include/finclude/math-vector-fortran.h
REM seed 1400223543 1888895531 -1789172700 -500812907 -4701331 -1599012148 -1195064599 389828443 1837066981 -497590132 597090508 -1189245405 97446424 1535391939 1366392722 2122420277 271229961 -14772869 1754316041 -391974443 -343864286 183040149 2043525659 -673433375 1665711950 -623050201 217755813 -2002578688 260631444 -1952135835 -1654291864 942667101 708484469
REM
CELL 1.54180   50.00000   50.00000   50.00000   90.00000   90.00000   90.00000
LATT -1
SFAC C  
C      1  0.4893500000000  0.4468950000000  0.5045300000000 1.0
C      1  0.4997310000000  0.3780030000000  0.4640450000000 1.0
C      1  0.3825770000000  0.5601690000000  0.5173300000000 1.0
C      1  0.5334390000000  0.4857010000000  0.5904360000000 1.0
C      1  0.5328240000000  0.3842690000000  0.4298330000000 1.0
C      1  0.3897990000000  0.4419280000000  0.5507080000000 1.0
C      1  0.4313410000000  0.5043890000000  0.5591870000000 1.0
C      1  0.4951750000000  0.4176660000000  0.4387330000000 1.0
C      1  0.4578370000000  0.4878510000000  0.5916080000000 1.0
C      1  0.4873550000000  0.5786510000000  0.4615810000000 1.0
C      1  0.5387670000000  0.5104800000000  0.5113290000000 1.0
C      1  0.5984730000000  0.5863800000000  0.4862350000000 1.0
C      1  0.4218040000000  0.5491670000000  0.5432660000000 1.0
C      1  0.4114150000000  0.4551850000000  0.5394240000000 1.0
C      1  0.4792900000000  0.5171440000000  0.4235260000000 1.0
C      1  0.5957620000000  0.5265290000000  0.5216530000000 1.0
C      1  0.5361920000000  0.4927970000000  0.4498060000000 1.0
C      1  0.6164810000000  0.5203720000000  0.4770740000000 1.0
C      1  0.6063270000000  0.5046200000000  0.4543580000000 1.0
C      1  0.4895950000000  0.6030310000000  0.4756300000000 1.0
C      1  0.4982810000000  0.4479540000000  0.5943830000000 1.0
C      1  0.5423430000000  0.3957330000000  0.4913270000000 1.0
C      1  0.5261040000000  0.3704480000000  0.4538990000000 1.0
C      1  0.4242130000000  0.5524450000000  0.5716910000000 1.0
C      1  0.4042740000000  0.5033370000000  0.4759230000000 1.0
C      1  0.5259960000000  0.5726120000000  0.4250530000000 1.0
C      1  0.4967610000000  0.4863510000000  0.4764350000000 1.0
C      1  0.5549000000000  0.4879600000000  0.4704140000000 1.0
C      1  0.4958500000000  0.5401880000000  0.4967200000000 1.0
C      1  0.5594650000000  0.5117350000000  0.4892460000000 1.0
C      1  0.5776870000000  0.4769800000000  0.5695020000000 1.0
C      1  0.4521510000000  0.4722280000000  0.5302630000000 1.0
C      1  0.3983030000000  0.5401580000000  0.5282280000000 1.0
C      1  0.5576440000000  0.5684080000000  0.6091160000000 1.0
C      1  0.4386170000000  0.4577560000000  0.5521110000000 1.0
C      1  0.4950400000000  0.4734200000000  0.5015190000000 1.0
C      1  0.5861460000000  0.4586020000000  0.5220250000000 1.0
C      1  0.5252490000000  0.4220400000000  0.4018610000000 1.0
C      1  0.5833400000000  0.5065760000000  0.5058380000000 1.0
C      1  0.5575170000000  0.5394490000000  0.4794370000000 1.0
C      1  0.5822170000000  0.4634740000000  0.4324500000000 1.0
C      1  0.4936960000000  0.6327960000000  0.5463690000000 1.0
C      1  0.4150170000000  0.4686540000000  0.4384150000000 1.0
C      1  0.5510870000000  0.5854720000000  0.4648990000000 1.0
C      1  0.5057690000000  0.5853080000000  0.5164330000000 1.0
C      1  0.5279310000000  0.4290420000000  0.5631340000000 1.0
C      1  0.4811380000000  0.4708360000000  0.4364940000000 1.0
C      1  0.3477740000000  0.4192640000000  0.5726680000000 1.0
C      1  0.4876760000000  0.5420670000000  0.5575790000000 1.0
C      1  0.5106470000000  0.5168690000000  0.5124220000000 1.0
C      1  0.6083330000000  0.4601500000000  0.4753840000000 1.0
C      1  0.4471330000000  0.5453070000000  0.5302540000000 1.0
C      1  0.4911190000000  0.6300560000000  0.5197070000000 1.0
C      1  0.4399200000000  0.4684840000000  0.5036110000000 1.0
C      1  0.5377640000000  0.5403560000000  0.5741920000000 1.0
C      1  0.5123720000000  0.5339920000000  0.5636850000000 1.0
C      1  0.4870910000000  0.5623840000000  0.6055700000000 1.0
C      1  0.4789840000000  0.3620470000000  0.4709650000000 1.0
C      1  0.4956890000000  0.6082110000000  0.5026680000000 1.0
C      1  0.5758530000000  0.5944650000000  0.4744190000000 1.0
C      1  0.4675980000000  0.5399330000000  0.3806630000000 1.0
C      1  0.5078270000000  0.6014250000000  0.5858910000000 1.0
C      1  0.4310390000000  0.4504590000000  0.4263420000000 1.0
C      1  0.4725800000000  0.5292790000000  0.4782620000000 1.0
C      1  0.5555420000000  0.3981440000000  0.5156310000000 1.0
C      1  0.5003700000000  0.6212010000000  0.5695560000000 1.0
C      1  0.4474790000000  0.4994730000000  0.5367230000000 1.0
C      1  0.4413520000000  0.5382080000000  0.5902070000000 1.0
C      1  0.4847010000000  0.4921620000000  0.6000970000000 1.0
C      1  0.4622450000000  0.5717410000000  0.4485890000000 1.0
C      1  0.5395880000000  0.5910620000000  0.4396630000000 1.0
C      1  0.5129650000000  0.4473510000000  0.4031970000000 1.0
C      1  0.5071960000000  0.4751980000000  0.5964780000000 1.0
C      1  0.5712670000000  0.3959180000000  0.5363020000000 1.0
C      1  0.5209790000000  0.4762860000000  0.5386100000000 1.0
C      1  0.4698430000000  0.5424130000000  0.3548190000000 1.0
C      1  0.5153110000000  0.5052880000000  0.4642430000000 1.0
C      1  0.5575580000000  0.4955120000000  0.5773390000000 1.0
C      1  0.4836440000000  0.4429370000000  0.4253360000000 1.0
C      1  0.3687990000000  0.4301640000000  0.5617710000000 1.0
C      1  0.3891380000000  0.5125420000000  0.5234070000000 1.0
C      1  0.5103700000000  0.5329190000000  0.4527710000000 1.0
C      1  0.5361810000000  0.5615310000000  0.5936090000000 1.0
C      1  0.4067800000000  0.4944010000000  0.4475920000000 1.0
C      1  0.4626870000000  0.5512070000000  0.6034880000000 1.0
C      1  0.4229030000000  0.5254330000000  0.4787650000000 1.0
C      1  0.5403320000000  0.5617480000000  0.4767840000000 1.0
C      1  0.5260040000000  0.5441770000000  0.4287340000000 1.0
C      1  0.5446450000000  0.4856470000000  0.5259130000000 1.0
C      1  0.4505230000000  0.5542800000000  0.4255610000000 1.0
C      1  0.5604640000000  0.4660500000000  0.5123040000000 1.0
C      1  0.5484540000000  0.5315350000000  0.4174010000000 1.0
C      1  0.4728750000000  0.5546980000000  0.5373180000000 1.0
C      1  0.4684530000000  0.4122960000000  0.5893450000000 1.0
C      1  0.4895040000000  0.5623220000000  0.5159250000000 1.0
C      1  0.5253670000000  0.4162890000000  0.4795410000000 1.0
C      1  0.5107410000000  0.5753390000000  0.5963630000000 1.0
C      1  0.5896980000000  0.4632770000000  0.5496360000000 1.0
C      1  0.4226710000000  0.5487810000000  0.4629550000000 1.0
C      1  0.5013450000000  0.4073300000000  0.4649160000000 1.0
C      1  0.5542090000000  0.4237520000000  0.4105410000000 1.0
C      1  0.5005790000000  0.4908080000000  0.5232130000000 1.0
C      1  0.5115160000000  0.5547750000000  0.4737880000000 1.0
C      1  0.5961930000000  0.5194450000000  0.4324990000000 1.0
C      1  0.5226210000000  0.4499180000000  0.5472180000000 1.0
C      1  0.4542540000000  0.4385620000000  0.4183450000000 1.0
C      1  0.6127240000000  0.5661710000000  0.4964660000000 1.0
C      1  0.4394250000000  0.5713650000000  0.4673720000000 1.0
C      1  0.4491830000000  0.5150420000000  0.4889840000000 1.0
C      1  0.4122370000000  0.5166340000000  0.4294020000000 1.0
C      1  0.4247350000000  0.5417540000000  0.4345650000000 1.0
C      1  0.5746050000000  0.5266380000000  0.4186680000000 1.0
C      1  0.5241630000000  0.4880500000000  0.4241350000000 1.0
C      1  0.4942090000000  0.4022100000000  0.5883410000000 1.0
C      1  0.3974850000000  0.4930500000000  0.5026640000000 1.0
C      1  0.5580170000000  0.3977900000000  0.4230790000000 1.0
C      1  0.5374860000000  0.4414110000000  0.4767140000000 1.0
C      1  0.3494110000000  0.4976260000000  0.5571910000000 1.0
C      1  0.5131900000000  0.4238780000000  0.5862780000000 1.0
C      1  0.4111060000000  0.4686920000000  0.5117670000000 1.0
C      1  0.5548760000000  0.5904810000000  0.5375840000000 1.0
C      1  0.6002250000000  0.4756460000000  0.4528490000000 1.0
C      1  0.5449220000000  0.3724630000000  0.4750920000000 1.0
C      1  0.4946100000000  0.4924550000000  0.4224200000000 1.0
C      1  0.4805090000000  0.5289810000000  0.4501060000000 1.0
C      1  0.4489050000000  0.5198210000000  0.5181630000000 1.0
C      1  0.5602550000000  0.5231980000000  0.5670600000000 1.0
C      1  0.4519500000000  0.4613880000000  0.5788720000000 1.0
C      1  0.5817570000000  0.5300450000000  0.5473610000000 1.0
C      1  0.3685880000000  0.5036900000000  0.5406210000000 1.0
C      1  0.4509210000000  0.4846320000000  0.4819700000000 1.0
C      1  0.5600010000000  0.4520140000000  0.4172470000000 1.0
C      1  0.5308940000000  0.5858140000000  0.5285030000000 1.0
C      1  0.4690800000000  0.4411680000000  0.5895460000000 1.0
C      1  0.5124740000000  0.4030330000000  0.4193140000000 1.0
C      1  0.6051910000000  0.4543490000000  0.5015550000000 1.0
C      1  0.6130360000000  0.5383480000000  0.5007750000000 1.0
C      1  0.4659270000000  0.5370890000000  0.4081380000000 1.0
C      1  0.5531880000000  0.4630120000000  0.4848190000000 1.0
C      1  0.4722770000000  0.4782650000000  0.4626770000000 1.0
C      1  0.5338870000000  0.4657050000000  0.4106800000000 1.0
C      1  0.4415380000000  0.5100380000000  0.5847720000000 1.0
END
