TITL C-247196-3112-193 -3.60085536833081e-07 125000 -243.086369720252 0 0 41 (C1) n - 1
REM
REM in /home/nfs/bkarasulu/CARBON/AIRSS/Generating-Clusters/LCBOP/Only-C1/SD-CG/FIRE-HFTN
REM
REM
REM
REM
REM
REM ./C.cell (11c1c37f851c82e70ff6c80c92926a4b)
REM AIRSS Version 0.9.1 bugfix July 2018 build 013d7b7c2542+ Fri, 06 Jul 2018 19:26:36 +0100
REM compiler GCC version 9.2.1 20190827 (Red Hat 9.2.1-1)
REM options -cpp -mtune=generic -march=x86-64 -g -O0 -fpre-include=/usr/include/finclude/math-vector-fortran.h
REM seed -25492273 1615725612 -445900510 -1064645275 -545434185 -1297910553 1325611853 -235404225 -825478230 2072303795 774075262 -1843719246 268085864 951580658 1192370512 1965585029 337774711 -2020559381 -586744651 -1303821138 1933785707 709452165 -1873427943 1752541152 -1607105969 -104868728 1939480092 1689890064 -1633793703 -1068989604 609187223 -321955656 488146513
REM
CELL 1.54180   50.00000   50.00000   50.00000   90.00000   90.00000   90.00000
LATT -1
SFAC C  
C      1  0.4901320000000  0.5453950000000  0.4592900000000 1.0
C      1  0.4183390000000  0.5828770000000  0.5339210000000 1.0
C      1  0.5674120000000  0.5099480000000  0.4917600000000 1.0
C      1  0.4944640000000  0.4484350000000  0.5404210000000 1.0
C      1  0.5123200000000  0.4276680000000  0.4475290000000 1.0
C      1  0.5207180000000  0.4641140000000  0.5030490000000 1.0
C      1  0.5161850000000  0.4478050000000  0.5241520000000 1.0
C      1  0.4649580000000  0.5118100000000  0.4848310000000 1.0
C      1  0.5386980000000  0.5411470000000  0.4739180000000 1.0
C      1  0.4821750000000  0.4973900000000  0.5022520000000 1.0
C      1  0.5241700000000  0.5610000000000  0.5178490000000 1.0
C      1  0.5249280000000  0.4038960000000  0.4426490000000 1.0
C      1  0.4758900000000  0.4917980000000  0.5300550000000 1.0
C      1  0.5119520000000  0.5485010000000  0.5397800000000 1.0
C      1  0.5540000000000  0.5185190000000  0.5404780000000 1.0
C      1  0.4128670000000  0.5172990000000  0.4977020000000 1.0
C      1  0.5439360000000  0.4971160000000  0.4487950000000 1.0
C      1  0.5321080000000  0.4847020000000  0.5644650000000 1.0
C      1  0.5432010000000  0.5477850000000  0.5017210000000 1.0
C      1  0.4617620000000  0.5540870000000  0.5407990000000 1.0
C      1  0.4380650000000  0.5155730000000  0.4912850000000 1.0
C      1  0.4513500000000  0.4507870000000  0.5198400000000 1.0
C      1  0.5288420000000  0.5286730000000  0.5521180000000 1.0
C      1  0.4750870000000  0.5216870000000  0.4601400000000 1.0
C      1  0.4513580000000  0.4385960000000  0.4959580000000 1.0
C      1  0.4862670000000  0.5102880000000  0.5490110000000 1.0
C      1  0.4848110000000  0.5389390000000  0.5427280000000 1.0
C      1  0.5250480000000  0.4519760000000  0.4414770000000 1.0
C      1  0.5120720000000  0.5052280000000  0.5615990000000 1.0
C      1  0.4710690000000  0.4638950000000  0.5351920000000 1.0
C      1  0.5599000000000  0.5266670000000  0.5141580000000 1.0
C      1  0.5559940000000  0.4921190000000  0.5523690000000 1.0
C      1  0.5001550000000  0.4906980000000  0.4291360000000 1.0
C      1  0.5059350000000  0.4846290000000  0.4935540000000 1.0
C      1  0.4652850000000  0.4310970000000  0.4744750000000 1.0
C      1  0.5162030000000  0.5511720000000  0.4608970000000 1.0
C      1  0.4790670000000  0.5041610000000  0.4385390000000 1.0
C      1  0.4865180000000  0.4280130000000  0.4587140000000 1.0
C      1  0.4399850000000  0.5688470000000  0.5376860000000 1.0
C      1  0.5245200000000  0.4797640000000  0.4379950000000 1.0
C      1  0.5522510000000  0.5159000000000  0.4677140000000 1.0
END
