TITL C-247198-3593-158 -5.03860671422138e-07 125000 -185.099670773817 0 0 31 (C1) n - 1
REM
REM in /home/nfs/bkarasulu/CARBON/AIRSS/Generating-Clusters/LCBOP/Only-C1/SD-CG/FIRE-HFTN
REM
REM
REM
REM
REM
REM ./C.cell (11c1c37f851c82e70ff6c80c92926a4b)
REM AIRSS Version 0.9.1 bugfix July 2018 build 013d7b7c2542+ Fri, 06 Jul 2018 19:26:36 +0100
REM compiler GCC version 9.2.1 20190827 (Red Hat 9.2.1-1)
REM options -cpp -mtune=generic -march=x86-64 -g -O0 -fpre-include=/usr/include/finclude/math-vector-fortran.h
REM seed -1469613689 766662890 -181428944 1939013901 -1638049436 -1646737820 581618473 1541287385 569957190 310429273 -428794538 -388559386 1572392558 182068941 1998667724 610766322 1323624528 882658996 -1729829176 1153782956 -1310599488 -974583231 -1803734490 -382967207 -283966329 -1596216690 652992183 155453177 -1644687673 1334905615 -249551036 829233600 2097192732
REM
CELL 1.54180   50.00000   50.00000   50.00000   90.00000   90.00000   90.00000
LATT -1
SFAC C  
C      1  0.4949820000000  0.4399000000000  0.4606850000000 1.0
C      1  0.4682540000000  0.4780440000000  0.5184960000000 1.0
C      1  0.4845910000000  0.4798740000000  0.5648010000000 1.0
C      1  0.4583660000000  0.5497580000000  0.5178140000000 1.0
C      1  0.5083290000000  0.5261490000000  0.5627470000000 1.0
C      1  0.4710830000000  0.4678490000000  0.5446030000000 1.0
C      1  0.4866930000000  0.4468740000000  0.4866910000000 1.0
C      1  0.5316460000000  0.4708120000000  0.4499180000000 1.0
C      1  0.4619020000000  0.5252130000000  0.5285480000000 1.0
C      1  0.5062480000000  0.4420250000000  0.5067940000000 1.0
C      1  0.4995160000000  0.5078740000000  0.4991390000000 1.0
C      1  0.4984070000000  0.5023390000000  0.5701560000000 1.0
C      1  0.4820260000000  0.5124150000000  0.4368590000000 1.0
C      1  0.5447250000000  0.5402030000000  0.5082740000000 1.0
C      1  0.4775810000000  0.5048980000000  0.5168360000000 1.0
C      1  0.5297350000000  0.4496470000000  0.5171800000000 1.0
C      1  0.5212710000000  0.5527820000000  0.5185410000000 1.0
C      1  0.4652000000000  0.5129790000000  0.4596160000000 1.0
C      1  0.5232890000000  0.5060260000000  0.4838130000000 1.0
C      1  0.5007820000000  0.5617210000000  0.5005330000000 1.0
C      1  0.5088780000000  0.5105310000000  0.4374450000000 1.0
C      1  0.5584530000000  0.4918750000000  0.5123010000000 1.0
C      1  0.4672850000000  0.4674440000000  0.4917520000000 1.0
C      1  0.5146700000000  0.5454360000000  0.5451800000000 1.0
C      1  0.4652460000000  0.5385200000000  0.4725700000000 1.0
C      1  0.5169230000000  0.4484200000000  0.4475880000000 1.0
C      1  0.5463390000000  0.5135280000000  0.4989820000000 1.0
C      1  0.4595060000000  0.4873750000000  0.4719640000000 1.0
C      1  0.5246670000000  0.4972510000000  0.4567160000000 1.0
C      1  0.5497670000000  0.4673210000000  0.5190600000000 1.0
C      1  0.4736410000000  0.5549160000000  0.4943990000000 1.0
END
