TITL C-247200-3482-399 94441.6967026226 125000 -1021.23005590691 0 0 169 (C1) n - 1
REM
REM in /home/nfs/bkarasulu/CARBON/AIRSS/Generating-Clusters/LCBOP/Only-C1/SD-CG/FIRE-HFTN
REM
REM
REM
REM
REM
REM ./C.cell (11c1c37f851c82e70ff6c80c92926a4b)
REM AIRSS Version 0.9.1 bugfix July 2018 build 013d7b7c2542+ Fri, 06 Jul 2018 19:26:36 +0100
REM compiler GCC version 9.2.1 20190827 (Red Hat 9.2.1-1)
REM options -cpp -mtune=generic -march=x86-64 -g -O0 -fpre-include=/usr/include/finclude/math-vector-fortran.h
REM seed -1571133177 -1128268793 -401171478 -1404051332 508695683 -1013347353 1138714675 -567520609 -1366534440 -2088055570 715221056 -818409533 1314537611 -582576427 1279001143 -1116612295 260838949 -1712369690 -1607232000 1868224562 -1267460013 -1643917879 -1597073841 -1096039870 1891872502 832497733 -239387270 150389974 137257859 236926760 790036231 -681288448 219233451
REM
CELL 1.54180   50.00000   50.00000   50.00000   90.00000   90.00000   90.00000
LATT -1
SFAC C  
C      1  0.4254110000000  0.4696350000000  0.4119320000000 1.0
C      1  0.4134960000000  0.4337450000000  0.5051120000000 1.0
C      1  0.5030100000000  0.6081710000000  0.5545130000000 1.0
C      1  0.5554190000000  0.5129310000000  0.4877630000000 1.0
C      1  0.5930300000000  0.4482780000000  0.5234240000000 1.0
C      1  0.5744760000000  0.5113540000000  0.5332730000000 1.0
C      1  0.5004710000000  0.5144010000000  0.5150230000000 1.0
C      1  0.4218810000000  0.5856000000000  0.5043520000000 1.0
C      1  0.4588480000000  0.4807430000000  0.5547240000000 1.0
C      1  0.6015710000000  0.4930410000000  0.4853620000000 1.0
C      1  0.4157970000000  0.5486160000000  0.5402510000000 1.0
C      1  0.4080980000000  0.5219120000000  0.4769830000000 1.0
C      1  0.5653750000000  0.5683380000000  0.5041970000000 1.0
C      1  0.5336180000000  0.4617690000000  0.6031250000000 1.0
C      1  0.5089150000000  0.5550490000000  0.5478510000000 1.0
C      1  0.5154130000000  0.4204600000000  0.5720840000000 1.0
C      1  0.6037450000000  0.5288270000000  0.4964140000000 1.0
C      1  0.4527530000000  0.5008820000000  0.6147740000000 1.0
C      1  0.5150830000000  0.3799720000000  0.4812730000000 1.0
C      1  0.4774090000000  0.5241400000000  0.5299080000000 1.0
C      1  0.5770600000000  0.5624970000000  0.4320000000000 1.0
C      1  0.3881260000000  0.5051140000000  0.4662940000000 1.0
C      1  0.5221240000000  0.5630200000000  0.5235370000000 1.0
C      1  0.5408130000000  0.5363990000000  0.5748710000000 1.0
C      1  0.4093900000000  0.5622260000000  0.5145990000000 1.0
C      1  0.5828290000000  0.5704320000000  0.5273000000000 1.0
C      1  0.4605570000000  0.4867140000000  0.4421100000000 1.0
C      1  0.4764480000000  0.4402390000000  0.5064900000000 1.0
C      1  0.4572890000000  0.5308300000000  0.4807180000000 1.0
C      1  0.4140120000000  0.4794370000000  0.5860150000000 1.0
C      1  0.5697200000000  0.4474290000000  0.5651970000000 1.0
C      1  0.5622630000000  0.5901750000000  0.5478050000000 1.0
C      1  0.4835610000000  0.4171920000000  0.4217700000000 1.0
C      1  0.4418110000000  0.4334640000000  0.5699660000000 1.0
C      1  0.5212960000000  0.6121570000000  0.4995320000000 1.0
C      1  0.5222270000000  0.4378510000000  0.3630140000000 1.0
C      1  0.5110240000000  0.3911720000000  0.4542690000000 1.0
C      1  0.5322250000000  0.6009870000000  0.5456620000000 1.0
C      1  0.4982140000000  0.5041800000000  0.4881110000000 1.0
C      1  0.5196110000000  0.3989290000000  0.5300790000000 1.0
C      1  0.4220430000000  0.5277830000000  0.4159510000000 1.0
C      1  0.5136670000000  0.5470900000000  0.4292390000000 1.0
C      1  0.4585300000000  0.5891000000000  0.5697040000000 1.0
C      1  0.5645220000000  0.5379380000000  0.5892920000000 1.0
C      1  0.4287910000000  0.5481270000000  0.5687250000000 1.0
C      1  0.4226720000000  0.4180180000000  0.5268900000000 1.0
C      1  0.5926900000000  0.4605130000000  0.4960850000000 1.0
C      1  0.4612080000000  0.4308230000000  0.4099170000000 1.0
C      1  0.5858930000000  0.5656360000000  0.4604930000000 1.0
C      1  0.5619880000000  0.6057830000000  0.4727380000000 1.0
C      1  0.5004160000000  0.4682930000000  0.5329330000000 1.0
C      1  0.5777410000000  0.4874090000000  0.4150080000000 1.0
C      1  0.5475740000000  0.3906790000000  0.4909080000000 1.0
C      1  0.4610920000000  0.6057300000000  0.5218200000000 1.0
C      1  0.6021340000000  0.5477570000000  0.5204940000000 1.0
C      1  0.5332330000000  0.5919970000000  0.4075650000000 1.0
C      1  0.5462420000000  0.4560670000000  0.4409840000000 1.0
C      1  0.4404300000000  0.5510670000000  0.4210660000000 1.0
C      1  0.4972650000000  0.4390650000000  0.5290220000000 1.0
C      1  0.4872860000000  0.3855390000000  0.4944360000000 1.0
C      1  0.5036960000000  0.5859380000000  0.4090150000000 1.0
C      1  0.5375640000000  0.5478990000000  0.4135090000000 1.0
C      1  0.5701050000000  0.4123630000000  0.4971390000000 1.0
C      1  0.4898770000000  0.4387530000000  0.4819140000000 1.0
C      1  0.4658020000000  0.3996980000000  0.4690310000000 1.0
C      1  0.4419620000000  0.4183810000000  0.4659720000000 1.0
C      1  0.5451250000000  0.5500420000000  0.5133980000000 1.0
C      1  0.5719570000000  0.5806880000000  0.4795760000000 1.0
C      1  0.5392030000000  0.6179280000000  0.4792530000000 1.0
C      1  0.4301410000000  0.4995330000000  0.4114120000000 1.0
C      1  0.3964210000000  0.4770300000000  0.5198340000000 1.0
C      1  0.4589590000000  0.5016420000000  0.4176580000000 1.0
C      1  0.5463510000000  0.5246550000000  0.3996270000000 1.0
C      1  0.4862490000000  0.6181270000000  0.5300490000000 1.0
C      1  0.5432730000000  0.4413300000000  0.5138880000000 1.0
C      1  0.4650480000000  0.5491510000000  0.4040760000000 1.0
C      1  0.4838310000000  0.3985680000000  0.4450770000000 1.0
C      1  0.5072790000000  0.5207590000000  0.4350070000000 1.0
C      1  0.5334590000000  0.5130300000000  0.5585460000000 1.0
C      1  0.5286050000000  0.5487890000000  0.4699460000000 1.0
C      1  0.5171710000000  0.4906700000000  0.6139270000000 1.0
C      1  0.4918360000000  0.4612220000000  0.4666120000000 1.0
C      1  0.5779990000000  0.4384020000000  0.4802900000000 1.0
C      1  0.4325020000000  0.4385450000000  0.4843120000000 1.0
C      1  0.4479980000000  0.5954450000000  0.4965760000000 1.0
C      1  0.4946210000000  0.5182360000000  0.5772120000000 1.0
C      1  0.6013040000000  0.5426600000000  0.4705330000000 1.0
C      1  0.4232350000000  0.4522290000000  0.5815340000000 1.0
C      1  0.4493280000000  0.5177190000000  0.5332650000000 1.0
C      1  0.4694790000000  0.4384700000000  0.5762120000000 1.0
C      1  0.5021220000000  0.5479840000000  0.4739730000000 1.0
C      1  0.4872090000000  0.5932500000000  0.5746420000000 1.0
C      1  0.5273950000000  0.4333650000000  0.4360220000000 1.0
C      1  0.5988750000000  0.4814050000000  0.4335070000000 1.0
C      1  0.4285500000000  0.5018400000000  0.5992660000000 1.0
C      1  0.4726970000000  0.4762010000000  0.5311540000000 1.0
C      1  0.5862450000000  0.4266470000000  0.4349770000000 1.0
C      1  0.4423530000000  0.4142740000000  0.5471450000000 1.0
C      1  0.4707180000000  0.5255000000000  0.6145230000000 1.0
C      1  0.3775640000000  0.4582180000000  0.4812130000000 1.0
C      1  0.4901810000000  0.3896770000000  0.5239020000000 1.0
C      1  0.3927890000000  0.4536200000000  0.5046810000000 1.0
C      1  0.5272140000000  0.5092120000000  0.5287440000000 1.0
C      1  0.4886640000000  0.5353760000000  0.5535360000000 1.0
C      1  0.4845460000000  0.5259540000000  0.4752670000000 1.0
C      1  0.5477060000000  0.5299940000000  0.4684620000000 1.0
C      1  0.5791120000000  0.4207410000000  0.5250590000000 1.0
C      1  0.5206430000000  0.4360540000000  0.5960380000000 1.0
C      1  0.4971990000000  0.5690430000000  0.5901430000000 1.0
C      1  0.4534330000000  0.5510610000000  0.4984030000000 1.0
C      1  0.4472750000000  0.5993940000000  0.5461940000000 1.0
C      1  0.4330950000000  0.5206740000000  0.5777780000000 1.0
C      1  0.5165270000000  0.4323060000000  0.3878310000000 1.0
C      1  0.5868270000000  0.5344020000000  0.4257370000000 1.0
C      1  0.5515810000000  0.5205230000000  0.5159680000000 1.0
C      1  0.4662520000000  0.4753180000000  0.6117250000000 1.0
C      1  0.3980210000000  0.4901120000000  0.5646180000000 1.0
C      1  0.5012670000000  0.5729420000000  0.4354950000000 1.0
C      1  0.4291110000000  0.4254340000000  0.4407580000000 1.0
C      1  0.4603820000000  0.4642830000000  0.5086100000000 1.0
C      1  0.4437570000000  0.4876390000000  0.4660510000000 1.0
C      1  0.5100890000000  0.4813270000000  0.4749110000000 1.0
C      1  0.4789550000000  0.4661200000000  0.4429280000000 1.0
C      1  0.5353440000000  0.4082680000000  0.5541900000000 1.0
C      1  0.5206320000000  0.5575260000000  0.5752280000000 1.0
C      1  0.4570450000000  0.5846680000000  0.4640140000000 1.0
C      1  0.5142730000000  0.4250000000000  0.4838430000000 1.0
C      1  0.5874130000000  0.5387940000000  0.6017110000000 1.0
C      1  0.4203280000000  0.5202730000000  0.5305180000000 1.0
C      1  0.6039950000000  0.4970390000000  0.4563450000000 1.0
C      1  0.4975890000000  0.5135660000000  0.3870290000000 1.0
C      1  0.5718490000000  0.5151740000000  0.4096090000000 1.0
C      1  0.5247910000000  0.5126450000000  0.3851880000000 1.0
C      1  0.5010730000000  0.6292100000000  0.5086320000000 1.0
C      1  0.5241740000000  0.4166870000000  0.4582530000000 1.0
C      1  0.5008800000000  0.4731440000000  0.5770340000000 1.0
C      1  0.5096050000000  0.4280490000000  0.4144510000000 1.0
C      1  0.4967590000000  0.5143230000000  0.6067290000000 1.0
C      1  0.4493750000000  0.5060180000000  0.5597060000000 1.0
C      1  0.5200780000000  0.4245650000000  0.5133730000000 1.0
C      1  0.5463960000000  0.4669010000000  0.5176900000000 1.0
C      1  0.5865770000000  0.4911670000000  0.5461120000000 1.0
C      1  0.4703430000000  0.4025920000000  0.5429770000000 1.0
C      1  0.4010550000000  0.5439760000000  0.4936490000000 1.0
C      1  0.4406360000000  0.5693360000000  0.4443750000000 1.0
C      1  0.4706580000000  0.5531760000000  0.6002190000000 1.0
C      1  0.3767010000000  0.4808560000000  0.4665510000000 1.0
C      1  0.5253060000000  0.4801430000000  0.5285010000000 1.0
C      1  0.5571810000000  0.4681380000000  0.4153800000000 1.0
C      1  0.6024840000000  0.5245670000000  0.4484670000000 1.0
C      1  0.4842510000000  0.5850490000000  0.4549490000000 1.0
C      1  0.5312710000000  0.4794950000000  0.4545560000000 1.0
C      1  0.4031330000000  0.4975710000000  0.5375100000000 1.0
C      1  0.4816080000000  0.5720600000000  0.3951520000000 1.0
C      1  0.5532380000000  0.5718060000000  0.4168380000000 1.0
C      1  0.4888710000000  0.4251460000000  0.5564280000000 1.0
C      1  0.5252880000000  0.5910890000000  0.5182490000000 1.0
C      1  0.4740720000000  0.5208550000000  0.4016430000000 1.0
C      1  0.5122210000000  0.4972200000000  0.5696230000000 1.0
C      1  0.5582930000000  0.4604240000000  0.5880890000000 1.0
C      1  0.5871250000000  0.4631500000000  0.5475420000000 1.0
C      1  0.5621070000000  0.4212620000000  0.5511460000000 1.0
C      1  0.4434520000000  0.4659330000000  0.4854770000000 1.0
C      1  0.4488100000000  0.5649140000000  0.5820130000000 1.0
C      1  0.4791620000000  0.4608550000000  0.5906700000000 1.0
C      1  0.4362470000000  0.4426530000000  0.4186240000000 1.0
C      1  0.5710920000000  0.4411130000000  0.4529910000000 1.0
C      1  0.4356420000000  0.5137780000000  0.4740030000000 1.0
C      1  0.5230110000000  0.4993090000000  0.4361170000000 1.0
END
