TITL C-247201-3759-681 1.08640475441205 125000 -311.595843640426 0 0 54 (C1) n - 1
REM
REM in /home/nfs/bkarasulu/CARBON/AIRSS/Generating-Clusters/LCBOP/Only-C1/SD-CG/FIRE-HFTN
REM
REM
REM
REM
REM
REM ./C.cell (11c1c37f851c82e70ff6c80c92926a4b)
REM AIRSS Version 0.9.1 bugfix July 2018 build 013d7b7c2542+ Fri, 06 Jul 2018 19:26:36 +0100
REM compiler GCC version 9.2.1 20190827 (Red Hat 9.2.1-1)
REM options -cpp -mtune=generic -march=x86-64 -g -O0 -fpre-include=/usr/include/finclude/math-vector-fortran.h
REM seed 977589610 736661772 642463160 1032165994 -2140190797 1244820093 1382074920 534852072 787162786 -1519668654 835472950 1236155435 -359352366 135595735 -516454234 -1204171282 679024482 -267848610 164092979 -1969931518 -410428886 1145851177 -1430601608 1111516772 1916941182 -640814929 -931472957 -1794190594 1945879846 -1895124062 12543272 126420053 -389630522
REM
CELL 1.54180   50.00000   50.00000   50.00000   90.00000   90.00000   90.00000
LATT -1
SFAC C  
C      1  0.4713170000000  0.5462380000000  0.5407620000000 1.0
C      1  0.4998750000000  0.5113660000000  0.6005870000000 1.0
C      1  0.5001680000000  0.4584060000000  0.6036920000000 1.0
C      1  0.4929630000000  0.4353950000000  0.5351310000000 1.0
C      1  0.5314100000000  0.3924320000000  0.6012790000000 1.0
C      1  0.4412060000000  0.5056770000000  0.5828140000000 1.0
C      1  0.4501090000000  0.5492390000000  0.4968320000000 1.0
C      1  0.5019320000000  0.4852630000000  0.6085500000000 1.0
C      1  0.5158070000000  0.4128760000000  0.5949230000000 1.0
C      1  0.4668630000000  0.4488040000000  0.4922450000000 1.0
C      1  0.4409430000000  0.5105550000000  0.4693150000000 1.0
C      1  0.4349510000000  0.5340730000000  0.4808130000000 1.0
C      1  0.5166920000000  0.5545390000000  0.5508940000000 1.0
C      1  0.5217980000000  0.5088690000000  0.5358530000000 1.0
C      1  0.5274720000000  0.4673980000000  0.5510850000000 1.0
C      1  0.5365700000000  0.5642500000000  0.5668570000000 1.0
C      1  0.5468060000000  0.3723150000000  0.6074350000000 1.0
C      1  0.5285160000000  0.5576070000000  0.2670950000000 1.0
C      1  0.4941090000000  0.5298810000000  0.4098710000000 1.0
C      1  0.6113140000000  0.4793820000000  0.5107110000000 1.0
C      1  0.4779710000000  0.4833560000000  0.5628090000000 1.0
C      1  0.5020270000000  0.5528480000000  0.3341760000000 1.0
C      1  0.4509030000000  0.4820640000000  0.5710160000000 1.0
C      1  0.4562480000000  0.5272230000000  0.5894910000000 1.0
C      1  0.4837500000000  0.4316640000000  0.5628250000000 1.0
C      1  0.5435880000000  0.4898220000000  0.5411110000000 1.0
C      1  0.5020860000000  0.4965940000000  0.5199670000000 1.0
C      1  0.5380430000000  0.4839380000000  0.4953390000000 1.0
C      1  0.4659060000000  0.4973490000000  0.4683380000000 1.0
C      1  0.5315720000000  0.5083060000000  0.4815450000000 1.0
C      1  0.4993880000000  0.5451920000000  0.3594080000000 1.0
C      1  0.5479870000000  0.5474450000000  0.2530650000000 1.0
C      1  0.4555540000000  0.4337230000000  0.5669270000000 1.0
C      1  0.5189410000000  0.5535050000000  0.5219680000000 1.0
C      1  0.4914610000000  0.5447870000000  0.5611670000000 1.0
C      1  0.4745130000000  0.4341850000000  0.5134930000000 1.0
C      1  0.4672790000000  0.4704600000000  0.4764710000000 1.0
C      1  0.4967490000000  0.5375360000000  0.3846400000000 1.0
C      1  0.5002990000000  0.5433010000000  0.5023020000000 1.0
C      1  0.4731520000000  0.5467870000000  0.5123290000000 1.0
C      1  0.5855610000000  0.4821470000000  0.5135820000000 1.0
C      1  0.5046860000000  0.5604850000000  0.3089530000000 1.0
C      1  0.4844700000000  0.5305380000000  0.5855350000000 1.0
C      1  0.5135460000000  0.4721360000000  0.5074910000000 1.0
C      1  0.5073240000000  0.5240630000000  0.4811190000000 1.0
C      1  0.5040290000000  0.4772120000000  0.5644390000000 1.0
C      1  0.4881550000000  0.5144510000000  0.4617980000000 1.0
C      1  0.5076790000000  0.5684060000000  0.2823040000000 1.0
C      1  0.4904210000000  0.5865130000000  0.2712370000000 1.0
C      1  0.4405040000000  0.4559230000000  0.5708020000000 1.0
C      1  0.4914120000000  0.5222500000000  0.4350890000000 1.0
C      1  0.5582610000000  0.4850800000000  0.5165330000000 1.0
C      1  0.5158990000000  0.4516100000000  0.5288020000000 1.0
C      1  0.4998170000000  0.4345320000000  0.5871850000000 1.0
END
