TITL C-247202-1916-628 -2.94221284211351e-07 125000 -351.89895597149 0 0 58 (C1) n - 1
REM
REM in /home/nfs/bkarasulu/CARBON/AIRSS/Generating-Clusters/LCBOP/Only-C1/SD-CG/FIRE-HFTN
REM
REM
REM
REM
REM
REM ./C.cell (11c1c37f851c82e70ff6c80c92926a4b)
REM AIRSS Version 0.9.1 bugfix July 2018 build 013d7b7c2542+ Fri, 06 Jul 2018 19:26:36 +0100
REM compiler GCC version 9.2.1 20190827 (Red Hat 9.2.1-1)
REM options -cpp -mtune=generic -march=x86-64 -g -O0 -fpre-include=/usr/include/finclude/math-vector-fortran.h
REM seed 1755080885 -1641237387 1721004798 131209608 1107630512 239431872 -1114002354 -1901691286 646470993 251220106 -1328994148 -1802205055 842278769 370202333 -736103684 1540726174 1053897446 1133492447 2102362087 -62665194 695414620 -590193695 -1181012897 -377898251 1095896690 -1696131231 -1480265291 580571421 733309508 -456355583 704155336 -1078118496 604253068
REM
CELL 1.54180   50.00000   50.00000   50.00000   90.00000   90.00000   90.00000
LATT -1
SFAC C  
C      1  0.4284390000000  0.4482740000000  0.4574380000000 1.0
C      1  0.4960410000000  0.5909440000000  0.4942110000000 1.0
C      1  0.5348720000000  0.5195110000000  0.5376850000000 1.0
C      1  0.5649900000000  0.5505460000000  0.4561340000000 1.0
C      1  0.4512370000000  0.4263120000000  0.4934980000000 1.0
C      1  0.4540630000000  0.4413200000000  0.5390820000000 1.0
C      1  0.6048230000000  0.4949010000000  0.4538330000000 1.0
C      1  0.4747490000000  0.4230520000000  0.4769160000000 1.0
C      1  0.4688630000000  0.5571460000000  0.5162090000000 1.0
C      1  0.5370000000000  0.5648210000000  0.5323730000000 1.0
C      1  0.5887710000000  0.4848740000000  0.4984860000000 1.0
C      1  0.4112590000000  0.5083040000000  0.4812670000000 1.0
C      1  0.5123230000000  0.4857080000000  0.5605650000000 1.0
C      1  0.5324860000000  0.4576310000000  0.5051770000000 1.0
C      1  0.4613450000000  0.5788900000000  0.5331630000000 1.0
C      1  0.5187400000000  0.4474310000000  0.4828370000000 1.0
C      1  0.5047320000000  0.5442880000000  0.4819100000000 1.0
C      1  0.4259300000000  0.4961030000000  0.5006040000000 1.0
C      1  0.5234420000000  0.5323530000000  0.5626010000000 1.0
C      1  0.4460770000000  0.4903420000000  0.5427260000000 1.0
C      1  0.5315020000000  0.5374240000000  0.4900350000000 1.0
C      1  0.4688580000000  0.4246640000000  0.4491540000000 1.0
C      1  0.4281570000000  0.4675400000000  0.5048700000000 1.0
C      1  0.4388090000000  0.4642990000000  0.5322470000000 1.0
C      1  0.4462460000000  0.4369680000000  0.4401290000000 1.0
C      1  0.4619850000000  0.4956230000000  0.4446200000000 1.0
C      1  0.4660520000000  0.4907540000000  0.5623270000000 1.0
C      1  0.4943710000000  0.5362610000000  0.4565780000000 1.0
C      1  0.5847810000000  0.4943250000000  0.4723410000000 1.0
C      1  0.4876550000000  0.4707450000000  0.5586560000000 1.0
C      1  0.4503860000000  0.4198850000000  0.5209070000000 1.0
C      1  0.5039840000000  0.4159010000000  0.5153720000000 1.0
C      1  0.5002560000000  0.4264960000000  0.4891450000000 1.0
C      1  0.5277270000000  0.5603360000000  0.5580970000000 1.0
C      1  0.4869110000000  0.6108620000000  0.5103300000000 1.0
C      1  0.5736940000000  0.4770590000000  0.5191470000000 1.0
C      1  0.4779450000000  0.5127040000000  0.5763710000000 1.0
C      1  0.5264150000000  0.5601850000000  0.4244650000000 1.0
C      1  0.4326680000000  0.4473280000000  0.4854700000000 1.0
C      1  0.4694940000000  0.6046840000000  0.5303150000000 1.0
C      1  0.4897040000000  0.5631640000000  0.4969330000000 1.0
C      1  0.4766960000000  0.5149560000000  0.4539680000000 1.0
C      1  0.5392180000000  0.4838100000000  0.4579940000000 1.0
C      1  0.5893750000000  0.5600380000000  0.4639110000000 1.0
C      1  0.5515350000000  0.5607480000000  0.4336760000000 1.0
C      1  0.5066230000000  0.5123740000000  0.5739450000000 1.0
C      1  0.5461360000000  0.4736630000000  0.5234090000000 1.0
C      1  0.5383160000000  0.5399240000000  0.5172870000000 1.0
C      1  0.5514200000000  0.5301270000000  0.4709060000000 1.0
C      1  0.5319280000000  0.4910970000000  0.5399960000000 1.0
C      1  0.4993290000000  0.4258400000000  0.5400690000000 1.0
C      1  0.4807480000000  0.4449830000000  0.5493730000000 1.0
C      1  0.5186390000000  0.4475280000000  0.4340100000000 1.0
C      1  0.4407710000000  0.5095180000000  0.5216650000000 1.0
C      1  0.5581970000000  0.5028810000000  0.4660830000000 1.0
C      1  0.5035560000000  0.5499410000000  0.4338190000000 1.0
C      1  0.5248210000000  0.4595000000000  0.4577780000000 1.0
C      1  0.4549120000000  0.5331130000000  0.5178850000000 1.0
END
