TITL C-247197-3123-534 -1037.5773068815 125000 -1049.0833841892 0 0 171 (C1) n - 1
REM
REM in /home/nfs/bkarasulu/CARBON/AIRSS/Generating-Clusters/LCBOP/Only-C1/SD-CG/FIRE-HFTN
REM
REM
REM
REM
REM
REM ./C.cell (11c1c37f851c82e70ff6c80c92926a4b)
REM AIRSS Version 0.9.1 bugfix July 2018 build 013d7b7c2542+ Fri, 06 Jul 2018 19:26:36 +0100
REM compiler GCC version 9.2.1 20190827 (Red Hat 9.2.1-1)
REM options -cpp -mtune=generic -march=x86-64 -g -O0 -fpre-include=/usr/include/finclude/math-vector-fortran.h
REM seed -1228737725 -123166337 -84976143 -746255394 1854895558 -1631180750 -1063579354 692527270 217246618 -1556782766 1549934084 1599253051 -935265954 857486609 1997121395 1542575146 895549920 -1930170387 752424096 1803740077 -676958674 -1987144395 -1774320298 1815446742 1602397402 561939958 1279514528 1354962813 -1430307430 -1126416826 -961154051 -589155301 -2072242
REM
CELL 1.54180   50.00000   50.00000   50.00000   90.00000   90.00000   90.00000
LATT -1
SFAC C  
C      1  0.5674360000000  0.4397380000000  0.3750940000000 1.0
C      1  0.4331890000000  0.5864000000000  0.4993580000000 1.0
C      1  0.4258140000000  0.4290420000000  0.5534180000000 1.0
C      1  0.4509160000000  0.5202680000000  0.3873480000000 1.0
C      1  0.4070750000000  0.4595570000000  0.5213170000000 1.0
C      1  0.4956800000000  0.4663760000000  0.4918920000000 1.0
C      1  0.4834130000000  0.4480910000000  0.4476100000000 1.0
C      1  0.5133750000000  0.6086600000000  0.4626750000000 1.0
C      1  0.4556000000000  0.5242610000000  0.5669580000000 1.0
C      1  0.5519040000000  0.5074800000000  0.3972300000000 1.0
C      1  0.5197240000000  0.5235590000000  0.4538510000000 1.0
C      1  0.5003700000000  0.5685460000000  0.4328050000000 1.0
C      1  0.6286640000000  0.5672860000000  0.4659130000000 1.0
C      1  0.4107640000000  0.5048110000000  0.6111780000000 1.0
C      1  0.5644000000000  0.4625030000000  0.3905840000000 1.0
C      1  0.5829160000000  0.5825230000000  0.4609310000000 1.0
C      1  0.4844170000000  0.4914860000000  0.5079340000000 1.0
C      1  0.4231950000000  0.4005360000000  0.4911500000000 1.0
C      1  0.4988950000000  0.5454000000000  0.4496330000000 1.0
C      1  0.4101960000000  0.4323890000000  0.5299250000000 1.0
C      1  0.4291740000000  0.6127600000000  0.5555010000000 1.0
C      1  0.5256740000000  0.4701040000000  0.4956650000000 1.0
C      1  0.5186100000000  0.5480610000000  0.3938970000000 1.0
C      1  0.5432020000000  0.4255980000000  0.4432100000000 1.0
C      1  0.4434040000000  0.5258380000000  0.5406260000000 1.0
C      1  0.4835900000000  0.5055390000000  0.4225540000000 1.0
C      1  0.5445230000000  0.5631120000000  0.5132710000000 1.0
C      1  0.5983670000000  0.4559840000000  0.4259740000000 1.0
C      1  0.4814440000000  0.4026780000000  0.5138070000000 1.0
C      1  0.4685810000000  0.4178260000000  0.4939640000000 1.0
C      1  0.4086910000000  0.5270220000000  0.4758880000000 1.0
C      1  0.5348540000000  0.4991120000000  0.4992320000000 1.0
C      1  0.5922180000000  0.4153450000000  0.5775780000000 1.0
C      1  0.4968020000000  0.4509140000000  0.5942400000000 1.0
C      1  0.5935390000000  0.4045000000000  0.4203280000000 1.0
C      1  0.5841350000000  0.4743230000000  0.4088230000000 1.0
C      1  0.4201750000000  0.6378480000000  0.5494160000000 1.0
C      1  0.4253780000000  0.5490700000000  0.5982630000000 1.0
C      1  0.4476610000000  0.4870230000000  0.4509110000000 1.0
C      1  0.6171580000000  0.4878270000000  0.4554350000000 1.0
C      1  0.4750260000000  0.5589050000000  0.5254670000000 1.0
C      1  0.4323110000000  0.4632210000000  0.4074640000000 1.0
C      1  0.4515360000000  0.5538850000000  0.4665450000000 1.0
C      1  0.5662390000000  0.4472850000000  0.6594290000000 1.0
C      1  0.5676560000000  0.4191380000000  0.3591290000000 1.0
C      1  0.4925710000000  0.4586640000000  0.3890560000000 1.0
C      1  0.5717320000000  0.6419150000000  0.4958420000000 1.0
C      1  0.5177660000000  0.5211890000000  0.4854380000000 1.0
C      1  0.5262620000000  0.5705190000000  0.5336050000000 1.0
C      1  0.4399260000000  0.4157300000000  0.4217650000000 1.0
C      1  0.4460040000000  0.5794450000000  0.4768760000000 1.0
C      1  0.4196830000000  0.5710780000000  0.6135530000000 1.0
C      1  0.5066750000000  0.4716950000000  0.5773790000000 1.0
C      1  0.3630350000000  0.5128790000000  0.4911000000000 1.0
C      1  0.4806480000000  0.5117740000000  0.5724220000000 1.0
C      1  0.5183730000000  0.4518850000000  0.6383170000000 1.0
C      1  0.4582410000000  0.5053280000000  0.4094500000000 1.0
C      1  0.5588040000000  0.5732920000000  0.4493100000000 1.0
C      1  0.4164530000000  0.5896160000000  0.5445860000000 1.0
C      1  0.4477440000000  0.4387040000000  0.4049300000000 1.0
C      1  0.4177130000000  0.5176770000000  0.5006730000000 1.0
C      1  0.4414090000000  0.4862540000000  0.4223000000000 1.0
C      1  0.5717190000000  0.3887240000000  0.4280520000000 1.0
C      1  0.5323460000000  0.6180490000000  0.4794500000000 1.0
C      1  0.4089310000000  0.4114900000000  0.5110980000000 1.0
C      1  0.5955720000000  0.4075900000000  0.5519960000000 1.0
C      1  0.6004680000000  0.5498480000000  0.4286600000000 1.0
C      1  0.4423060000000  0.5302150000000  0.3648510000000 1.0
C      1  0.4996070000000  0.5253510000000  0.5886970000000 1.0
C      1  0.3808760000000  0.5245970000000  0.4724090000000 1.0
C      1  0.4780470000000  0.4822410000000  0.5356090000000 1.0
C      1  0.4542830000000  0.4664030000000  0.5390420000000 1.0
C      1  0.5835850000000  0.6637080000000  0.5038240000000 1.0
C      1  0.5718890000000  0.4662150000000  0.5442080000000 1.0
C      1  0.5344620000000  0.5473290000000  0.4914110000000 1.0
C      1  0.6196360000000  0.5631710000000  0.5148370000000 1.0
C      1  0.5576370000000  0.4812670000000  0.5881800000000 1.0
C      1  0.6007020000000  0.5103250000000  0.4536940000000 1.0
C      1  0.4783620000000  0.4958320000000  0.4550390000000 1.0
C      1  0.5420570000000  0.4492310000000  0.6498910000000 1.0
C      1  0.5620310000000  0.5038410000000  0.4862200000000 1.0
C      1  0.3534050000000  0.5341710000000  0.5373660000000 1.0
C      1  0.5463570000000  0.4016450000000  0.4289080000000 1.0
C      1  0.4746340000000  0.4256200000000  0.5589640000000 1.0
C      1  0.5595580000000  0.6182690000000  0.4874730000000 1.0
C      1  0.4848930000000  0.4270160000000  0.5852100000000 1.0
C      1  0.5456640000000  0.4530330000000  0.4842330000000 1.0
C      1  0.6056750000000  0.5690660000000  0.4498160000000 1.0
C      1  0.5269540000000  0.5221940000000  0.3997100000000 1.0
C      1  0.5705300000000  0.5754180000000  0.5092290000000 1.0
C      1  0.6026590000000  0.4294040000000  0.4182080000000 1.0
C      1  0.4987720000000  0.5649520000000  0.4045330000000 1.0
C      1  0.5398740000000  0.4753250000000  0.4427490000000 1.0
C      1  0.5932660000000  0.4512310000000  0.4760330000000 1.0
C      1  0.3907190000000  0.5836560000000  0.5515240000000 1.0
C      1  0.4726120000000  0.5648290000000  0.5886310000000 1.0
C      1  0.4770070000000  0.5421460000000  0.4698200000000 1.0
C      1  0.4714600000000  0.4466810000000  0.4969260000000 1.0
C      1  0.5418100000000  0.4798980000000  0.3886850000000 1.0
C      1  0.5156750000000  0.5913120000000  0.4405700000000 1.0
C      1  0.4854910000000  0.5150540000000  0.4842720000000 1.0
C      1  0.5746270000000  0.3624290000000  0.4347830000000 1.0
C      1  0.5628320000000  0.5707470000000  0.6173670000000 1.0
C      1  0.4848360000000  0.4116730000000  0.3891250000000 1.0
C      1  0.4479180000000  0.5526060000000  0.5297710000000 1.0
C      1  0.5129430000000  0.4776390000000  0.3930300000000 1.0
C      1  0.4717490000000  0.4650860000000  0.6332070000000 1.0
C      1  0.4799870000000  0.5781990000000  0.3889440000000 1.0
C      1  0.5813920000000  0.4387150000000  0.5851740000000 1.0
C      1  0.3514300000000  0.5284250000000  0.5113950000000 1.0
C      1  0.4561670000000  0.4426590000000  0.4522730000000 1.0
C      1  0.4517620000000  0.4413710000000  0.5523280000000 1.0
C      1  0.4633870000000  0.5930940000000  0.3754600000000 1.0
C      1  0.4991140000000  0.5696040000000  0.5268260000000 1.0
C      1  0.4460530000000  0.4624630000000  0.4936640000000 1.0
C      1  0.5425600000000  0.5021290000000  0.5279840000000 1.0
C      1  0.5458270000000  0.5555680000000  0.4664350000000 1.0
C      1  0.5887060000000  0.4219010000000  0.5303650000000 1.0
C      1  0.5771050000000  0.4466610000000  0.5231830000000 1.0
C      1  0.5253410000000  0.3920200000000  0.4132010000000 1.0
C      1  0.6337920000000  0.5639570000000  0.4920510000000 1.0
C      1  0.4276590000000  0.3998850000000  0.5963720000000 1.0
C      1  0.4927920000000  0.4705290000000  0.4617770000000 1.0
C      1  0.5704850000000  0.4613870000000  0.5728250000000 1.0
C      1  0.4958780000000  0.4560450000000  0.6223960000000 1.0
C      1  0.5038630000000  0.3952910000000  0.3979340000000 1.0
C      1  0.3671570000000  0.4856900000000  0.4971720000000 1.0
C      1  0.5746090000000  0.5937610000000  0.4868880000000 1.0
C      1  0.4739530000000  0.4374530000000  0.3925980000000 1.0
C      1  0.5431700000000  0.4504950000000  0.4557580000000 1.0
C      1  0.3833340000000  0.5307380000000  0.5804100000000 1.0
C      1  0.5057020000000  0.5030530000000  0.4056020000000 1.0
C      1  0.3832140000000  0.4689690000000  0.5102630000000 1.0
C      1  0.5251160000000  0.5653470000000  0.5862730000000 1.0
C      1  0.5678070000000  0.4938540000000  0.5378730000000 1.0
C      1  0.5462510000000  0.5547290000000  0.6028180000000 1.0
C      1  0.5683120000000  0.5060460000000  0.5994670000000 1.0
C      1  0.4332220000000  0.4748460000000  0.5193090000000 1.0
C      1  0.5291300000000  0.4856140000000  0.5873330000000 1.0
C      1  0.4512290000000  0.6089610000000  0.5723080000000 1.0
C      1  0.4077940000000  0.4644900000000  0.3950810000000 1.0
C      1  0.4844690000000  0.4075190000000  0.5399750000000 1.0
C      1  0.4303110000000  0.5746730000000  0.5248890000000 1.0
C      1  0.5785190000000  0.5043310000000  0.4106580000000 1.0
C      1  0.6052540000000  0.4624970000000  0.4529320000000 1.0
C      1  0.4252710000000  0.4870810000000  0.6245330000000 1.0
C      1  0.4515630000000  0.3967720000000  0.6081660000000 1.0
C      1  0.5940750000000  0.5669950000000  0.5221170000000 1.0
C      1  0.5720380000000  0.4501540000000  0.4951260000000 1.0
C      1  0.4457610000000  0.4164690000000  0.4498910000000 1.0
C      1  0.4284340000000  0.5389160000000  0.4599370000000 1.0
C      1  0.4182410000000  0.4132410000000  0.5751870000000 1.0
C      1  0.4899380000000  0.4879090000000  0.5603700000000 1.0
C      1  0.4469220000000  0.4743850000000  0.6330900000000 1.0
C      1  0.5320020000000  0.5748870000000  0.5606830000000 1.0
C      1  0.5480190000000  0.5264960000000  0.6028070000000 1.0
C      1  0.4674690000000  0.5919920000000  0.5847740000000 1.0
C      1  0.5428110000000  0.5884620000000  0.4322430000000 1.0
C      1  0.3650790000000  0.5331940000000  0.5612560000000 1.0
C      1  0.4757570000000  0.4073990000000  0.6033130000000 1.0
C      1  0.5836170000000  0.5143440000000  0.4752560000000 1.0
C      1  0.5332840000000  0.5013630000000  0.4432660000000 1.0
C      1  0.4417680000000  0.4638790000000  0.4657320000000 1.0
C      1  0.5233730000000  0.5124710000000  0.5961510000000 1.0
C      1  0.4469380000000  0.4066440000000  0.4771160000000 1.0
C      1  0.4503950000000  0.5462800000000  0.5851340000000 1.0
C      1  0.4988900000000  0.5537990000000  0.5898180000000 1.0
C      1  0.5935490000000  0.5220340000000  0.4284930000000 1.0
C      1  0.4060780000000  0.5281210000000  0.5964670000000 1.0
C      1  0.4312980000000  0.5059850000000  0.5222820000000 1.0
C      1  0.5882120000000  0.5117580000000  0.5412570000000 1.0
END
