TITL C-247198-3593-573 99876.6117946373 125000 -1062.89611491983 0 0 176 (C1) n - 1
REM
REM in /home/nfs/bkarasulu/CARBON/AIRSS/Generating-Clusters/LCBOP/Only-C1/SD-CG/FIRE-HFTN
REM
REM
REM
REM
REM
REM ./C.cell (11c1c37f851c82e70ff6c80c92926a4b)
REM AIRSS Version 0.9.1 bugfix July 2018 build 013d7b7c2542+ Fri, 06 Jul 2018 19:26:36 +0100
REM compiler GCC version 9.2.1 20190827 (Red Hat 9.2.1-1)
REM options -cpp -mtune=generic -march=x86-64 -g -O0 -fpre-include=/usr/include/finclude/math-vector-fortran.h
REM seed 283480704 -785978041 927959811 962027719 -1045352605 1614837297 -270276928 -1802522452 469257688 1039779168 -1270919453 -52002592 -488363840 -1668268640 814514333 -757867595 1964317360 824953936 1554866282 1398450041 27122894 -359394355 1679470858 -171377591 -1639643489 1987258851 773441479 378259289 -479279853 -932615807 -1920454337 1634004836 -2099493396
REM
CELL 1.54180   50.00000   50.00000   50.00000   90.00000   90.00000   90.00000
LATT -1
SFAC C  
C      1  0.5382990000000  0.5868360000000  0.4307920000000 1.0
C      1  0.4135160000000  0.4317560000000  0.4789150000000 1.0
C      1  0.4819980000000  0.4750760000000  0.4096460000000 1.0
C      1  0.4040670000000  0.4571630000000  0.4898150000000 1.0
C      1  0.5488970000000  0.5476730000000  0.5422040000000 1.0
C      1  0.5981690000000  0.4514630000000  0.5358730000000 1.0
C      1  0.5616970000000  0.4600330000000  0.4616380000000 1.0
C      1  0.3995080000000  0.5391670000000  0.4588420000000 1.0
C      1  0.4866680000000  0.5935510000000  0.4327730000000 1.0
C      1  0.5072020000000  0.5262150000000  0.5162980000000 1.0
C      1  0.5831750000000  0.4280100000000  0.4217560000000 1.0
C      1  0.4943950000000  0.4563960000000  0.5524520000000 1.0
C      1  0.4680810000000  0.4108700000000  0.3899500000000 1.0
C      1  0.5615680000000  0.4377970000000  0.4794500000000 1.0
C      1  0.5412550000000  0.4147660000000  0.5208800000000 1.0
C      1  0.5310510000000  0.5700200000000  0.5385100000000 1.0
C      1  0.4484630000000  0.5043870000000  0.4516230000000 1.0
C      1  0.4446580000000  0.5935130000000  0.5282120000000 1.0
C      1  0.5516860000000  0.5292440000000  0.5202790000000 1.0
C      1  0.5778160000000  0.4724980000000  0.4416600000000 1.0
C      1  0.4962620000000  0.5494790000000  0.5788650000000 1.0
C      1  0.4823460000000  0.5110420000000  0.6223700000000 1.0
C      1  0.4205080000000  0.5319680000000  0.5109650000000 1.0
C      1  0.5105260000000  0.4184500000000  0.5233980000000 1.0
C      1  0.4806930000000  0.4946940000000  0.5351470000000 1.0
C      1  0.6344960000000  0.5091330000000  0.5190780000000 1.0
C      1  0.4222860000000  0.4110680000000  0.4975910000000 1.0
C      1  0.5665060000000  0.4750280000000  0.4147420000000 1.0
C      1  0.5305370000000  0.5172240000000  0.5040330000000 1.0
C      1  0.5204400000000  0.5588110000000  0.5907250000000 1.0
C      1  0.5490430000000  0.5395980000000  0.4064910000000 1.0
C      1  0.3796510000000  0.5108890000000  0.5285280000000 1.0
C      1  0.5062810000000  0.4422420000000  0.4831880000000 1.0
C      1  0.5478250000000  0.3900840000000  0.5062890000000 1.0
C      1  0.5700360000000  0.5021850000000  0.4800160000000 1.0
C      1  0.5362870000000  0.4264890000000  0.5807760000000 1.0
C      1  0.5878420000000  0.5281270000000  0.4381860000000 1.0
C      1  0.4706080000000  0.4017100000000  0.5461050000000 1.0
C      1  0.5436320000000  0.5428990000000  0.5928180000000 1.0
C      1  0.5452030000000  0.5666220000000  0.4126960000000 1.0
C      1  0.4938520000000  0.6043770000000  0.5470910000000 1.0
C      1  0.5401090000000  0.4969520000000  0.4844500000000 1.0
C      1  0.5624780000000  0.4267450000000  0.5690670000000 1.0
C      1  0.5057610000000  0.5005340000000  0.5854370000000 1.0
C      1  0.3911410000000  0.4316670000000  0.5289290000000 1.0
C      1  0.5032140000000  0.6050280000000  0.4760300000000 1.0
C      1  0.5917980000000  0.5942100000000  0.5261460000000 1.0
C      1  0.5993550000000  0.4796300000000  0.5358050000000 1.0
C      1  0.4806190000000  0.4863910000000  0.5071520000000 1.0
C      1  0.4852770000000  0.5671730000000  0.5189270000000 1.0
C      1  0.4275100000000  0.5429890000000  0.5662730000000 1.0
C      1  0.5758230000000  0.5308350000000  0.4125870000000 1.0
C      1  0.4629090000000  0.4361370000000  0.3827670000000 1.0
C      1  0.4625020000000  0.4420890000000  0.5171290000000 1.0
C      1  0.5099990000000  0.5107260000000  0.6127090000000 1.0
C      1  0.5828590000000  0.6150590000000  0.5389780000000 1.0
C      1  0.3944040000000  0.5209940000000  0.5064110000000 1.0
C      1  0.4489340000000  0.3988140000000  0.4960720000000 1.0
C      1  0.4608370000000  0.4483680000000  0.4882450000000 1.0
C      1  0.4786250000000  0.6605480000000  0.4980670000000 1.0
C      1  0.4863890000000  0.5532570000000  0.4065900000000 1.0
C      1  0.4745210000000  0.5681190000000  0.5777130000000 1.0
C      1  0.5228960000000  0.4344250000000  0.4092340000000 1.0
C      1  0.5435970000000  0.5335020000000  0.4562900000000 1.0
C      1  0.5162820000000  0.4061640000000  0.5729370000000 1.0
C      1  0.5272970000000  0.4776020000000  0.5834650000000 1.0
C      1  0.4478040000000  0.5593490000000  0.5772190000000 1.0
C      1  0.4114540000000  0.5256850000000  0.4351270000000 1.0
C      1  0.5001040000000  0.4628950000000  0.5028740000000 1.0
C      1  0.5132050000000  0.5988790000000  0.4247050000000 1.0
C      1  0.3764790000000  0.5033980000000  0.5543460000000 1.0
C      1  0.5428230000000  0.3924950000000  0.4769890000000 1.0
C      1  0.5686800000000  0.4471400000000  0.4051130000000 1.0
C      1  0.4811720000000  0.3992110000000  0.4101750000000 1.0
C      1  0.4548810000000  0.4170770000000  0.5651450000000 1.0
C      1  0.5565460000000  0.4865460000000  0.5371590000000 1.0
C      1  0.4533210000000  0.5494260000000  0.4797130000000 1.0
C      1  0.5447200000000  0.4374290000000  0.3941770000000 1.0
C      1  0.4983750000000  0.5226180000000  0.5677460000000 1.0
C      1  0.6159110000000  0.5228690000000  0.5367410000000 1.0
C      1  0.4129710000000  0.4692460000000  0.4450370000000 1.0
C      1  0.5694390000000  0.5218300000000  0.4589530000000 1.0
C      1  0.5344480000000  0.4717120000000  0.4596290000000 1.0
C      1  0.4445700000000  0.4160370000000  0.4491570000000 1.0
C      1  0.4066720000000  0.5543090000000  0.5489730000000 1.0
C      1  0.5629320000000  0.4118550000000  0.4652660000000 1.0
C      1  0.4871980000000  0.4878510000000  0.4582150000000 1.0
C      1  0.5053180000000  0.4155280000000  0.4940170000000 1.0
C      1  0.5551730000000  0.4360940000000  0.5070510000000 1.0
C      1  0.4175180000000  0.5959520000000  0.5340550000000 1.0
C      1  0.5984030000000  0.5707470000000  0.5122550000000 1.0
C      1  0.3861400000000  0.5236300000000  0.4791760000000 1.0
C      1  0.4423330000000  0.5490970000000  0.5065860000000 1.0
C      1  0.5991450000000  0.5038700000000  0.5535090000000 1.0
C      1  0.6330200000000  0.4680000000000  0.4858420000000 1.0
C      1  0.4140690000000  0.4779120000000  0.4730120000000 1.0
C      1  0.4886420000000  0.3942000000000  0.4588640000000 1.0
C      1  0.5392930000000  0.5180740000000  0.6088990000000 1.0
C      1  0.5002390000000  0.4045430000000  0.5482560000000 1.0
C      1  0.5415180000000  0.4923870000000  0.4130940000000 1.0
C      1  0.5173930000000  0.4459250000000  0.4582720000000 1.0
C      1  0.4577640000000  0.6150900000000  0.5169390000000 1.0
C      1  0.5533510000000  0.4964830000000  0.5902590000000 1.0
C      1  0.4942520000000  0.4064060000000  0.4338950000000 1.0
C      1  0.4569290000000  0.5056300000000  0.6125090000000 1.0
C      1  0.4613980000000  0.3602600000000  0.5226010000000 1.0
C      1  0.5870070000000  0.4170820000000  0.4483480000000 1.0
C      1  0.5123760000000  0.3856540000000  0.5911520000000 1.0
C      1  0.4815490000000  0.5952150000000  0.5712400000000 1.0
C      1  0.4278590000000  0.5009010000000  0.5431880000000 1.0
C      1  0.6075880000000  0.5485700000000  0.5276570000000 1.0
C      1  0.5387860000000  0.4676230000000  0.5382610000000 1.0
C      1  0.4924910000000  0.5270170000000  0.4122830000000 1.0
C      1  0.4931750000000  0.5457350000000  0.5028110000000 1.0
C      1  0.4408710000000  0.4643040000000  0.5876040000000 1.0
C      1  0.5250120000000  0.4830950000000  0.4342040000000 1.0
C      1  0.6142920000000  0.5576660000000  0.4672970000000 1.0
C      1  0.6388220000000  0.4904400000000  0.4999250000000 1.0
C      1  0.4714870000000  0.4730420000000  0.5517420000000 1.0
C      1  0.5739830000000  0.5111840000000  0.5712710000000 1.0
C      1  0.6093550000000  0.4275660000000  0.4643440000000 1.0
C      1  0.4326480000000  0.5144640000000  0.5672070000000 1.0
C      1  0.6182500000000  0.4435300000000  0.4867040000000 1.0
C      1  0.3899420000000  0.4544630000000  0.5140510000000 1.0
C      1  0.4515490000000  0.4913360000000  0.5002890000000 1.0
C      1  0.5734360000000  0.5827250000000  0.4695500000000 1.0
C      1  0.4566150000000  0.5683900000000  0.5225680000000 1.0
C      1  0.5306770000000  0.4503200000000  0.5973360000000 1.0
C      1  0.4809400000000  0.6002950000000  0.4595050000000 1.0
C      1  0.4063510000000  0.4103850000000  0.5212370000000 1.0
C      1  0.4094510000000  0.5651890000000  0.4702600000000 1.0
C      1  0.5593130000000  0.5379630000000  0.5682240000000 1.0
C      1  0.5282060000000  0.5189320000000  0.4064920000000 1.0
C      1  0.4787540000000  0.5372630000000  0.4796510000000 1.0
C      1  0.3987240000000  0.5719110000000  0.4974080000000 1.0
C      1  0.4542260000000  0.5991920000000  0.4702120000000 1.0
C      1  0.6115120000000  0.5405480000000  0.4466950000000 1.0
C      1  0.5851830000000  0.4971640000000  0.5039930000000 1.0
C      1  0.5297060000000  0.6014980000000  0.4756140000000 1.0
C      1  0.4689110000000  0.4606170000000  0.3915730000000 1.0
C      1  0.4970900000000  0.4819950000000  0.4319190000000 1.0
C      1  0.5124440000000  0.3947220000000  0.4757940000000 1.0
C      1  0.5116160000000  0.4294930000000  0.4344930000000 1.0
C      1  0.5194170000000  0.4667740000000  0.5572840000000 1.0
C      1  0.4039260000000  0.4944910000000  0.5982320000000 1.0
C      1  0.4610670000000  0.4001310000000  0.4684900000000 1.0
C      1  0.4344620000000  0.4957230000000  0.5926200000000 1.0
C      1  0.4371710000000  0.5378900000000  0.4251900000000 1.0
C      1  0.4711510000000  0.4655310000000  0.4689940000000 1.0
C      1  0.4365930000000  0.4829800000000  0.5240020000000 1.0
C      1  0.4231600000000  0.4352560000000  0.4513060000000 1.0
C      1  0.4016070000000  0.5734490000000  0.5268280000000 1.0
C      1  0.3840930000000  0.4976870000000  0.5797000000000 1.0
C      1  0.6085070000000  0.4381390000000  0.5129700000000 1.0
C      1  0.5954900000000  0.5710810000000  0.4835900000000 1.0
C      1  0.4516880000000  0.6209960000000  0.4894190000000 1.0
C      1  0.4596030000000  0.6477820000000  0.4830160000000 1.0
C      1  0.4591030000000  0.5185490000000  0.4284980000000 1.0
C      1  0.4079500000000  0.4953340000000  0.4306270000000 1.0
C      1  0.4460370000000  0.5643680000000  0.4329890000000 1.0
C      1  0.4372780000000  0.4944760000000  0.4761490000000 1.0
C      1  0.4962260000000  0.5166800000000  0.5404730000000 1.0
C      1  0.4714180000000  0.5727240000000  0.4211230000000 1.0
C      1  0.4461540000000  0.4386320000000  0.5796620000000 1.0
C      1  0.5833940000000  0.4370590000000  0.5555180000000 1.0
C      1  0.5174830000000  0.5279370000000  0.4557540000000 1.0
C      1  0.5682230000000  0.5071990000000  0.5233640000000 1.0
C      1  0.4899750000000  0.6496330000000  0.5204700000000 1.0
C      1  0.4602620000000  0.3880630000000  0.5214950000000 1.0
C      1  0.4926170000000  0.4436940000000  0.5259850000000 1.0
C      1  0.5055350000000  0.5819920000000  0.5330100000000 1.0
C      1  0.5488200000000  0.5905350000000  0.4577860000000 1.0
C      1  0.4815250000000  0.6244810000000  0.5304980000000 1.0
C      1  0.4397060000000  0.5717020000000  0.4625860000000 1.0
C      1  0.4496940000000  0.4604720000000  0.5357010000000 1.0
C      1  0.4926980000000  0.5168690000000  0.4649440000000 1.0
END
