TITL C-247199-3331-515 -7.44152470266782e-07 125000 -540.35963727826 0 0 89 (C1) n - 1
REM
REM in /home/nfs/bkarasulu/CARBON/AIRSS/Generating-Clusters/LCBOP/Only-C1/SD-CG/FIRE-HFTN
REM
REM
REM
REM
REM
REM ./C.cell (11c1c37f851c82e70ff6c80c92926a4b)
REM AIRSS Version 0.9.1 bugfix July 2018 build 013d7b7c2542+ Fri, 06 Jul 2018 19:26:36 +0100
REM compiler GCC version 9.2.1 20190827 (Red Hat 9.2.1-1)
REM options -cpp -mtune=generic -march=x86-64 -g -O0 -fpre-include=/usr/include/finclude/math-vector-fortran.h
REM seed -353316789 -325491498 -1733992070 298650635 103072558 2049909695 -589113799 1480483615 1081071395 -1539293346 1717510130 -1276689234 855262118 -1360783358 1539025454 360230912 -2091946635 -758008714 -1071426329 1567428714 1668102750 1917814521 -40181744 1439300668 396164648 -150588834 -1291863656 -672884166 -1778441473 -2143114567 732383400 591246643 -22437297
REM
CELL 1.54180   50.00000   50.00000   50.00000   90.00000   90.00000   90.00000
LATT -1
SFAC C  
C      1  0.5046540000000  0.5152490000000  0.5978090000000 1.0
C      1  0.4232740000000  0.4706510000000  0.4835730000000 1.0
C      1  0.4648350000000  0.5728260000000  0.5550860000000 1.0
C      1  0.4703040000000  0.5744550000000  0.5016590000000 1.0
C      1  0.5647510000000  0.5159660000000  0.5439420000000 1.0
C      1  0.4781350000000  0.5940090000000  0.4849150000000 1.0
C      1  0.4625160000000  0.4931570000000  0.4324370000000 1.0
C      1  0.5512930000000  0.5133330000000  0.5699330000000 1.0
C      1  0.4819440000000  0.4468040000000  0.5647160000000 1.0
C      1  0.5800530000000  0.4965120000000  0.4334100000000 1.0
C      1  0.5623410000000  0.5129170000000  0.4175510000000 1.0
C      1  0.4882590000000  0.4581150000000  0.4705420000000 1.0
C      1  0.4054020000000  0.5099070000000  0.5099990000000 1.0
C      1  0.4482990000000  0.5389930000000  0.4304090000000 1.0
C      1  0.5869280000000  0.5001260000000  0.4612620000000 1.0
C      1  0.5272840000000  0.5593290000000  0.4988030000000 1.0
C      1  0.4396830000000  0.4632040000000  0.4612490000000 1.0
C      1  0.4647760000000  0.5331570000000  0.4740110000000 1.0
C      1  0.4878080000000  0.5604590000000  0.5476170000000 1.0
C      1  0.5373190000000  0.4987000000000  0.4111420000000 1.0
C      1  0.4133190000000  0.4985490000000  0.4827580000000 1.0
C      1  0.4688170000000  0.5250200000000  0.5220070000000 1.0
C      1  0.4891690000000  0.5654920000000  0.4475980000000 1.0
C      1  0.4914650000000  0.4321740000000  0.5425070000000 1.0
C      1  0.4138800000000  0.5352600000000  0.5219340000000 1.0
C      1  0.4854040000000  0.4745600000000  0.5752300000000 1.0
C      1  0.4191990000000  0.5095990000000  0.4562730000000 1.0
C      1  0.4490160000000  0.4835100000000  0.5406730000000 1.0
C      1  0.5367180000000  0.4426350000000  0.5734260000000 1.0
C      1  0.5924340000000  0.5259780000000  0.4700100000000 1.0
C      1  0.5348360000000  0.4634900000000  0.4964940000000 1.0
C      1  0.4331050000000  0.4437410000000  0.4433420000000 1.0
C      1  0.4582770000000  0.5470140000000  0.5008950000000 1.0
C      1  0.5463920000000  0.4709600000000  0.4133660000000 1.0
C      1  0.4816890000000  0.4413080000000  0.4939370000000 1.0
C      1  0.4594450000000  0.4519980000000  0.5079370000000 1.0
C      1  0.5154270000000  0.4587630000000  0.4653990000000 1.0
C      1  0.4800090000000  0.4990190000000  0.5920810000000 1.0
C      1  0.5700440000000  0.4682490000000  0.4302180000000 1.0
C      1  0.5717650000000  0.4554660000000  0.4562870000000 1.0
C      1  0.5236980000000  0.5107690000000  0.4688480000000 1.0
C      1  0.4962610000000  0.5346470000000  0.5336650000000 1.0
C      1  0.5603000000000  0.5648670000000  0.4642470000000 1.0
C      1  0.4857600000000  0.5911210000000  0.4591250000000 1.0
C      1  0.5169750000000  0.5248640000000  0.4455200000000 1.0
C      1  0.5130140000000  0.5088480000000  0.4220570000000 1.0
C      1  0.4289410000000  0.5505270000000  0.5044240000000 1.0
C      1  0.4394640000000  0.5120710000000  0.4347880000000 1.0
C      1  0.4866750000000  0.4987500000000  0.4181130000000 1.0
C      1  0.5627280000000  0.4768870000000  0.5000530000000 1.0
C      1  0.5145460000000  0.5528660000000  0.4505230000000 1.0
C      1  0.4713600000000  0.5003930000000  0.5043660000000 1.0
C      1  0.4717020000000  0.4760600000000  0.5217050000000 1.0
C      1  0.4244320000000  0.5437320000000  0.5542240000000 1.0
C      1  0.5665390000000  0.4947910000000  0.5233980000000 1.0
C      1  0.5325570000000  0.4699880000000  0.5702810000000 1.0
C      1  0.5475770000000  0.4244370000000  0.5572150000000 1.0
C      1  0.4312760000000  0.4575460000000  0.5076800000000 1.0
C      1  0.5178910000000  0.4845610000000  0.5085270000000 1.0
C      1  0.5086500000000  0.5151020000000  0.5531980000000 1.0
C      1  0.4546790000000  0.5134490000000  0.5898030000000 1.0
C      1  0.5004780000000  0.4764620000000  0.5288990000000 1.0
C      1  0.5529520000000  0.4869380000000  0.5798080000000 1.0
C      1  0.4664230000000  0.4788900000000  0.4594270000000 1.0
C      1  0.5270030000000  0.4391830000000  0.4485810000000 1.0
C      1  0.5197070000000  0.5103720000000  0.4965490000000 1.0
C      1  0.5261480000000  0.3983290000000  0.4699170000000 1.0
C      1  0.5147600000000  0.5357320000000  0.5093590000000 1.0
C      1  0.5485020000000  0.4246170000000  0.5306080000000 1.0
C      1  0.4525160000000  0.5116450000000  0.5440590000000 1.0
C      1  0.4379030000000  0.5687970000000  0.5561980000000 1.0
C      1  0.5444370000000  0.4166750000000  0.4837360000000 1.0
C      1  0.4240050000000  0.4715670000000  0.5321410000000 1.0
C      1  0.4405220000000  0.5230150000000  0.5667020000000 1.0
C      1  0.5239980000000  0.5229480000000  0.5767340000000 1.0
C      1  0.5436530000000  0.5738450000000  0.5166180000000 1.0
C      1  0.5324170000000  0.4331700000000  0.5071430000000 1.0
C      1  0.5742320000000  0.5418530000000  0.5382390000000 1.0
C      1  0.4667090000000  0.5481560000000  0.4496470000000 1.0
C      1  0.5648850000000  0.5658160000000  0.5309140000000 1.0
C      1  0.5536930000000  0.4345920000000  0.4616030000000 1.0
C      1  0.5784740000000  0.4764410000000  0.4760490000000 1.0
C      1  0.4683690000000  0.5045050000000  0.4772210000000 1.0
C      1  0.5080940000000  0.4841270000000  0.5562820000000 1.0
C      1  0.5828070000000  0.5507900000000  0.4675510000000 1.0
C      1  0.5156740000000  0.4123180000000  0.4480950000000 1.0
C      1  0.4019760000000  0.4889300000000  0.5293300000000 1.0
C      1  0.5014250000000  0.4309610000000  0.5137930000000 1.0
C      1  0.5329470000000  0.5623980000000  0.4706010000000 1.0
END
