TITL C-247197-3123-426 61987.720712292 125000 -360.835613041128 0 0 61 (C1) n - 1
REM
REM in /home/nfs/bkarasulu/CARBON/AIRSS/Generating-Clusters/LCBOP/Only-C1/SD-CG/FIRE-HFTN
REM
REM
REM
REM
REM
REM ./C.cell (11c1c37f851c82e70ff6c80c92926a4b)
REM AIRSS Version 0.9.1 bugfix July 2018 build 013d7b7c2542+ Fri, 06 Jul 2018 19:26:36 +0100
REM compiler GCC version 9.2.1 20190827 (Red Hat 9.2.1-1)
REM options -cpp -mtune=generic -march=x86-64 -g -O0 -fpre-include=/usr/include/finclude/math-vector-fortran.h
REM seed 1479121847 900538 -1835492767 -2137642284 512294834 235873257 877306714 -561131049 -551210705 -555267805 -1061058131 1719098763 -1318708631 -1713155372 -425167548 -275876897 1996882058 -1025249793 -15611058 -276658599 1538502894 1682787069 1211939511 606076539 -333125852 -177910381 -1418606343 1323097440 125165055 266751 -599270804 -556439528 -1059229299
REM
CELL 1.54180   50.00000   50.00000   50.00000   90.00000   90.00000   90.00000
LATT -1
SFAC C  
C      1  0.4452580000000  0.5158160000000  0.5637370000000 1.0
C      1  0.4211340000000  0.5091280000000  0.4701060000000 1.0
C      1  0.5216100000000  0.4633750000000  0.6304110000000 1.0
C      1  0.5776170000000  0.5120850000000  0.4924990000000 1.0
C      1  0.4396410000000  0.5300560000000  0.4628960000000 1.0
C      1  0.5016900000000  0.5681660000000  0.5068210000000 1.0
C      1  0.4833870000000  0.4581030000000  0.4678910000000 1.0
C      1  0.4391860000000  0.4945870000000  0.5459330000000 1.0
C      1  0.5189240000000  0.4939710000000  0.4115140000000 1.0
C      1  0.4942330000000  0.4816850000000  0.4183620000000 1.0
C      1  0.4566280000000  0.4750820000000  0.5002280000000 1.0
C      1  0.5210520000000  0.4822800000000  0.5809180000000 1.0
C      1  0.4196070000000  0.5024940000000  0.5250980000000 1.0
C      1  0.5506940000000  0.5526910000000  0.4985470000000 1.0
C      1  0.5483760000000  0.4569060000000  0.4650420000000 1.0
C      1  0.4744630000000  0.4960100000000  0.4382030000000 1.0
C      1  0.4741000000000  0.4541690000000  0.4934980000000 1.0
C      1  0.5464620000000  0.5418400000000  0.4713680000000 1.0
C      1  0.4233970000000  0.4901220000000  0.4480630000000 1.0
C      1  0.5246530000000  0.5341540000000  0.5328880000000 1.0
C      1  0.5063520000000  0.4978250000000  0.4813510000000 1.0
C      1  0.5608330000000  0.4568480000000  0.5354120000000 1.0
C      1  0.4984110000000  0.4530260000000  0.4254320000000 1.0
C      1  0.4938400000000  0.5820420000000  0.4830740000000 1.0
C      1  0.5456300000000  0.4492780000000  0.5121410000000 1.0
C      1  0.5196650000000  0.4404790000000  0.5017270000000 1.0
C      1  0.5181110000000  0.4927450000000  0.5069810000000 1.0
C      1  0.5197920000000  0.5394640000000  0.4633390000000 1.0
C      1  0.4876130000000  0.4859180000000  0.4635900000000 1.0
C      1  0.5069240000000  0.5491250000000  0.4404950000000 1.0
C      1  0.4466360000000  0.4848940000000  0.4345720000000 1.0
C      1  0.5018100000000  0.5258140000000  0.4810470000000 1.0
C      1  0.5210110000000  0.4725400000000  0.6055530000000 1.0
C      1  0.5729470000000  0.5360740000000  0.5088870000000 1.0
C      1  0.5243330000000  0.4407970000000  0.4708680000000 1.0
C      1  0.5428890000000  0.4867820000000  0.4218480000000 1.0
C      1  0.4292910000000  0.4716140000000  0.4949410000000 1.0
C      1  0.5019160000000  0.4431650000000  0.4525400000000 1.0
C      1  0.4553560000000  0.5403580000000  0.5600750000000 1.0
C      1  0.5237930000000  0.4461430000000  0.6800310000000 1.0
C      1  0.4793310000000  0.5539510000000  0.4449050000000 1.0
C      1  0.4160390000000  0.4971990000000  0.4965830000000 1.0
C      1  0.5273840000000  0.5562830000000  0.5147020000000 1.0
C      1  0.5788400000000  0.4771610000000  0.5295250000000 1.0
C      1  0.5213620000000  0.4919710000000  0.5562660000000 1.0
C      1  0.4791170000000  0.5278230000000  0.4999170000000 1.0
C      1  0.5226350000000  0.4546150000000  0.6554040000000 1.0
C      1  0.4798080000000  0.4559780000000  0.5385520000000 1.0
C      1  0.4634560000000  0.5304700000000  0.4471320000000 1.0
C      1  0.5769290000000  0.4854570000000  0.5016240000000 1.0
C      1  0.5218400000000  0.5058980000000  0.5321210000000 1.0
C      1  0.4799940000000  0.5512600000000  0.5159250000000 1.0
C      1  0.4930310000000  0.4463970000000  0.5137550000000 1.0
C      1  0.4756070000000  0.5778860000000  0.4610060000000 1.0
C      1  0.5526260000000  0.4706740000000  0.4410190000000 1.0
C      1  0.4668960000000  0.5540660000000  0.5402840000000 1.0
C      1  0.4656610000000  0.5027200000000  0.5044320000000 1.0
C      1  0.5604160000000  0.4640190000000  0.4899380000000 1.0
C      1  0.5656910000000  0.5206610000000  0.4673280000000 1.0
C      1  0.4557790000000  0.5958690000000  0.4554010000000 1.0
C      1  0.4582910000000  0.4719870000000  0.5462590000000 1.0
END
