TITL C-247197-3123-102 -1.63007077573517e-09 125000 -681.346084846607 0 0 113 (C1) n - 1
REM
REM in /home/nfs/bkarasulu/CARBON/AIRSS/Generating-Clusters/LCBOP/Only-C1/SD-CG/FIRE-HFTN
REM
REM
REM
REM
REM
REM ./C.cell (11c1c37f851c82e70ff6c80c92926a4b)
REM AIRSS Version 0.9.1 bugfix July 2018 build 013d7b7c2542+ Fri, 06 Jul 2018 19:26:36 +0100
REM compiler GCC version 9.2.1 20190827 (Red Hat 9.2.1-1)
REM options -cpp -mtune=generic -march=x86-64 -g -O0 -fpre-include=/usr/include/finclude/math-vector-fortran.h
REM seed -952982254 -1635271272 -671404194 -1011337116 -1199639371 -1350148712 -1756112175 -128804016 -351684477 1323177489 2006449263 -1236964772 -1828826074 128171021 -1308455167 938754611 2059798588 962765966 2075161674 -1279466168 450364393 -617862363 -103216137 1938218695 -1845315888 -2092599873 1967681712 -1724778771 -1334167741 273713667 1017355697 -1488425553 -989802072
REM
CELL 1.54180   50.00000   50.00000   50.00000   90.00000   90.00000   90.00000
LATT -1
SFAC C  
C      1  0.4860050000000  0.4427060000000  0.3862100000000 1.0
C      1  0.6050540000000  0.5193010000000  0.4602190000000 1.0
C      1  0.4727900000000  0.5672610000000  0.5626970000000 1.0
C      1  0.4345550000000  0.4673350000000  0.5446570000000 1.0
C      1  0.5210290000000  0.4633360000000  0.5869510000000 1.0
C      1  0.4794270000000  0.4710250000000  0.4763170000000 1.0
C      1  0.5031090000000  0.4237170000000  0.4699450000000 1.0
C      1  0.4556520000000  0.5436990000000  0.5670090000000 1.0
C      1  0.5726440000000  0.4601210000000  0.4775280000000 1.0
C      1  0.5230170000000  0.4786190000000  0.5210900000000 1.0
C      1  0.4341670000000  0.5422760000000  0.5482090000000 1.0
C      1  0.4109040000000  0.4826520000000  0.5063020000000 1.0
C      1  0.5139700000000  0.5086790000000  0.4544850000000 1.0
C      1  0.4413050000000  0.5618960000000  0.5270070000000 1.0
C      1  0.4760310000000  0.4417810000000  0.5497110000000 1.0
C      1  0.4693160000000  0.5189340000000  0.4893030000000 1.0
C      1  0.5355390000000  0.5385830000000  0.5600260000000 1.0
C      1  0.4675020000000  0.4562650000000  0.4006510000000 1.0
C      1  0.5011420000000  0.5223720000000  0.4133600000000 1.0
C      1  0.4782850000000  0.5387840000000  0.4190200000000 1.0
C      1  0.5159650000000  0.5500090000000  0.5429920000000 1.0
C      1  0.4286840000000  0.5775360000000  0.4821590000000 1.0
C      1  0.4909030000000  0.4132140000000  0.4950340000000 1.0
C      1  0.5810280000000  0.5591450000000  0.4863600000000 1.0
C      1  0.4670930000000  0.3987490000000  0.5054500000000 1.0
C      1  0.6011880000000  0.5439820000000  0.4715500000000 1.0
C      1  0.4534400000000  0.5902310000000  0.4776620000000 1.0
C      1  0.5147160000000  0.4788020000000  0.4165410000000 1.0
C      1  0.4169480000000  0.5310570000000  0.4981540000000 1.0
C      1  0.4196980000000  0.4588950000000  0.5211450000000 1.0
C      1  0.5512410000000  0.5011350000000  0.4898680000000 1.0
C      1  0.4890240000000  0.5886680000000  0.4180910000000 1.0
C      1  0.5070260000000  0.5438090000000  0.4873180000000 1.0
C      1  0.5401950000000  0.5040200000000  0.4636780000000 1.0
C      1  0.5056100000000  0.4541320000000  0.4705170000000 1.0
C      1  0.5054920000000  0.5344840000000  0.4616700000000 1.0
C      1  0.5335990000000  0.5073990000000  0.6050600000000 1.0
C      1  0.5164730000000  0.4265070000000  0.4226460000000 1.0
C      1  0.5754950000000  0.4731980000000  0.4503770000000 1.0
C      1  0.4801300000000  0.5943990000000  0.4849470000000 1.0
C      1  0.5069200000000  0.4005460000000  0.5541520000000 1.0
C      1  0.4928610000000  0.5691770000000  0.5827730000000 1.0
C      1  0.5109130000000  0.4527250000000  0.5198160000000 1.0
C      1  0.5413000000000  0.4829230000000  0.5924950000000 1.0
C      1  0.4529450000000  0.4955390000000  0.5807130000000 1.0
C      1  0.4604260000000  0.5307660000000  0.4405440000000 1.0
C      1  0.5565680000000  0.4664610000000  0.4282930000000 1.0
C      1  0.5515730000000  0.5182920000000  0.5474220000000 1.0
C      1  0.5437080000000  0.4294290000000  0.5440530000000 1.0
C      1  0.5656350000000  0.4797920000000  0.5775580000000 1.0
C      1  0.5321550000000  0.4025500000000  0.5427200000000 1.0
C      1  0.5415940000000  0.4407230000000  0.4284060000000 1.0
C      1  0.4969560000000  0.4265420000000  0.5652890000000 1.0
C      1  0.5180950000000  0.5875230000000  0.5102150000000 1.0
C      1  0.4736920000000  0.4885000000000  0.5279320000000 1.0
C      1  0.4117670000000  0.5102550000000  0.5188580000000 1.0
C      1  0.4518930000000  0.5220340000000  0.4665380000000 1.0
C      1  0.5606330000000  0.5190730000000  0.4501810000000 1.0
C      1  0.5074450000000  0.5534030000000  0.5993990000000 1.0
C      1  0.5414230000000  0.4876110000000  0.4127570000000 1.0
C      1  0.5760350000000  0.4755640000000  0.5527840000000 1.0
C      1  0.4851260000000  0.5376970000000  0.5042530000000 1.0
C      1  0.5013820000000  0.4987860000000  0.4307430000000 1.0
C      1  0.5674130000000  0.5295140000000  0.5257750000000 1.0
C      1  0.4425110000000  0.4078490000000  0.5164330000000 1.0
C      1  0.4670150000000  0.4276460000000  0.4393530000000 1.0
C      1  0.4306680000000  0.4914380000000  0.5609470000000 1.0
C      1  0.5544420000000  0.5476110000000  0.4453790000000 1.0
C      1  0.4664760000000  0.4508700000000  0.4935160000000 1.0
C      1  0.4627550000000  0.4646510000000  0.5406380000000 1.0
C      1  0.5251360000000  0.4428960000000  0.5649760000000 1.0
C      1  0.5682380000000  0.4801480000000  0.4988820000000 1.0
C      1  0.4878460000000  0.5895620000000  0.5130500000000 1.0
C      1  0.5111430000000  0.4941250000000  0.5010580000000 1.0
C      1  0.5004450000000  0.5994990000000  0.4396270000000 1.0
C      1  0.5036050000000  0.5955960000000  0.4670260000000 1.0
C      1  0.5442920000000  0.5465950000000  0.4184020000000 1.0
C      1  0.5608410000000  0.4397930000000  0.5226660000000 1.0
C      1  0.4284010000000  0.4328020000000  0.5081770000000 1.0
C      1  0.4249950000000  0.5161610000000  0.4739630000000 1.0
C      1  0.4661200000000  0.4738360000000  0.4493410000000 1.0
C      1  0.5285290000000  0.5876800000000  0.4808880000000 1.0
C      1  0.4954660000000  0.4194880000000  0.4424720000000 1.0
C      1  0.5328590000000  0.4950490000000  0.5431800000000 1.0
C      1  0.4931820000000  0.4609470000000  0.5982670000000 1.0
C      1  0.5093280000000  0.4984040000000  0.5590320000000 1.0
C      1  0.5844240000000  0.5022180000000  0.4501980000000 1.0
C      1  0.4815940000000  0.4929300000000  0.4971980000000 1.0
C      1  0.4640570000000  0.4544050000000  0.4285080000000 1.0
C      1  0.4880400000000  0.4324500000000  0.5938700000000 1.0
C      1  0.4431080000000  0.4379720000000  0.4836010000000 1.0
C      1  0.4929130000000  0.5349620000000  0.5322280000000 1.0
C      1  0.5497430000000  0.5247490000000  0.5038590000000 1.0
C      1  0.4884710000000  0.4386700000000  0.5093520000000 1.0
C      1  0.4065490000000  0.5842970000000  0.4676350000000 1.0
C      1  0.5306860000000  0.5241480000000  0.4073770000000 1.0
C      1  0.4220320000000  0.5155680000000  0.5451370000000 1.0
C      1  0.4848670000000  0.5102940000000  0.5474130000000 1.0
C      1  0.4785250000000  0.5653880000000  0.4102790000000 1.0
C      1  0.4153510000000  0.4890520000000  0.4781670000000 1.0
C      1  0.5819290000000  0.5524400000000  0.5152510000000 1.0
C      1  0.5207070000000  0.5310930000000  0.6070670000000 1.0
C      1  0.5708330000000  0.4677090000000  0.5259440000000 1.0
C      1  0.5284730000000  0.5646370000000  0.5223900000000 1.0
C      1  0.5662570000000  0.4353230000000  0.4931200000000 1.0
C      1  0.5311860000000  0.5451770000000  0.5010730000000 1.0
C      1  0.5556430000000  0.5672500000000  0.4695630000000 1.0
C      1  0.4700420000000  0.4780080000000  0.5959930000000 1.0
C      1  0.4274190000000  0.5575970000000  0.5024810000000 1.0
C      1  0.4679460000000  0.5772140000000  0.5338730000000 1.0
C      1  0.5069090000000  0.4284020000000  0.3958110000000 1.0
C      1  0.4470170000000  0.4231360000000  0.4595600000000 1.0
C      1  0.4671320000000  0.5181250000000  0.5701990000000 1.0
END
