TITL C-247197-3123-447 64.4186721998537 125000 -979.950340569685 0 0 161 (C1) n - 1
REM
REM in /home/nfs/bkarasulu/CARBON/AIRSS/Generating-Clusters/LCBOP/Only-C1/SD-CG/FIRE-HFTN
REM
REM
REM
REM
REM
REM ./C.cell (11c1c37f851c82e70ff6c80c92926a4b)
REM AIRSS Version 0.9.1 bugfix July 2018 build 013d7b7c2542+ Fri, 06 Jul 2018 19:26:36 +0100
REM compiler GCC version 9.2.1 20190827 (Red Hat 9.2.1-1)
REM options -cpp -mtune=generic -march=x86-64 -g -O0 -fpre-include=/usr/include/finclude/math-vector-fortran.h
REM seed -1352975527 -1096865548 -1938932815 2074261563 -197372168 1731348464 -336322146 -1317300669 -1413370861 -424971498 358722550 2142786004 987452554 -765380349 1697117546 1864721350 -654948644 1364149433 1368641141 -1664596809 627354507 -1618257024 104906127 915549210 -620668319 -176955599 -1861301447 2000671548 1282032288 938455778 1027817088 -259039071 749908117
REM
CELL 1.54180   50.00000   50.00000   50.00000   90.00000   90.00000   90.00000
LATT -1
SFAC C  
C      1  0.4548150000000  0.5996670000000  0.5398590000000 1.0
C      1  0.5564640000000  0.4887860000000  0.5248590000000 1.0
C      1  0.5347610000000  0.5158250000000  0.3680390000000 1.0
C      1  0.4925040000000  0.4347840000000  0.4575300000000 1.0
C      1  0.5200700000000  0.4444210000000  0.4652530000000 1.0
C      1  0.5216900000000  0.6039010000000  0.5432860000000 1.0
C      1  0.4388760000000  0.5208950000000  0.4852140000000 1.0
C      1  0.5180370000000  0.4736560000000  0.4693600000000 1.0
C      1  0.5771580000000  0.4405910000000  0.5595390000000 1.0
C      1  0.5393720000000  0.5224470000000  0.5569470000000 1.0
C      1  0.4151630000000  0.5259560000000  0.4364690000000 1.0
C      1  0.4846820000000  0.3806390000000  0.5000170000000 1.0
C      1  0.4885670000000  0.5443670000000  0.5968110000000 1.0
C      1  0.4241310000000  0.5447030000000  0.4923660000000 1.0
C      1  0.4470010000000  0.5744830000000  0.5990990000000 1.0
C      1  0.5625930000000  0.4285680000000  0.4833050000000 1.0
C      1  0.5477690000000  0.5580260000000  0.4115650000000 1.0
C      1  0.5622380000000  0.5237740000000  0.4739980000000 1.0
C      1  0.4001620000000  0.5076180000000  0.4531550000000 1.0
C      1  0.4596390000000  0.5288120000000  0.3826550000000 1.0
C      1  0.5218570000000  0.5843740000000  0.4695370000000 1.0
C      1  0.4592340000000  0.5915600000000  0.3878140000000 1.0
C      1  0.5194190000000  0.4306800000000  0.5731060000000 1.0
C      1  0.5072970000000  0.4902280000000  0.4266210000000 1.0
C      1  0.4562050000000  0.3709860000000  0.4995070000000 1.0
C      1  0.4887520000000  0.3907940000000  0.5278060000000 1.0
C      1  0.4802510000000  0.5646910000000  0.4551790000000 1.0
C      1  0.4555660000000  0.5099260000000  0.4675410000000 1.0
C      1  0.4502670000000  0.3646840000000  0.5269720000000 1.0
C      1  0.4971130000000  0.4799560000000  0.4500370000000 1.0
C      1  0.4006130000000  0.5065090000000  0.5638360000000 1.0
C      1  0.5048620000000  0.6009940000000  0.4885320000000 1.0
C      1  0.4560220000000  0.5057590000000  0.4410980000000 1.0
C      1  0.5499190000000  0.5779780000000  0.4621790000000 1.0
C      1  0.4031660000000  0.5533320000000  0.5886010000000 1.0
C      1  0.4956390000000  0.4172530000000  0.5335680000000 1.0
C      1  0.5922540000000  0.4306180000000  0.4868260000000 1.0
C      1  0.4339720000000  0.4314530000000  0.4600830000000 1.0
C      1  0.5416160000000  0.5693940000000  0.5217360000000 1.0
C      1  0.5560380000000  0.5594880000000  0.4396360000000 1.0
C      1  0.4938210000000  0.4349310000000  0.5573350000000 1.0
C      1  0.4606210000000  0.6240100000000  0.4873730000000 1.0
C      1  0.4868340000000  0.5656720000000  0.5455400000000 1.0
C      1  0.5966820000000  0.4982690000000  0.4237640000000 1.0
C      1  0.5305350000000  0.4052480000000  0.4442630000000 1.0
C      1  0.4641290000000  0.5741780000000  0.5309930000000 1.0
C      1  0.4602720000000  0.5769050000000  0.4724190000000 1.0
C      1  0.4569910000000  0.4969390000000  0.5232380000000 1.0
C      1  0.5685980000000  0.5342130000000  0.4480910000000 1.0
C      1  0.4715320000000  0.5715310000000  0.4014920000000 1.0
C      1  0.5726070000000  0.5357070000000  0.5178690000000 1.0
C      1  0.5306180000000  0.4476140000000  0.5205270000000 1.0
C      1  0.4198200000000  0.5086960000000  0.6134000000000 1.0
C      1  0.4931360000000  0.4967680000000  0.4042510000000 1.0
C      1  0.4785090000000  0.4108940000000  0.4641080000000 1.0
C      1  0.5078250000000  0.4801360000000  0.5830020000000 1.0
C      1  0.4764060000000  0.4412070000000  0.3964930000000 1.0
C      1  0.4231340000000  0.4539090000000  0.5651550000000 1.0
C      1  0.5165520000000  0.5368220000000  0.5978420000000 1.0
C      1  0.5381860000000  0.4480990000000  0.5878090000000 1.0
C      1  0.5174180000000  0.3843450000000  0.4590770000000 1.0
C      1  0.5643000000000  0.4688010000000  0.4511700000000 1.0
C      1  0.4972960000000  0.4816550000000  0.5374460000000 1.0
C      1  0.5685100000000  0.5755790000000  0.4844400000000 1.0
C      1  0.6040150000000  0.4426820000000  0.5123640000000 1.0
C      1  0.4337310000000  0.4705510000000  0.5855200000000 1.0
C      1  0.5151570000000  0.6093300000000  0.5145810000000 1.0
C      1  0.4787800000000  0.4603330000000  0.5459340000000 1.0
C      1  0.5635200000000  0.4738650000000  0.4999740000000 1.0
C      1  0.5128850000000  0.5257640000000  0.5484570000000 1.0
C      1  0.4747100000000  0.6005280000000  0.4839790000000 1.0
C      1  0.5563550000000  0.5035760000000  0.5975800000000 1.0
C      1  0.4693320000000  0.3759720000000  0.5435240000000 1.0
C      1  0.4535340000000  0.4346800000000  0.4121880000000 1.0
C      1  0.4135640000000  0.4705340000000  0.4912900000000 1.0
C      1  0.5829820000000  0.5233410000000  0.4949910000000 1.0
C      1  0.5068270000000  0.5408610000000  0.3952010000000 1.0
C      1  0.5043790000000  0.4923240000000  0.5119340000000 1.0
C      1  0.4007940000000  0.4882300000000  0.4722750000000 1.0
C      1  0.6012790000000  0.4892150000000  0.4743160000000 1.0
C      1  0.5346680000000  0.4906610000000  0.4219010000000 1.0
C      1  0.4412550000000  0.5314200000000  0.5503780000000 1.0
C      1  0.5655940000000  0.5625880000000  0.5098430000000 1.0
C      1  0.4633090000000  0.4593650000000  0.4819490000000 1.0
C      1  0.4332850000000  0.6012750000000  0.5578880000000 1.0
C      1  0.4365740000000  0.5127060000000  0.4215740000000 1.0
C      1  0.4074200000000  0.5415370000000  0.5156790000000 1.0
C      1  0.5365130000000  0.5327390000000  0.3950410000000 1.0
C      1  0.4945190000000  0.3895510000000  0.4749610000000 1.0
C      1  0.4092350000000  0.4736730000000  0.5210910000000 1.0
C      1  0.4994250000000  0.6077580000000  0.5614010000000 1.0
C      1  0.5756930000000  0.4775200000000  0.4742580000000 1.0
C      1  0.4467910000000  0.5179620000000  0.5746940000000 1.0
C      1  0.4272130000000  0.5330010000000  0.6232700000000 1.0
C      1  0.5171550000000  0.5424280000000  0.4867900000000 1.0
C      1  0.6249820000000  0.4630750000000  0.5080530000000 1.0
C      1  0.6070620000000  0.4348840000000  0.4623990000000 1.0
C      1  0.3963250000000  0.4966370000000  0.5348110000000 1.0
C      1  0.3898330000000  0.5185410000000  0.5168150000000 1.0
C      1  0.5923150000000  0.4981100000000  0.5654710000000 1.0
C      1  0.5035360000000  0.5469360000000  0.5343570000000 1.0
C      1  0.5336400000000  0.5193530000000  0.4816260000000 1.0
C      1  0.5183660000000  0.4795650000000  0.5565610000000 1.0
C      1  0.5193780000000  0.5543140000000  0.5128560000000 1.0
C      1  0.4699430000000  0.5243410000000  0.5892470000000 1.0
C      1  0.4544380000000  0.4704330000000  0.5346740000000 1.0
C      1  0.4484670000000  0.4812890000000  0.3836760000000 1.0
C      1  0.5508080000000  0.5109100000000  0.4118600000000 1.0
C      1  0.4931080000000  0.5925820000000  0.5852780000000 1.0
C      1  0.4775460000000  0.5725140000000  0.4285890000000 1.0
C      1  0.4210920000000  0.5529010000000  0.4464830000000 1.0
C      1  0.4359060000000  0.5961630000000  0.5842340000000 1.0
C      1  0.3990150000000  0.5371370000000  0.5656000000000 1.0
C      1  0.5746900000000  0.5160030000000  0.4266560000000 1.0
C      1  0.4406590000000  0.3852310000000  0.4807560000000 1.0
C      1  0.5630340000000  0.5729290000000  0.5638910000000 1.0
C      1  0.5012680000000  0.4252740000000  0.3974470000000 1.0
C      1  0.6087690000000  0.4743140000000  0.4276370000000 1.0
C      1  0.6021440000000  0.4818040000000  0.5434980000000 1.0
C      1  0.5646190000000  0.4577440000000  0.5798650000000 1.0
C      1  0.5577460000000  0.5164820000000  0.5348040000000 1.0
C      1  0.4283160000000  0.4606170000000  0.5382050000000 1.0
C      1  0.4496650000000  0.4085100000000  0.4674250000000 1.0
C      1  0.4855730000000  0.4734810000000  0.5968760000000 1.0
C      1  0.5420220000000  0.4252530000000  0.4624570000000 1.0
C      1  0.5427770000000  0.5839500000000  0.5463760000000 1.0
C      1  0.6162340000000  0.4896240000000  0.5184440000000 1.0
C      1  0.5113550000000  0.4184770000000  0.3724710000000 1.0
C      1  0.4563300000000  0.5247500000000  0.5274270000000 1.0
C      1  0.4163990000000  0.5447120000000  0.5433500000000 1.0
C      1  0.5731920000000  0.4850960000000  0.5836590000000 1.0
C      1  0.5056170000000  0.5596710000000  0.4669720000000 1.0
C      1  0.6123030000000  0.4512180000000  0.4413990000000 1.0
C      1  0.4819810000000  0.4489900000000  0.5011510000000 1.0
C      1  0.5389870000000  0.4696950000000  0.5393310000000 1.0
C      1  0.4348350000000  0.4535900000000  0.4797410000000 1.0
C      1  0.6055560000000  0.5057030000000  0.4970450000000 1.0
C      1  0.4761400000000  0.6172740000000  0.5474930000000 1.0
C      1  0.5812690000000  0.5526160000000  0.5682400000000 1.0
C      1  0.4768670000000  0.5712630000000  0.5967600000000 1.0
C      1  0.4329280000000  0.5639530000000  0.4713600000000 1.0
C      1  0.4259600000000  0.5557550000000  0.6065540000000 1.0
C      1  0.5939520000000  0.4523490000000  0.5396360000000 1.0
C      1  0.5044660000000  0.4363990000000  0.5140630000000 1.0
C      1  0.4798820000000  0.5472240000000  0.3896590000000 1.0
C      1  0.5165280000000  0.4955640000000  0.3632520000000 1.0
C      1  0.5928170000000  0.5275210000000  0.5672940000000 1.0
C      1  0.4353630000000  0.4363660000000  0.4320720000000 1.0
C      1  0.4730560000000  0.4657450000000  0.3803210000000 1.0
C      1  0.5375570000000  0.4102200000000  0.5625720000000 1.0
C      1  0.5637510000000  0.4155260000000  0.5565160000000 1.0
C      1  0.4597760000000  0.5506490000000  0.5149900000000 1.0
C      1  0.4773310000000  0.4603170000000  0.4565110000000 1.0
C      1  0.4594000000000  0.4670430000000  0.5972450000000 1.0
C      1  0.4441680000000  0.5078810000000  0.3943390000000 1.0
C      1  0.4238980000000  0.4988980000000  0.5849140000000 1.0
C      1  0.5170610000000  0.4150560000000  0.4198220000000 1.0
C      1  0.5207010000000  0.4943650000000  0.4884630000000 1.0
C      1  0.5392640000000  0.5229820000000  0.5860600000000 1.0
C      1  0.4953510000000  0.4843030000000  0.3787020000000 1.0
C      1  0.5521030000000  0.4472560000000  0.5022310000000 1.0
END
