TITL C-247201-3759-367 0.181855083578794 125000 -441.144860804618 0 0 73 (C1) n - 1
REM
REM in /home/nfs/bkarasulu/CARBON/AIRSS/Generating-Clusters/LCBOP/Only-C1/SD-CG/FIRE-HFTN
REM
REM
REM
REM
REM
REM ./C.cell (11c1c37f851c82e70ff6c80c92926a4b)
REM AIRSS Version 0.9.1 bugfix July 2018 build 013d7b7c2542+ Fri, 06 Jul 2018 19:26:36 +0100
REM compiler GCC version 9.2.1 20190827 (Red Hat 9.2.1-1)
REM options -cpp -mtune=generic -march=x86-64 -g -O0 -fpre-include=/usr/include/finclude/math-vector-fortran.h
REM seed 686031175 -1924156431 -158531935 -1126730720 -1114281899 426727309 1703386275 789204191 1760008608 -41678310 -771775788 -1742469762 532640431 710757003 242363594 -399637043 -941366253 370103979 -584211025 1332647424 1421252720 -1703502978 90420336 -703853296 308677382 -719997054 -667992450 583689319 1816353403 -1428902843 1551042221 1386763415 324637188
REM
CELL 1.54180   50.00000   50.00000   50.00000   90.00000   90.00000   90.00000
LATT -1
SFAC C  
C      1  0.5309320000000  0.5230750000000  0.6331080000000 1.0
C      1  0.5705230000000  0.4554510000000  0.5044750000000 1.0
C      1  0.5294400000000  0.5838430000000  0.5330880000000 1.0
C      1  0.5319920000000  0.4326600000000  0.4804370000000 1.0
C      1  0.5506840000000  0.5584310000000  0.4291020000000 1.0
C      1  0.4750450000000  0.4324340000000  0.5438810000000 1.0
C      1  0.5247440000000  0.4227690000000  0.4329010000000 1.0
C      1  0.5576540000000  0.5178460000000  0.5437280000000 1.0
C      1  0.4859320000000  0.5237920000000  0.5341370000000 1.0
C      1  0.4395450000000  0.4440170000000  0.4981200000000 1.0
C      1  0.4782210000000  0.4606750000000  0.5391280000000 1.0
C      1  0.4189180000000  0.5503460000000  0.5073380000000 1.0
C      1  0.4502620000000  0.4435550000000  0.4247440000000 1.0
C      1  0.5412610000000  0.5336670000000  0.4294640000000 1.0
C      1  0.4441790000000  0.5064480000000  0.5556860000000 1.0
C      1  0.5205590000000  0.4867260000000  0.4419400000000 1.0
C      1  0.4587780000000  0.4096050000000  0.3867470000000 1.0
C      1  0.5587940000000  0.5014630000000  0.5199680000000 1.0
C      1  0.4991420000000  0.5480220000000  0.5262670000000 1.0
C      1  0.5230470000000  0.4425310000000  0.5268280000000 1.0
C      1  0.4551100000000  0.4999740000000  0.4814680000000 1.0
C      1  0.4834260000000  0.4776140000000  0.5145230000000 1.0
C      1  0.4177550000000  0.4879460000000  0.5204310000000 1.0
C      1  0.4428990000000  0.5229650000000  0.4765970000000 1.0
C      1  0.4232810000000  0.5107430000000  0.5368940000000 1.0
C      1  0.4730060000000  0.4717990000000  0.5647870000000 1.0
C      1  0.5428910000000  0.5095430000000  0.4980690000000 1.0
C      1  0.4486000000000  0.4270790000000  0.4039880000000 1.0
C      1  0.4980330000000  0.5806860000000  0.4695090000000 1.0
C      1  0.5136720000000  0.4302540000000  0.5021280000000 1.0
C      1  0.4715410000000  0.5810320000000  0.4657020000000 1.0
C      1  0.5588750000000  0.4384750000000  0.4870900000000 1.0
C      1  0.5157350000000  0.5167160000000  0.4986870000000 1.0
C      1  0.5083820000000  0.4644150000000  0.4533900000000 1.0
C      1  0.4653160000000  0.5249460000000  0.5527680000000 1.0
C      1  0.6052150000000  0.5808520000000  0.5578070000000 1.0
C      1  0.5364220000000  0.5107530000000  0.5621540000000 1.0
C      1  0.5046320000000  0.3977840000000  0.3918400000000 1.0
C      1  0.5137210000000  0.5636370000000  0.5451120000000 1.0
C      1  0.4592920000000  0.5503330000000  0.5651240000000 1.0
C      1  0.4506900000000  0.4848920000000  0.5717200000000 1.0
C      1  0.5221260000000  0.4395740000000  0.4549530000000 1.0
C      1  0.4806850000000  0.3946970000000  0.3775800000000 1.0
C      1  0.5642810000000  0.6089070000000  0.4373590000000 1.0
C      1  0.4346820000000  0.5487080000000  0.4840770000000 1.0
C      1  0.5695970000000  0.6337180000000  0.4433410000000 1.0
C      1  0.5583330000000  0.5836340000000  0.4320320000000 1.0
C      1  0.4816210000000  0.4656240000000  0.4626940000000 1.0
C      1  0.5374860000000  0.4636070000000  0.5394140000000 1.0
C      1  0.5911390000000  0.5593610000000  0.5533860000000 1.0
C      1  0.5598000000000  0.4731810000000  0.5235030000000 1.0
C      1  0.5310170000000  0.5095750000000  0.4335710000000 1.0
C      1  0.4731660000000  0.4787670000000  0.4866970000000 1.0
C      1  0.4479340000000  0.5704960000000  0.4724510000000 1.0
C      1  0.4818720000000  0.5595490000000  0.5797680000000 1.0
C      1  0.4969490000000  0.5029750000000  0.5174570000000 1.0
C      1  0.4248500000000  0.4642840000000  0.5089110000000 1.0
C      1  0.5758670000000  0.5382370000000  0.5486660000000 1.0
C      1  0.5102680000000  0.5452580000000  0.4995420000000 1.0
C      1  0.4618910000000  0.4563860000000  0.4448370000000 1.0
C      1  0.5310800000000  0.5870660000000  0.5059690000000 1.0
C      1  0.4799840000000  0.4110440000000  0.5283680000000 1.0
C      1  0.5091560000000  0.5541040000000  0.5715090000000 1.0
C      1  0.4788080000000  0.3781210000000  0.3560010000000 1.0
C      1  0.5243700000000  0.5305690000000  0.5799050000000 1.0
C      1  0.4867930000000  0.4190970000000  0.5018930000000 1.0
C      1  0.5279350000000  0.5268230000000  0.6074940000000 1.0
C      1  0.5192150000000  0.4081810000000  0.4114470000000 1.0
C      1  0.5295510000000  0.4826870000000  0.5596070000000 1.0
C      1  0.4617180000000  0.4294110000000  0.4911750000000 1.0
C      1  0.4200530000000  0.5398470000000  0.5334880000000 1.0
C      1  0.4330930000000  0.5563630000000  0.5541560000000 1.0
C      1  0.5165390000000  0.5703570000000  0.4878720000000 1.0
END
