TITL C-247202-1916-643 0.271954388011645 125000 -659.154874256089 0 0 108 (C1) n - 1
REM
REM in /home/nfs/bkarasulu/CARBON/AIRSS/Generating-Clusters/LCBOP/Only-C1/SD-CG/FIRE-HFTN
REM
REM
REM
REM
REM
REM ./C.cell (11c1c37f851c82e70ff6c80c92926a4b)
REM AIRSS Version 0.9.1 bugfix July 2018 build 013d7b7c2542+ Fri, 06 Jul 2018 19:26:36 +0100
REM compiler GCC version 9.2.1 20190827 (Red Hat 9.2.1-1)
REM options -cpp -mtune=generic -march=x86-64 -g -O0 -fpre-include=/usr/include/finclude/math-vector-fortran.h
REM seed 187148992 1610910828 -391122242 -1914345443 1840227715 -426175395 -1164862685 -1901284112 1756250703 -1865010796 1284693994 -5527844 10992205 -1061070733 -2082754565 -542806631 1476202789 1386054128 1218753979 -2107675187 1497278530 -748545995 -269770646 -1028617358 1673699043 1811178099 -535672228 -1481324562 638001275 -1888840279 -127809944 -1142555586 -2104355545
REM
CELL 1.54180   50.00000   50.00000   50.00000   90.00000   90.00000   90.00000
LATT -1
SFAC C  
C      1  0.4914400000000  0.5885100000000  0.5133930000000 1.0
C      1  0.4898270000000  0.4367640000000  0.5360420000000 1.0
C      1  0.5239740000000  0.4870720000000  0.4742950000000 1.0
C      1  0.4808250000000  0.5633460000000  0.4720980000000 1.0
C      1  0.4910620000000  0.5685640000000  0.4121690000000 1.0
C      1  0.5243580000000  0.5832100000000  0.4756450000000 1.0
C      1  0.4240790000000  0.4744070000000  0.4410990000000 1.0
C      1  0.5262220000000  0.4883340000000  0.6597300000000 1.0
C      1  0.5875870000000  0.5123600000000  0.4572530000000 1.0
C      1  0.5098990000000  0.4814420000000  0.4520980000000 1.0
C      1  0.4747230000000  0.5168050000000  0.5234350000000 1.0
C      1  0.4881680000000  0.5153780000000  0.3631880000000 1.0
C      1  0.4830630000000  0.5241350000000  0.4452140000000 1.0
C      1  0.5096830000000  0.4773590000000  0.5440740000000 1.0
C      1  0.4333430000000  0.4401720000000  0.5411870000000 1.0
C      1  0.5900140000000  0.4948780000000  0.5392740000000 1.0
C      1  0.5299540000000  0.4385310000000  0.4752960000000 1.0
C      1  0.5931830000000  0.5360850000000  0.4987210000000 1.0
C      1  0.5676300000000  0.5089300000000  0.5288300000000 1.0
C      1  0.4901540000000  0.5598840000000  0.5578280000000 1.0
C      1  0.4395890000000  0.5378330000000  0.4543250000000 1.0
C      1  0.5192520000000  0.5329520000000  0.4766480000000 1.0
C      1  0.4673120000000  0.5732080000000  0.4282230000000 1.0
C      1  0.5323810000000  0.5391850000000  0.4138400000000 1.0
C      1  0.4958670000000  0.5402190000000  0.4638950000000 1.0
C      1  0.4521700000000  0.4118260000000  0.4577580000000 1.0
C      1  0.4126610000000  0.4982860000000  0.4463850000000 1.0
C      1  0.5198480000000  0.5226160000000  0.5713010000000 1.0
C      1  0.5263020000000  0.5785580000000  0.4468710000000 1.0
C      1  0.4865250000000  0.4263960000000  0.5092320000000 1.0
C      1  0.5217830000000  0.5026600000000  0.5889750000000 1.0
C      1  0.5403840000000  0.4431710000000  0.5251150000000 1.0
C      1  0.4544230000000  0.5659870000000  0.4555510000000 1.0
C      1  0.4898420000000  0.4935320000000  0.3790480000000 1.0
C      1  0.4995800000000  0.4368600000000  0.4837820000000 1.0
C      1  0.5298440000000  0.4921140000000  0.6857070000000 1.0
C      1  0.4848620000000  0.4642920000000  0.5427400000000 1.0
C      1  0.4876280000000  0.5617610000000  0.3848230000000 1.0
C      1  0.4691190000000  0.4752080000000  0.4803220000000 1.0
C      1  0.4261270000000  0.5872490000000  0.4943740000000 1.0
C      1  0.4672690000000  0.5506440000000  0.5717380000000 1.0
C      1  0.3812450000000  0.5208260000000  0.4950660000000 1.0
C      1  0.5463770000000  0.5499740000000  0.5095360000000 1.0
C      1  0.4374820000000  0.4641910000000  0.5553890000000 1.0
C      1  0.4219250000000  0.5736600000000  0.5171680000000 1.0
C      1  0.4411930000000  0.4206050000000  0.5247450000000 1.0
C      1  0.4149790000000  0.5235260000000  0.4598730000000 1.0
C      1  0.5019150000000  0.5278960000000  0.5248230000000 1.0
C      1  0.4610940000000  0.4126000000000  0.5063790000000 1.0
C      1  0.5470990000000  0.4916870000000  0.5189970000000 1.0
C      1  0.4368080000000  0.5854360000000  0.4697350000000 1.0
C      1  0.5786430000000  0.4852120000000  0.4567230000000 1.0
C      1  0.6007370000000  0.4708870000000  0.5327260000000 1.0
C      1  0.5672030000000  0.5306390000000  0.4510550000000 1.0
C      1  0.5370300000000  0.4996150000000  0.7372470000000 1.0
C      1  0.4614850000000  0.4787900000000  0.5505010000000 1.0
C      1  0.5466530000000  0.4880150000000  0.4910640000000 1.0
C      1  0.5447600000000  0.5748280000000  0.4946240000000 1.0
C      1  0.5178640000000  0.5632160000000  0.4235500000000 1.0
C      1  0.4870430000000  0.5420330000000  0.3666390000000 1.0
C      1  0.5512000000000  0.4004330000000  0.5477690000000 1.0
C      1  0.4589410000000  0.5165060000000  0.4563080000000 1.0
C      1  0.4896290000000  0.5812560000000  0.5392510000000 1.0
C      1  0.5423660000000  0.4478130000000  0.4474270000000 1.0
C      1  0.5592720000000  0.4734680000000  0.4393870000000 1.0
C      1  0.5701210000000  0.5344050000000  0.5153010000000 1.0
C      1  0.4583520000000  0.4386700000000  0.4515640000000 1.0
C      1  0.4628300000000  0.5075510000000  0.5486020000000 1.0
C      1  0.5373420000000  0.4611230000000  0.4016850000000 1.0
C      1  0.4969600000000  0.5822890000000  0.4863780000000 1.0
C      1  0.5332850000000  0.4402560000000  0.4201910000000 1.0
C      1  0.5187780000000  0.4806330000000  0.6063230000000 1.0
C      1  0.5226020000000  0.4845620000000  0.6337630000000 1.0
C      1  0.4542750000000  0.4003440000000  0.4820450000000 1.0
C      1  0.4546890000000  0.5159880000000  0.5031910000000 1.0
C      1  0.5495680000000  0.4385110000000  0.4982520000000 1.0
C      1  0.5334670000000  0.4958960000000  0.7116910000000 1.0
C      1  0.5343390000000  0.4707340000000  0.5327570000000 1.0
C      1  0.4238800000000  0.5472130000000  0.5266070000000 1.0
C      1  0.4284770000000  0.5276400000000  0.5063610000000 1.0
C      1  0.5419050000000  0.5133910000000  0.4104450000000 1.0
C      1  0.5710270000000  0.4758200000000  0.4819150000000 1.0
C      1  0.5954730000000  0.4514820000000  0.5145490000000 1.0
C      1  0.5077700000000  0.4336460000000  0.5813670000000 1.0
C      1  0.5485940000000  0.4853720000000  0.4140640000000 1.0
C      1  0.4598540000000  0.5012230000000  0.4798720000000 1.0
C      1  0.5086140000000  0.4249490000000  0.5544980000000 1.0
C      1  0.4246000000000  0.5382430000000  0.5535720000000 1.0
C      1  0.4775510000000  0.4507210000000  0.4693940000000 1.0
C      1  0.6056980000000  0.5223530000000  0.4771200000000 1.0
C      1  0.5756170000000  0.4508380000000  0.4943620000000 1.0
C      1  0.4858050000000  0.5185810000000  0.4184460000000 1.0
C      1  0.4990350000000  0.4763040000000  0.4278070000000 1.0
C      1  0.4072480000000  0.5239800000000  0.4873280000000 1.0
C      1  0.4420440000000  0.4537630000000  0.4333020000000 1.0
C      1  0.6326820000000  0.5188840000000  0.4755130000000 1.0
C      1  0.5077210000000  0.5381530000000  0.5513140000000 1.0
C      1  0.4020360000000  0.5377690000000  0.5697870000000 1.0
C      1  0.5215630000000  0.5345370000000  0.5051320000000 1.0
C      1  0.4436160000000  0.4475230000000  0.4065660000000 1.0
C      1  0.5426710000000  0.5328130000000  0.4612020000000 1.0
C      1  0.3806600000000  0.5368410000000  0.5846630000000 1.0
C      1  0.4502580000000  0.5295560000000  0.5627710000000 1.0
C      1  0.5342540000000  0.4217730000000  0.5426820000000 1.0
C      1  0.5679290000000  0.3809070000000  0.5520010000000 1.0
C      1  0.5120660000000  0.4548320000000  0.5971730000000 1.0
C      1  0.4906110000000  0.4933620000000  0.4070860000000 1.0
C      1  0.4192300000000  0.4727330000000  0.5738560000000 1.0
END
