TITL C-247200-3482-639 5242.2060769685 125000 -1093.2107771767 0 0 178 (C1) n - 1
REM
REM in /home/nfs/bkarasulu/CARBON/AIRSS/Generating-Clusters/LCBOP/Only-C1/SD-CG/FIRE-HFTN
REM
REM
REM
REM
REM
REM ./C.cell (11c1c37f851c82e70ff6c80c92926a4b)
REM AIRSS Version 0.9.1 bugfix July 2018 build 013d7b7c2542+ Fri, 06 Jul 2018 19:26:36 +0100
REM compiler GCC version 9.2.1 20190827 (Red Hat 9.2.1-1)
REM options -cpp -mtune=generic -march=x86-64 -g -O0 -fpre-include=/usr/include/finclude/math-vector-fortran.h
REM seed -603701121 -815397431 214180318 133033908 402299217 -1708680541 232787316 1060403395 -1975798420 940391831 913556091 1316010388 -642873056 -1914493568 -893570525 1728037987 -731334693 -1776224194 2077839308 2054797273 313549047 1529263424 103555457 -13541967 343367409 510139607 1643913194 1514727499 -1741009939 252519211 -887662389 2119696609 -903402980
REM
CELL 1.54180   50.00000   50.00000   50.00000   90.00000   90.00000   90.00000
LATT -1
SFAC C  
C      1  0.4390510000000  0.5909180000000  0.5134320000000 1.0
C      1  0.4054630000000  0.4988550000000  0.4281940000000 1.0
C      1  0.5051400000000  0.4228620000000  0.5099960000000 1.0
C      1  0.5576600000000  0.4958500000000  0.3509380000000 1.0
C      1  0.5025620000000  0.4286840000000  0.4076370000000 1.0
C      1  0.4690020000000  0.5311760000000  0.5562730000000 1.0
C      1  0.4330710000000  0.5593420000000  0.4465570000000 1.0
C      1  0.4200730000000  0.5400740000000  0.4621180000000 1.0
C      1  0.4713150000000  0.6062430000000  0.4465040000000 1.0
C      1  0.5311610000000  0.4191010000000  0.4514550000000 1.0
C      1  0.4713410000000  0.4582300000000  0.3735560000000 1.0
C      1  0.5071390000000  0.6051180000000  0.5601350000000 1.0
C      1  0.4606360000000  0.4307540000000  0.6006610000000 1.0
C      1  0.4025910000000  0.4704610000000  0.5566360000000 1.0
C      1  0.4919830000000  0.3923750000000  0.4655400000000 1.0
C      1  0.6099740000000  0.5229740000000  0.5540310000000 1.0
C      1  0.4838900000000  0.3772910000000  0.5209140000000 1.0
C      1  0.5075190000000  0.4850800000000  0.5202610000000 1.0
C      1  0.5777480000000  0.4795970000000  0.4317560000000 1.0
C      1  0.4511190000000  0.4725890000000  0.4775290000000 1.0
C      1  0.4091690000000  0.5020600000000  0.5085220000000 1.0
C      1  0.4235420000000  0.5699200000000  0.5242240000000 1.0
C      1  0.4519420000000  0.4866080000000  0.4308550000000 1.0
C      1  0.5211290000000  0.5649630000000  0.5153170000000 1.0
C      1  0.4634080000000  0.5126830000000  0.4181470000000 1.0
C      1  0.4541380000000  0.5693460000000  0.4617840000000 1.0
C      1  0.4326690000000  0.4870550000000  0.5164520000000 1.0
C      1  0.5657460000000  0.4233250000000  0.5438590000000 1.0
C      1  0.6016990000000  0.5525120000000  0.4714390000000 1.0
C      1  0.6030180000000  0.4292370000000  0.4737570000000 1.0
C      1  0.4871960000000  0.5858340000000  0.4026010000000 1.0
C      1  0.5625450000000  0.4766210000000  0.5750230000000 1.0
C      1  0.5462370000000  0.5988340000000  0.4648480000000 1.0
C      1  0.5629300000000  0.5465060000000  0.5013750000000 1.0
C      1  0.5658660000000  0.4040320000000  0.4816920000000 1.0
C      1  0.5508680000000  0.4709330000000  0.3916820000000 1.0
C      1  0.5135710000000  0.4635580000000  0.5972570000000 1.0
C      1  0.5195100000000  0.6130900000000  0.5352390000000 1.0
C      1  0.5877630000000  0.4193740000000  0.4970730000000 1.0
C      1  0.4918830000000  0.5176930000000  0.4124000000000 1.0
C      1  0.3443410000000  0.4736830000000  0.5009390000000 1.0
C      1  0.5306690000000  0.4995340000000  0.3500310000000 1.0
C      1  0.4954500000000  0.6062470000000  0.4648410000000 1.0
C      1  0.5583390000000  0.5741440000000  0.5493560000000 1.0
C      1  0.5340260000000  0.3880460000000  0.5137210000000 1.0
C      1  0.5536510000000  0.5218690000000  0.4905640000000 1.0
C      1  0.5047340000000  0.5325400000000  0.6597990000000 1.0
C      1  0.4857130000000  0.4429420000000  0.5077130000000 1.0
C      1  0.6093850000000  0.5082560000000  0.5034990000000 1.0
C      1  0.5057550000000  0.5565480000000  0.4468650000000 1.0
C      1  0.4471730000000  0.5373380000000  0.6145300000000 1.0
C      1  0.4160580000000  0.4868270000000  0.5762070000000 1.0
C      1  0.4628890000000  0.4760220000000  0.6048700000000 1.0
C      1  0.4877970000000  0.5271660000000  0.6407390000000 1.0
C      1  0.4701940000000  0.5750960000000  0.5747570000000 1.0
C      1  0.6088420000000  0.5249950000000  0.4791940000000 1.0
C      1  0.4797820000000  0.4523820000000  0.6050590000000 1.0
C      1  0.4684670000000  0.4109560000000  0.5485720000000 1.0
C      1  0.4713630000000  0.5222370000000  0.6186670000000 1.0
C      1  0.5469780000000  0.4124570000000  0.5248850000000 1.0
C      1  0.4709670000000  0.5066570000000  0.5711370000000 1.0
C      1  0.5931730000000  0.6024160000000  0.5267660000000 1.0
C      1  0.5318340000000  0.5603240000000  0.4413570000000 1.0
C      1  0.5546080000000  0.5746690000000  0.4504900000000 1.0
C      1  0.4087250000000  0.4464070000000  0.5416900000000 1.0
C      1  0.5120840000000  0.4422980000000  0.4514650000000 1.0
C      1  0.6014430000000  0.4799870000000  0.5065370000000 1.0
C      1  0.4722460000000  0.5446080000000  0.5060040000000 1.0
C      1  0.5262520000000  0.4266030000000  0.3951790000000 1.0
C      1  0.5338000000000  0.5024350000000  0.4469480000000 1.0
C      1  0.4620150000000  0.5283140000000  0.4832230000000 1.0
C      1  0.4968210000000  0.4681090000000  0.4969130000000 1.0
C      1  0.5555900000000  0.4827850000000  0.4496130000000 1.0
C      1  0.6122010000000  0.5735450000000  0.4877620000000 1.0
C      1  0.3953870000000  0.4972820000000  0.4557510000000 1.0
C      1  0.5474040000000  0.5958140000000  0.4930620000000 1.0
C      1  0.6045660000000  0.5245220000000  0.5259940000000 1.0
C      1  0.4909980000000  0.4742050000000  0.3652630000000 1.0
C      1  0.5137520000000  0.4894830000000  0.3707460000000 1.0
C      1  0.5864750000000  0.4713400000000  0.4842440000000 1.0
C      1  0.4421600000000  0.5329650000000  0.4115000000000 1.0
C      1  0.5449380000000  0.5683190000000  0.4999390000000 1.0
C      1  0.5472320000000  0.4430990000000  0.3929000000000 1.0
C      1  0.5033700000000  0.5134660000000  0.5245040000000 1.0
C      1  0.4354750000000  0.4766690000000  0.5953610000000 1.0
C      1  0.4234810000000  0.4782520000000  0.4182740000000 1.0
C      1  0.5890290000000  0.5361260000000  0.5692290000000 1.0
C      1  0.4047190000000  0.5260430000000  0.5240170000000 1.0
C      1  0.4442090000000  0.5609900000000  0.4201540000000 1.0
C      1  0.4601810000000  0.5824220000000  0.5999720000000 1.0
C      1  0.4567680000000  0.4532490000000  0.3969250000000 1.0
C      1  0.4152470000000  0.5156400000000  0.5754830000000 1.0
C      1  0.4836140000000  0.5102790000000  0.4783670000000 1.0
C      1  0.4293410000000  0.4334870000000  0.5580660000000 1.0
C      1  0.5077360000000  0.5197840000000  0.4868020000000 1.0
C      1  0.5156870000000  0.5257470000000  0.5571670000000 1.0
C      1  0.5074790000000  0.4125810000000  0.5764640000000 1.0
C      1  0.5532850000000  0.4852950000000  0.5309240000000 1.0
C      1  0.4808320000000  0.4566830000000  0.5596360000000 1.0
C      1  0.4935550000000  0.5675260000000  0.5053920000000 1.0
C      1  0.4569250000000  0.4959080000000  0.5289220000000 1.0
C      1  0.5057710000000  0.3939110000000  0.5157410000000 1.0
C      1  0.5001230000000  0.5639380000000  0.3942020000000 1.0
C      1  0.5798130000000  0.5612420000000  0.4545730000000 1.0
C      1  0.5339880000000  0.4088220000000  0.5788690000000 1.0
C      1  0.5573130000000  0.5013220000000  0.5090260000000 1.0
C      1  0.4665690000000  0.5892280000000  0.4210500000000 1.0
C      1  0.3671630000000  0.4830860000000  0.4925860000000 1.0
C      1  0.4852100000000  0.5299230000000  0.3653280000000 1.0
C      1  0.5404550000000  0.4530000000000  0.4879010000000 1.0
C      1  0.5603980000000  0.4684650000000  0.4746870000000 1.0
C      1  0.5048800000000  0.6246290000000  0.5795500000000 1.0
C      1  0.5938360000000  0.4628000000000  0.5300030000000 1.0
C      1  0.5460950000000  0.4545160000000  0.5842420000000 1.0
C      1  0.5536550000000  0.5030340000000  0.5826010000000 1.0
C      1  0.5139350000000  0.5547980000000  0.5604910000000 1.0
C      1  0.4386150000000  0.5193200000000  0.4692000000000 1.0
C      1  0.5204850000000  0.3953510000000  0.4659100000000 1.0
C      1  0.5229290000000  0.4517260000000  0.5481490000000 1.0
C      1  0.5337040000000  0.4329340000000  0.5082810000000 1.0
C      1  0.4351170000000  0.3910270000000  0.5211450000000 1.0
C      1  0.4576730000000  0.6001580000000  0.4943040000000 1.0
C      1  0.4137900000000  0.5311280000000  0.5515290000000 1.0
C      1  0.5757240000000  0.5523080000000  0.5494670000000 1.0
C      1  0.5171350000000  0.5026570000000  0.4204310000000 1.0
C      1  0.5862260000000  0.4318610000000  0.4497920000000 1.0
C      1  0.5084510000000  0.4922850000000  0.5948970000000 1.0
C      1  0.4875570000000  0.4268910000000  0.5628120000000 1.0
C      1  0.4508240000000  0.4310750000000  0.5398010000000 1.0
C      1  0.5730180000000  0.5226340000000  0.5875990000000 1.0
C      1  0.4684250000000  0.4827790000000  0.5536970000000 1.0
C      1  0.4493480000000  0.5653680000000  0.6178240000000 1.0
C      1  0.4699890000000  0.4610700000000  0.4228260000000 1.0
C      1  0.4948290000000  0.5366410000000  0.3902670000000 1.0
C      1  0.4791010000000  0.5010420000000  0.5993220000000 1.0
C      1  0.6078070000000  0.5920830000000  0.5067160000000 1.0
C      1  0.4146620000000  0.4399420000000  0.5116070000000 1.0
C      1  0.4377840000000  0.4282480000000  0.5851150000000 1.0
C      1  0.5316010000000  0.5177570000000  0.4726370000000 1.0
C      1  0.5741860000000  0.4754140000000  0.5479160000000 1.0
C      1  0.5682660000000  0.4819460000000  0.3718620000000 1.0
C      1  0.4775540000000  0.4829890000000  0.4819280000000 1.0
C      1  0.5606530000000  0.4186180000000  0.4551310000000 1.0
C      1  0.5532980000000  0.4284550000000  0.5711690000000 1.0
C      1  0.5317350000000  0.5664760000000  0.5421020000000 1.0
C      1  0.4252140000000  0.5278800000000  0.5993180000000 1.0
C      1  0.4743030000000  0.5227110000000  0.5277370000000 1.0
C      1  0.4065130000000  0.5513250000000  0.5094110000000 1.0
C      1  0.5886130000000  0.4533740000000  0.4319340000000 1.0
C      1  0.4261730000000  0.4118870000000  0.5023290000000 1.0
C      1  0.5351770000000  0.6131540000000  0.5128020000000 1.0
C      1  0.5219950000000  0.6113190000000  0.4567970000000 1.0
C      1  0.4806120000000  0.5590250000000  0.4560130000000 1.0
C      1  0.5281670000000  0.4741480000000  0.5347540000000 1.0
C      1  0.4612140000000  0.3878440000000  0.5335800000000 1.0
C      1  0.4867920000000  0.5937280000000  0.4927750000000 1.0
C      1  0.5151340000000  0.4577940000000  0.4751470000000 1.0
C      1  0.5272880000000  0.4874180000000  0.3969920000000 1.0
C      1  0.4513310000000  0.5974530000000  0.4663020000000 1.0
C      1  0.4556340000000  0.5555540000000  0.5604260000000 1.0
C      1  0.4423530000000  0.4092310000000  0.4781380000000 1.0
C      1  0.4148110000000  0.5225220000000  0.4139550000000 1.0
C      1  0.4935940000000  0.4451140000000  0.4293590000000 1.0
C      1  0.4660580000000  0.4001520000000  0.4682080000000 1.0
C      1  0.4295900000000  0.5564050000000  0.5493960000000 1.0
C      1  0.5256720000000  0.5087110000000  0.5784310000000 1.0
C      1  0.4375390000000  0.4606000000000  0.5025860000000 1.0
C      1  0.4418000000000  0.4920920000000  0.4589700000000 1.0
C      1  0.3919250000000  0.4946410000000  0.4850970000000 1.0
C      1  0.4972820000000  0.5782490000000  0.5672250000000 1.0
C      1  0.5903130000000  0.5007750000000  0.4200210000000 1.0
C      1  0.5822150000000  0.5433060000000  0.5227180000000 1.0
C      1  0.4287970000000  0.4583840000000  0.3991920000000 1.0
C      1  0.5418610000000  0.3878160000000  0.4860060000000 1.0
C      1  0.5724670000000  0.5981210000000  0.5436870000000 1.0
C      1  0.4596440000000  0.4452990000000  0.5168740000000 1.0
C      1  0.4025320000000  0.5499290000000  0.4817910000000 1.0
C      1  0.5872200000000  0.4337660000000  0.5251210000000 1.0
END
