TITL C-247200-3482-22 0.754042030138387 125000 -590.942236296164 0 0 97 (C1) n - 1
REM
REM in /home/nfs/bkarasulu/CARBON/AIRSS/Generating-Clusters/LCBOP/Only-C1/SD-CG/FIRE-HFTN
REM
REM
REM
REM
REM
REM ./C.cell (11c1c37f851c82e70ff6c80c92926a4b)
REM AIRSS Version 0.9.1 bugfix July 2018 build 013d7b7c2542+ Fri, 06 Jul 2018 19:26:36 +0100
REM compiler GCC version 9.2.1 20190827 (Red Hat 9.2.1-1)
REM options -cpp -mtune=generic -march=x86-64 -g -O0 -fpre-include=/usr/include/finclude/math-vector-fortran.h
REM seed 1229205181 -1404110210 1198038303 1087271341 395631205 -1611896383 -336328708 1559616395 -752619342 -2126794486 590258044 1779110598 1871320689 -910061555 -1231849943 -483494268 1991710271 1374692446 177549056 2120149604 -355659681 -1775301458 667313469 -261565602 49373301 -881759616 465360820 204520824 1645591457 -1188094548 -1448929874 1192689348 -1771878149
REM
CELL 1.54180   50.00000   50.00000   50.00000   90.00000   90.00000   90.00000
LATT -1
SFAC C  
C      1  0.4755670000000  0.4703220000000  0.5172480000000 1.0
C      1  0.4996540000000  0.4796700000000  0.5275110000000 1.0
C      1  0.4102800000000  0.4687880000000  0.5086350000000 1.0
C      1  0.4932880000000  0.5547260000000  0.5893950000000 1.0
C      1  0.4560160000000  0.4970610000000  0.4782190000000 1.0
C      1  0.4616620000000  0.4301730000000  0.4680690000000 1.0
C      1  0.4450000000000  0.5503590000000  0.5329310000000 1.0
C      1  0.4033010000000  0.4945140000000  0.5134550000000 1.0
C      1  0.4321710000000  0.5088700000000  0.4694770000000 1.0
C      1  0.5752170000000  0.5597110000000  0.4506350000000 1.0
C      1  0.4643920000000  0.4675510000000  0.4424120000000 1.0
C      1  0.4996110000000  0.4979660000000  0.5489490000000 1.0
C      1  0.5705090000000  0.4903680000000  0.4342750000000 1.0
C      1  0.4368910000000  0.5357320000000  0.5536760000000 1.0
C      1  0.5101280000000  0.5235940000000  0.4717570000000 1.0
C      1  0.4440800000000  0.5398680000000  0.4331420000000 1.0
C      1  0.5662400000000  0.4485620000000  0.5594390000000 1.0
C      1  0.4969620000000  0.5598900000000  0.5633320000000 1.0
C      1  0.5449440000000  0.4898960000000  0.4226630000000 1.0
C      1  0.4678750000000  0.4430200000000  0.5158390000000 1.0
C      1  0.5270870000000  0.5855000000000  0.5000250000000 1.0
C      1  0.5929800000000  0.4462550000000  0.5646990000000 1.0
C      1  0.5292620000000  0.4359580000000  0.5967040000000 1.0
C      1  0.5068250000000  0.5659850000000  0.4954630000000 1.0
C      1  0.5354650000000  0.5170310000000  0.4818000000000 1.0
C      1  0.4686780000000  0.4257970000000  0.5604020000000 1.0
C      1  0.5586150000000  0.4446140000000  0.4617040000000 1.0
C      1  0.5142160000000  0.4277350000000  0.4596660000000 1.0
C      1  0.5150260000000  0.6302770000000  0.5281950000000 1.0
C      1  0.5834040000000  0.4899490000000  0.4842360000000 1.0
C      1  0.5002090000000  0.5654190000000  0.4470080000000 1.0
C      1  0.4230290000000  0.4999600000000  0.4438730000000 1.0
C      1  0.5442070000000  0.5112620000000  0.5432110000000 1.0
C      1  0.5276680000000  0.4213960000000  0.5105870000000 1.0
C      1  0.3818560000000  0.4735500000000  0.4351930000000 1.0
C      1  0.5070500000000  0.5075990000000  0.5981620000000 1.0
C      1  0.4594710000000  0.4992310000000  0.4061800000000 1.0
C      1  0.4734630000000  0.5742270000000  0.4473600000000 1.0
C      1  0.5393580000000  0.5425400000000  0.4196720000000 1.0
C      1  0.4736560000000  0.4900030000000  0.4577550000000 1.0
C      1  0.5013930000000  0.4652480000000  0.4140760000000 1.0
C      1  0.5216510000000  0.6091500000000  0.5136480000000 1.0
C      1  0.5528900000000  0.5797650000000  0.4900380000000 1.0
C      1  0.5285860000000  0.4656400000000  0.4252300000000 1.0
C      1  0.4961180000000  0.5327860000000  0.6047080000000 1.0
C      1  0.5019820000000  0.5458440000000  0.5392800000000 1.0
C      1  0.5654940000000  0.5582270000000  0.4770460000000 1.0
C      1  0.5518970000000  0.4369010000000  0.5125760000000 1.0
C      1  0.5073080000000  0.4187070000000  0.5298100000000 1.0
C      1  0.5570580000000  0.5326610000000  0.4854130000000 1.0
C      1  0.4845240000000  0.4504800000000  0.4314030000000 1.0
C      1  0.4447870000000  0.4484640000000  0.4511790000000 1.0
C      1  0.5040210000000  0.5125050000000  0.4270360000000 1.0
C      1  0.4872560000000  0.4304800000000  0.4523870000000 1.0
C      1  0.5309740000000  0.5149630000000  0.4190100000000 1.0
C      1  0.5082480000000  0.6507760000000  0.5428040000000 1.0
C      1  0.6049170000000  0.4920420000000  0.6148830000000 1.0
C      1  0.5204460000000  0.4148720000000  0.4839170000000 1.0
C      1  0.4605320000000  0.5543410000000  0.5093780000000 1.0
C      1  0.4953950000000  0.5076550000000  0.4532740000000 1.0
C      1  0.4243090000000  0.5304020000000  0.4859380000000 1.0
C      1  0.4825750000000  0.4843300000000  0.4007310000000 1.0
C      1  0.4333020000000  0.5143500000000  0.5691070000000 1.0
C      1  0.3581180000000  0.4710560000000  0.4247340000000 1.0
C      1  0.5342150000000  0.4453320000000  0.4469390000000 1.0
C      1  0.5992320000000  0.5003520000000  0.5278560000000 1.0
C      1  0.5182260000000  0.5613310000000  0.4255590000000 1.0
C      1  0.4499870000000  0.4361930000000  0.4946490000000 1.0
C      1  0.5653060000000  0.4400160000000  0.4875380000000 1.0
C      1  0.5240030000000  0.4804350000000  0.5126830000000 1.0
C      1  0.4069970000000  0.5205640000000  0.5062410000000 1.0
C      1  0.4951660000000  0.4938980000000  0.5763440000000 1.0
C      1  0.4070340000000  0.4763730000000  0.4464520000000 1.0
C      1  0.5609110000000  0.5203980000000  0.5643800000000 1.0
C      1  0.4198060000000  0.4560740000000  0.4620960000000 1.0
C      1  0.4399680000000  0.5127570000000  0.4234700000000 1.0
C      1  0.5473090000000  0.4427760000000  0.5791840000000 1.0
C      1  0.4604040000000  0.4894800000000  0.5042420000000 1.0
C      1  0.5596780000000  0.5074240000000  0.5898470000000 1.0
C      1  0.5346040000000  0.5036770000000  0.6019800000000 1.0
C      1  0.5573720000000  0.4560290000000  0.5337180000000 1.0
C      1  0.5062840000000  0.5518660000000  0.4711350000000 1.0
C      1  0.4805910000000  0.4261180000000  0.5350120000000 1.0
C      1  0.5651540000000  0.5509250000000  0.4272230000000 1.0
C      1  0.4451930000000  0.5510780000000  0.4838810000000 1.0
C      1  0.5830190000000  0.4990330000000  0.6026060000000 1.0
C      1  0.5834560000000  0.4909150000000  0.4576090000000 1.0
C      1  0.4414580000000  0.4640700000000  0.5818990000000 1.0
C      1  0.5514900000000  0.4855500000000  0.5253420000000 1.0
C      1  0.5763800000000  0.5427570000000  0.5610470000000 1.0
C      1  0.4235960000000  0.4509350000000  0.4909770000000 1.0
C      1  0.5162250000000  0.5208000000000  0.5424300000000 1.0
C      1  0.4892530000000  0.5556920000000  0.5150540000000 1.0
C      1  0.4538600000000  0.4411080000000  0.5765200000000 1.0
C      1  0.4344130000000  0.4895350000000  0.5786500000000 1.0
C      1  0.4520730000000  0.5571210000000  0.4551330000000 1.0
C      1  0.5782430000000  0.4928110000000  0.5117370000000 1.0
END
