TITL C-247202-1916-193 0.00292948142101997 125000 -541.615881379543 0 0 90 (C1) n - 1
REM
REM in /home/nfs/bkarasulu/CARBON/AIRSS/Generating-Clusters/LCBOP/Only-C1/SD-CG/FIRE-HFTN
REM
REM
REM
REM
REM
REM ./C.cell (11c1c37f851c82e70ff6c80c92926a4b)
REM AIRSS Version 0.9.1 bugfix July 2018 build 013d7b7c2542+ Fri, 06 Jul 2018 19:26:36 +0100
REM compiler GCC version 9.2.1 20190827 (Red Hat 9.2.1-1)
REM options -cpp -mtune=generic -march=x86-64 -g -O0 -fpre-include=/usr/include/finclude/math-vector-fortran.h
REM seed -1075663232 -679018815 1497485262 -834577940 764508186 154735553 -1069895621 -285880349 1102224300 1605893830 -1075822947 -128011411 -1737559181 -1040981333 -955682077 -1574249355 1378202766 -1829227121 515963008 -402159133 -1434542809 1011604565 -166256247 -221686504 13443073 -881883898 -1041382424 -935601597 844306325 -1409156720 -110583246 837705628 -140036111
REM
CELL 1.54180   50.00000   50.00000   50.00000   90.00000   90.00000   90.00000
LATT -1
SFAC C  
C      1  0.4096590000000  0.4532700000000  0.4601130000000 1.0
C      1  0.5512580000000  0.5276250000000  0.4149450000000 1.0
C      1  0.5989890000000  0.4662970000000  0.4935520000000 1.0
C      1  0.4649540000000  0.4653560000000  0.4716610000000 1.0
C      1  0.4731690000000  0.5138420000000  0.4299030000000 1.0
C      1  0.4179800000000  0.4403480000000  0.4852480000000 1.0
C      1  0.4237550000000  0.4578850000000  0.4363430000000 1.0
C      1  0.4835110000000  0.4424330000000  0.5093350000000 1.0
C      1  0.4725480000000  0.4909190000000  0.4738120000000 1.0
C      1  0.4913200000000  0.5770090000000  0.4675810000000 1.0
C      1  0.5456170000000  0.4558680000000  0.4516810000000 1.0
C      1  0.5589930000000  0.5665090000000  0.5704690000000 1.0
C      1  0.4410380000000  0.4539630000000  0.5544530000000 1.0
C      1  0.4691640000000  0.5589830000000  0.4596670000000 1.0
C      1  0.6173230000000  0.4810520000000  0.4789390000000 1.0
C      1  0.4522110000000  0.4493350000000  0.6010520000000 1.0
C      1  0.4819620000000  0.5389740000000  0.5882070000000 1.0
C      1  0.5292020000000  0.4930660000000  0.4770020000000 1.0
C      1  0.5495590000000  0.4312970000000  0.4686450000000 1.0
C      1  0.4311550000000  0.5166720000000  0.4562070000000 1.0
C      1  0.4054060000000  0.5039660000000  0.5139880000000 1.0
C      1  0.5322630000000  0.5262320000000  0.5768560000000 1.0
C      1  0.5232320000000  0.4675150000000  0.4673490000000 1.0
C      1  0.5224180000000  0.4192820000000  0.4670540000000 1.0
C      1  0.5163860000000  0.4802810000000  0.4178860000000 1.0
C      1  0.4369460000000  0.5790540000000  0.4928050000000 1.0
C      1  0.6138610000000  0.4970830000000  0.4541000000000 1.0
C      1  0.4944060000000  0.5932250000000  0.4903200000000 1.0
C      1  0.5978780000000  0.5416630000000  0.5006490000000 1.0
C      1  0.4745370000000  0.5131880000000  0.5788760000000 1.0
C      1  0.4211460000000  0.4632000000000  0.5364930000000 1.0
C      1  0.5064890000000  0.5683490000000  0.5315140000000 1.0
C      1  0.4808510000000  0.4444930000000  0.4811500000000 1.0
C      1  0.5038470000000  0.5914880000000  0.5156080000000 1.0
C      1  0.4101090000000  0.4905470000000  0.5396540000000 1.0
C      1  0.4823460000000  0.5081970000000  0.4928020000000 1.0
C      1  0.4138630000000  0.4569100000000  0.5088550000000 1.0
C      1  0.5384210000000  0.4653830000000  0.4253610000000 1.0
C      1  0.6456690000000  0.4829710000000  0.4855020000000 1.0
C      1  0.4887550000000  0.4630900000000  0.5721480000000 1.0
C      1  0.4003350000000  0.4814650000000  0.4969820000000 1.0
C      1  0.4940380000000  0.4956930000000  0.4208880000000 1.0
C      1  0.5285610000000  0.5198510000000  0.4854690000000 1.0
C      1  0.5058030000000  0.4434550000000  0.4684040000000 1.0
C      1  0.5352550000000  0.5532110000000  0.5691000000000 1.0
C      1  0.5384760000000  0.4265660000000  0.5200210000000 1.0
C      1  0.4182250000000  0.5281280000000  0.5058870000000 1.0
C      1  0.4908160000000  0.4186370000000  0.5510770000000 1.0
C      1  0.5041100000000  0.5271070000000  0.4971330000000 1.0
C      1  0.4673580000000  0.5094990000000  0.5164270000000 1.0
C      1  0.4267100000000  0.5740930000000  0.5175720000000 1.0
C      1  0.4299390000000  0.5335520000000  0.4788620000000 1.0
C      1  0.5332420000000  0.4928400000000  0.5429680000000 1.0
C      1  0.4605300000000  0.4554740000000  0.5754990000000 1.0
C      1  0.6588630000000  0.4983860000000  0.4666060000000 1.0
C      1  0.5480250000000  0.5400710000000  0.4808060000000 1.0
C      1  0.5740280000000  0.5386530000000  0.4905680000000 1.0
C      1  0.4801960000000  0.5405490000000  0.4383420000000 1.0
C      1  0.5149860000000  0.5683730000000  0.4533880000000 1.0
C      1  0.5574080000000  0.4338330000000  0.4975120000000 1.0
C      1  0.4957790000000  0.4663880000000  0.5197000000000 1.0
C      1  0.5808610000000  0.4487670000000  0.5019670000000 1.0
C      1  0.5112540000000  0.5654490000000  0.5596160000000 1.0
C      1  0.4463530000000  0.5043280000000  0.4353930000000 1.0
C      1  0.5073050000000  0.5499770000000  0.4325070000000 1.0
C      1  0.4951110000000  0.4921020000000  0.5749310000000 1.0
C      1  0.4914190000000  0.4176510000000  0.5226190000000 1.0
C      1  0.6405480000000  0.5070000000000  0.4476490000000 1.0
C      1  0.4369620000000  0.4791960000000  0.4264040000000 1.0
C      1  0.4475440000000  0.5389710000000  0.5447940000000 1.0
C      1  0.4965080000000  0.5454110000000  0.5183670000000 1.0
C      1  0.5213610000000  0.4707030000000  0.5310650000000 1.0
C      1  0.5167500000000  0.4079800000000  0.5125330000000 1.0
C      1  0.5573300000000  0.5024560000000  0.5344370000000 1.0
C      1  0.5292610000000  0.4449930000000  0.5419670000000 1.0
C      1  0.5272370000000  0.5391170000000  0.4163490000000 1.0
C      1  0.5729560000000  0.5152440000000  0.4241300000000 1.0
C      1  0.5389900000000  0.5628880000000  0.4668100000000 1.0
C      1  0.4706770000000  0.5371810000000  0.5268040000000 1.0
C      1  0.5912060000000  0.5033940000000  0.4394150000000 1.0
C      1  0.4772420000000  0.5874430000000  0.5870670000000 1.0
C      1  0.4567290000000  0.4953570000000  0.5382650000000 1.0
C      1  0.5209370000000  0.5025220000000  0.5667420000000 1.0
C      1  0.5062870000000  0.4407100000000  0.5618310000000 1.0
C      1  0.4450910000000  0.5582440000000  0.4751730000000 1.0
C      1  0.4258440000000  0.5472690000000  0.5272800000000 1.0
C      1  0.4523460000000  0.5136400000000  0.5604990000000 1.0
C      1  0.5173350000000  0.3989520000000  0.4857960000000 1.0
C      1  0.3940110000000  0.4757800000000  0.4699530000000 1.0
C      1  0.4896630000000  0.5646310000000  0.5786390000000 1.0
END
