TITL C-247198-3593-8 -0.0126163194690787 125000 -611.856199386923 0 0 101 (C1) n - 1
REM
REM in /home/nfs/bkarasulu/CARBON/AIRSS/Generating-Clusters/LCBOP/Only-C1/SD-CG/FIRE-HFTN
REM
REM
REM
REM
REM
REM ./C.cell (11c1c37f851c82e70ff6c80c92926a4b)
REM AIRSS Version 0.9.1 bugfix July 2018 build 013d7b7c2542+ Fri, 06 Jul 2018 19:26:36 +0100
REM compiler GCC version 9.2.1 20190827 (Red Hat 9.2.1-1)
REM options -cpp -mtune=generic -march=x86-64 -g -O0 -fpre-include=/usr/include/finclude/math-vector-fortran.h
REM seed -1693892831 -1970990827 1325258786 951053214 -1565022288 -2002237482 -2087608867 1010001158 -274878040 103336802 -240793838 -1949106850 335108202 2046043902 388054566 1450290616 -2093903131 -1345850055 -756084406 -980622311 -601868985 -777913352 -1157415394 -1116729724 1818677197 -234786068 -1997376243 1596488661 580229869 875656798 -1280766779 1059819182 -1024954330
REM
CELL 1.54180   50.00000   50.00000   50.00000   90.00000   90.00000   90.00000
LATT -1
SFAC C  
C      1  0.5117120000000  0.5007660000000  0.5917160000000 1.0
C      1  0.4460780000000  0.4929940000000  0.6113620000000 1.0
C      1  0.4761970000000  0.4613820000000  0.5294710000000 1.0
C      1  0.5493550000000  0.6619970000000  0.4083490000000 1.0
C      1  0.4738560000000  0.5076200000000  0.4964200000000 1.0
C      1  0.5440630000000  0.4481060000000  0.5486130000000 1.0
C      1  0.5357680000000  0.5696390000000  0.4375140000000 1.0
C      1  0.5225500000000  0.5031830000000  0.4672320000000 1.0
C      1  0.5187430000000  0.4960320000000  0.4110230000000 1.0
C      1  0.3926690000000  0.5183560000000  0.5018880000000 1.0
C      1  0.4917700000000  0.5672640000000  0.4834100000000 1.0
C      1  0.4729100000000  0.5058700000000  0.5639330000000 1.0
C      1  0.4885080000000  0.4684250000000  0.4476750000000 1.0
C      1  0.4001660000000  0.4546710000000  0.4625280000000 1.0
C      1  0.5878840000000  0.4728770000000  0.5356600000000 1.0
C      1  0.5487160000000  0.6423600000000  0.4254720000000 1.0
C      1  0.4281090000000  0.5391300000000  0.5670750000000 1.0
C      1  0.6032320000000  0.4774350000000  0.5104190000000 1.0
C      1  0.5885150000000  0.5180590000000  0.5232810000000 1.0
C      1  0.5641580000000  0.5949760000000  0.5110800000000 1.0
C      1  0.5213810000000  0.4011270000000  0.4978860000000 1.0
C      1  0.4955880000000  0.5096500000000  0.4137280000000 1.0
C      1  0.5642760000000  0.5283950000000  0.4707100000000 1.0
C      1  0.4854600000000  0.4506580000000  0.4279300000000 1.0
C      1  0.5428070000000  0.5396960000000  0.5844720000000 1.0
C      1  0.4420870000000  0.5361240000000  0.5902690000000 1.0
C      1  0.4476510000000  0.5548110000000  0.4494050000000 1.0
C      1  0.4647850000000  0.4822450000000  0.4901230000000 1.0
C      1  0.5298220000000  0.5166910000000  0.5759160000000 1.0
C      1  0.4127210000000  0.4646360000000  0.4377220000000 1.0
C      1  0.5303710000000  0.4304660000000  0.4255640000000 1.0
C      1  0.5632110000000  0.4572450000000  0.4549520000000 1.0
C      1  0.5518150000000  0.6260380000000  0.4711800000000 1.0
C      1  0.4356640000000  0.5405520000000  0.4952750000000 1.0
C      1  0.3960320000000  0.5006330000000  0.4796900000000 1.0
C      1  0.3675970000000  0.5229800000000  0.5119880000000 1.0
C      1  0.5370510000000  0.5266490000000  0.4623360000000 1.0
C      1  0.4768590000000  0.3903370000000  0.4769750000000 1.0
C      1  0.4842240000000  0.5105150000000  0.5907500000000 1.0
C      1  0.5330870000000  0.4043410000000  0.4354440000000 1.0
C      1  0.4964820000000  0.5941670000000  0.4848450000000 1.0
C      1  0.5433930000000  0.5950190000000  0.4352670000000 1.0
C      1  0.4705620000000  0.4528400000000  0.6003930000000 1.0
C      1  0.5804140000000  0.5050900000000  0.4746770000000 1.0
C      1  0.5178430000000  0.4717230000000  0.5915900000000 1.0
C      1  0.4311680000000  0.5539460000000  0.4707780000000 1.0
C      1  0.5846350000000  0.5004630000000  0.5446100000000 1.0
C      1  0.5160530000000  0.4895370000000  0.5361070000000 1.0
C      1  0.5491160000000  0.3966950000000  0.4941680000000 1.0
C      1  0.4719040000000  0.5191660000000  0.4263770000000 1.0
C      1  0.4954930000000  0.5527750000000  0.4584300000000 1.0
C      1  0.5655950000000  0.4118480000000  0.4788880000000 1.0
C      1  0.5532210000000  0.5656890000000  0.5855280000000 1.0
C      1  0.4591170000000  0.5179040000000  0.6049870000000 1.0
C      1  0.5589400000000  0.5922470000000  0.5383690000000 1.0
C      1  0.5029160000000  0.4645600000000  0.5371480000000 1.0
C      1  0.4627400000000  0.5330120000000  0.4988090000000 1.0
C      1  0.4974220000000  0.4547260000000  0.6015610000000 1.0
C      1  0.5228790000000  0.5488000000000  0.4510800000000 1.0
C      1  0.5615530000000  0.4510540000000  0.5036800000000 1.0
C      1  0.5381010000000  0.4593290000000  0.5747580000000 1.0
C      1  0.5617120000000  0.5761090000000  0.6093600000000 1.0
C      1  0.5051150000000  0.4839580000000  0.4616660000000 1.0
C      1  0.5296900000000  0.5088120000000  0.5487910000000 1.0
C      1  0.4519170000000  0.4658130000000  0.5428440000000 1.0
C      1  0.5199950000000  0.4412450000000  0.5333050000000 1.0
C      1  0.5569090000000  0.6173240000000  0.4958320000000 1.0
C      1  0.4285910000000  0.4555240000000  0.5304590000000 1.0
C      1  0.5187210000000  0.3884910000000  0.4517600000000 1.0
C      1  0.5374750000000  0.4777510000000  0.4177720000000 1.0
C      1  0.4727840000000  0.5430370000000  0.4430520000000 1.0
C      1  0.4142090000000  0.4373670000000  0.4812330000000 1.0
C      1  0.5049820000000  0.3904420000000  0.4764730000000 1.0
C      1  0.5458270000000  0.4540790000000  0.4319570000000 1.0
C      1  0.4250730000000  0.4913080000000  0.4379340000000 1.0
C      1  0.4472390000000  0.5039830000000  0.4252710000000 1.0
C      1  0.4817430000000  0.5529650000000  0.5056650000000 1.0
C      1  0.5479910000000  0.6213520000000  0.4437890000000 1.0
C      1  0.4550010000000  0.4825660000000  0.5651710000000 1.0
C      1  0.4790540000000  0.5272980000000  0.5468200000000 1.0
C      1  0.5748510000000  0.5733490000000  0.4968870000000 1.0
C      1  0.5549110000000  0.5809940000000  0.5620860000000 1.0
C      1  0.5643970000000  0.4399700000000  0.4778550000000 1.0
C      1  0.5042590000000  0.4358930000000  0.4156280000000 1.0
C      1  0.4306780000000  0.4159430000000  0.4731590000000 1.0
C      1  0.5125740000000  0.4256960000000  0.5096540000000 1.0
C      1  0.4515640000000  0.4722240000000  0.5923500000000 1.0
C      1  0.4753040000000  0.4591330000000  0.5013480000000 1.0
C      1  0.4154640000000  0.5318990000000  0.5135500000000 1.0
C      1  0.4521030000000  0.3999540000000  0.4738120000000 1.0
C      1  0.3833560000000  0.4750980000000  0.4748610000000 1.0
C      1  0.4211890000000  0.4988350000000  0.4658730000000 1.0
C      1  0.5763640000000  0.4822370000000  0.4585820000000 1.0
C      1  0.4191930000000  0.5358110000000  0.5416920000000 1.0
C      1  0.4163080000000  0.4452280000000  0.5087570000000 1.0
C      1  0.5954120000000  0.5033000000000  0.4988040000000 1.0
C      1  0.4882380000000  0.5485630000000  0.5327540000000 1.0
C      1  0.5659080000000  0.4554460000000  0.5315470000000 1.0
C      1  0.4932140000000  0.4393340000000  0.4930330000000 1.0
C      1  0.5740150000000  0.5528460000000  0.4801470000000 1.0
C      1  0.4396730000000  0.4833010000000  0.4799790000000 1.0
END
