TITL C-247195-3186-249 583.59607222041 125000 -547.908352115243 0 0 94 (C1) n - 1
REM
REM in /home/nfs/bkarasulu/CARBON/AIRSS/Generating-Clusters/LCBOP/Only-C1/SD-CG/FIRE-HFTN
REM
REM
REM
REM
REM
REM ./C.cell (11c1c37f851c82e70ff6c80c92926a4b)
REM AIRSS Version 0.9.1 bugfix July 2018 build 013d7b7c2542+ Fri, 06 Jul 2018 19:26:36 +0100
REM compiler GCC version 9.2.1 20190827 (Red Hat 9.2.1-1)
REM options -cpp -mtune=generic -march=x86-64 -g -O0 -fpre-include=/usr/include/finclude/math-vector-fortran.h
REM seed -793344598 1342606556 -1863530152 -1324120196 143740040 -1332017669 -1257842125 -1683471336 -680497644 -289387392 1975212794 1643204866 -949626266 -108333227 -2130824840 -2032918798 -1715985888 299505394 91618732 1298130874 1409730250 1558415868 -1543128268 1194698604 -302241560 982444474 -424226186 629955645 751455880 920922667 1722695045 1228539432 1203865987
REM
CELL 1.54180   50.00000   50.00000   50.00000   90.00000   90.00000   90.00000
LATT -1
SFAC C  
C      1  0.4402170000000  0.4705640000000  0.4514480000000 1.0
C      1  0.5122610000000  0.5346600000000  0.4516280000000 1.0
C      1  0.5206210000000  0.4733790000000  0.5109730000000 1.0
C      1  0.5043090000000  0.5839160000000  0.4347330000000 1.0
C      1  0.6144180000000  0.4364720000000  0.5141440000000 1.0
C      1  0.5304530000000  0.5005330000000  0.5146400000000 1.0
C      1  0.4702490000000  0.5561970000000  0.4360300000000 1.0
C      1  0.4209150000000  0.3875350000000  0.4878830000000 1.0
C      1  0.4587620000000  0.4761980000000  0.5688790000000 1.0
C      1  0.4294090000000  0.5542920000000  0.5176030000000 1.0
C      1  0.5958400000000  0.4606530000000  0.3991820000000 1.0
C      1  0.4637400000000  0.5844110000000  0.4887020000000 1.0
C      1  0.5641290000000  0.4561360000000  0.5851810000000 1.0
C      1  0.4520160000000  0.5178800000000  0.4235040000000 1.0
C      1  0.5026280000000  0.4538630000000  0.6289340000000 1.0
C      1  0.4221100000000  0.5681490000000  0.4451700000000 1.0
C      1  0.4374000000000  0.4859610000000  0.5527360000000 1.0
C      1  0.4662070000000  0.4660900000000  0.4364360000000 1.0
C      1  0.5518610000000  0.4968390000000  0.5340130000000 1.0
C      1  0.4788500000000  0.5960640000000  0.4580980000000 1.0
C      1  0.5569340000000  0.4682800000000  0.5375500000000 1.0
C      1  0.5463880000000  0.5712770000000  0.4639870000000 1.0
C      1  0.5257800000000  0.5471100000000  0.5043720000000 1.0
C      1  0.4830050000000  0.5050640000000  0.4645560000000 1.0
C      1  0.5258380000000  0.5958020000000  0.4989020000000 1.0
C      1  0.4044380000000  0.5063420000000  0.5115890000000 1.0
C      1  0.4316060000000  0.5718320000000  0.5399460000000 1.0
C      1  0.5710360000000  0.5609230000000  0.4586390000000 1.0
C      1  0.5264360000000  0.3915630000000  0.5643360000000 1.0
C      1  0.4753650000000  0.5934110000000  0.5391870000000 1.0
C      1  0.5195480000000  0.5735120000000  0.5466830000000 1.0
C      1  0.5245400000000  0.5199220000000  0.4949000000000 1.0
C      1  0.4772960000000  0.5971110000000  0.5106720000000 1.0
C      1  0.6138930000000  0.4799880000000  0.5131430000000 1.0
C      1  0.5011630000000  0.5928360000000  0.5517570000000 1.0
C      1  0.6116120000000  0.4597150000000  0.5654160000000 1.0
C      1  0.5063850000000  0.4504760000000  0.5798370000000 1.0
C      1  0.4441530000000  0.5639020000000  0.4306560000000 1.0
C      1  0.6084090000000  0.4569490000000  0.4938550000000 1.0
C      1  0.5739980000000  0.4682200000000  0.4112170000000 1.0
C      1  0.4651580000000  0.5595670000000  0.5716630000000 1.0
C      1  0.4939180000000  0.5330410000000  0.5404900000000 1.0
C      1  0.5178410000000  0.4537760000000  0.6062730000000 1.0
C      1  0.5151890000000  0.5501940000000  0.5311440000000 1.0
C      1  0.6195300000000  0.4602540000000  0.5392530000000 1.0
C      1  0.4202420000000  0.5270130000000  0.5248870000000 1.0
C      1  0.4813490000000  0.4622950000000  0.5737540000000 1.0
C      1  0.5199820000000  0.4082720000000  0.5197460000000 1.0
C      1  0.4203000000000  0.4550540000000  0.4646270000000 1.0
C      1  0.5236530000000  0.4135740000000  0.5479290000000 1.0
C      1  0.4446220000000  0.5019730000000  0.4908630000000 1.0
C      1  0.4936440000000  0.5610150000000  0.4190070000000 1.0
C      1  0.4391640000000  0.5676010000000  0.4929470000000 1.0
C      1  0.5127180000000  0.5098650000000  0.4681280000000 1.0
C      1  0.4820140000000  0.5393750000000  0.5654230000000 1.0
C      1  0.5391720000000  0.4144500000000  0.4993950000000 1.0
C      1  0.4710520000000  0.3916240000000  0.5031150000000 1.0
C      1  0.5919760000000  0.4583610000000  0.5835900000000 1.0
C      1  0.4659450000000  0.4968260000000  0.5085530000000 1.0
C      1  0.5076980000000  0.5334470000000  0.4221110000000 1.0
C      1  0.4203000000000  0.5685320000000  0.4718490000000 1.0
C      1  0.4854310000000  0.5481730000000  0.4601840000000 1.0
C      1  0.5505520000000  0.4534600000000  0.5603760000000 1.0
C      1  0.4978330000000  0.4630310000000  0.4985480000000 1.0
C      1  0.5023090000000  0.4610460000000  0.4706040000000 1.0
C      1  0.5902000000000  0.4558190000000  0.4728820000000 1.0
C      1  0.5467300000000  0.4700830000000  0.4523980000000 1.0
C      1  0.5500050000000  0.4397060000000  0.4930240000000 1.0
C      1  0.4552610000000  0.5787460000000  0.5531630000000 1.0
C      1  0.4401170000000  0.4970120000000  0.4636580000000 1.0
C      1  0.5509660000000  0.4761090000000  0.4246920000000 1.0
C      1  0.5462370000000  0.4564850000000  0.6069940000000 1.0
C      1  0.4308880000000  0.5136420000000  0.5487190000000 1.0
C      1  0.5024650000000  0.6081870000000  0.5032300000000 1.0
C      1  0.4692160000000  0.6198980000000  0.4504240000000 1.0
C      1  0.4459260000000  0.3890180000000  0.4950850000000 1.0
C      1  0.5347150000000  0.5704690000000  0.4900250000000 1.0
C      1  0.4070020000000  0.4615430000000  0.4876370000000 1.0
C      1  0.4817980000000  0.4850800000000  0.4183000000000 1.0
C      1  0.5305330000000  0.5839820000000  0.4441900000000 1.0
C      1  0.5049670000000  0.5042720000000  0.4136800000000 1.0
C      1  0.5223300000000  0.4808540000000  0.4624150000000 1.0
C      1  0.4094850000000  0.4775360000000  0.5113040000000 1.0
C      1  0.4729110000000  0.4688920000000  0.5097480000000 1.0
C      1  0.5303360000000  0.4906590000000  0.4114580000000 1.0
C      1  0.4845340000000  0.4502330000000  0.4518610000000 1.0
C      1  0.4954740000000  0.3973900000000  0.5115920000000 1.0
C      1  0.4515590000000  0.4535950000000  0.5202200000000 1.0
C      1  0.5251560000000  0.4393520000000  0.5606480000000 1.0
C      1  0.4799960000000  0.5158510000000  0.5233080000000 1.0
C      1  0.5621880000000  0.4527360000000  0.4700770000000 1.0
C      1  0.4594660000000  0.5111650000000  0.4489130000000 1.0
C      1  0.5444950000000  0.4575060000000  0.5138900000000 1.0
C      1  0.4292330000000  0.4683360000000  0.5308880000000 1.0
END
