TITL C-247201-3759-643 -1.21632219768425e-06 125000 -914.911411785927 0 0 149 (C1) n - 1
REM
REM in /home/nfs/bkarasulu/CARBON/AIRSS/Generating-Clusters/LCBOP/Only-C1/SD-CG/FIRE-HFTN
REM
REM
REM
REM
REM
REM ./C.cell (11c1c37f851c82e70ff6c80c92926a4b)
REM AIRSS Version 0.9.1 bugfix July 2018 build 013d7b7c2542+ Fri, 06 Jul 2018 19:26:36 +0100
REM compiler GCC version 9.2.1 20190827 (Red Hat 9.2.1-1)
REM options -cpp -mtune=generic -march=x86-64 -g -O0 -fpre-include=/usr/include/finclude/math-vector-fortran.h
REM seed -2116330262 1393322096 -251461249 -228798042 1507025087 355787713 -431644335 191905741 -794546061 -633734293 -1367174328 2029140644 986411065 -1311391365 1936591253 256911562 -1097728659 140660231 -1812590491 964144523 1548596851 618178069 1919700615 366606488 -1620172352 499754185 1501273557 -5485386 266663457 -605612977 -379872918 1942087163 -1409370130
REM
CELL 1.54180   50.00000   50.00000   50.00000   90.00000   90.00000   90.00000
LATT -1
SFAC C  
C      1  0.4570840000000  0.4652470000000  0.4648490000000 1.0
C      1  0.4542690000000  0.4370380000000  0.3910010000000 1.0
C      1  0.4738030000000  0.4281230000000  0.4380980000000 1.0
C      1  0.4289790000000  0.4626310000000  0.5734910000000 1.0
C      1  0.5285470000000  0.4808550000000  0.3978640000000 1.0
C      1  0.4665870000000  0.5177750000000  0.5289480000000 1.0
C      1  0.5287890000000  0.4215430000000  0.4908300000000 1.0
C      1  0.4794020000000  0.4403880000000  0.5823010000000 1.0
C      1  0.5339360000000  0.5313380000000  0.4683000000000 1.0
C      1  0.5352190000000  0.3978420000000  0.5093620000000 1.0
C      1  0.5586440000000  0.5536850000000  0.5227490000000 1.0
C      1  0.5625340000000  0.4722100000000  0.4357460000000 1.0
C      1  0.5594440000000  0.5358660000000  0.4290380000000 1.0
C      1  0.5367530000000  0.4468190000000  0.5163280000000 1.0
C      1  0.5032160000000  0.4922010000000  0.4074030000000 1.0
C      1  0.5099610000000  0.5177470000000  0.4239430000000 1.0
C      1  0.5040140000000  0.4130750000000  0.4776300000000 1.0
C      1  0.4274410000000  0.5200640000000  0.4726680000000 1.0
C      1  0.5242250000000  0.4373200000000  0.4229180000000 1.0
C      1  0.4499460000000  0.4124490000000  0.4327230000000 1.0
C      1  0.4324170000000  0.4910770000000  0.5620430000000 1.0
C      1  0.5837760000000  0.4937470000000  0.4431280000000 1.0
C      1  0.5476610000000  0.4166180000000  0.4666400000000 1.0
C      1  0.4704960000000  0.5916610000000  0.4659740000000 1.0
C      1  0.5381500000000  0.5345910000000  0.5307760000000 1.0
C      1  0.5083330000000  0.3964590000000  0.5246210000000 1.0
C      1  0.4409280000000  0.4758910000000  0.4429690000000 1.0
C      1  0.5142840000000  0.6361310000000  0.5504450000000 1.0
C      1  0.4225010000000  0.5641350000000  0.4858390000000 1.0
C      1  0.5512460000000  0.5608540000000  0.4168760000000 1.0
C      1  0.5365400000000  0.5416830000000  0.5873230000000 1.0
C      1  0.3978310000000  0.4551660000000  0.4549850000000 1.0
C      1  0.5271670000000  0.4557820000000  0.5855640000000 1.0
C      1  0.5492280000000  0.4729330000000  0.5795750000000 1.0
C      1  0.4510170000000  0.4902220000000  0.4190190000000 1.0
C      1  0.5139160000000  0.5378470000000  0.4008580000000 1.0
C      1  0.4476690000000  0.5328230000000  0.5836400000000 1.0
C      1  0.6097700000000  0.5293080000000  0.5128300000000 1.0
C      1  0.6018870000000  0.4831960000000  0.4642910000000 1.0
C      1  0.5412840000000  0.4622370000000  0.4161870000000 1.0
C      1  0.5106540000000  0.4914090000000  0.5299650000000 1.0
C      1  0.4575480000000  0.5365230000000  0.4294120000000 1.0
C      1  0.4053110000000  0.5441780000000  0.4387170000000 1.0
C      1  0.4884960000000  0.5251460000000  0.6186730000000 1.0
C      1  0.4755210000000  0.5302490000000  0.5930250000000 1.0
C      1  0.3968040000000  0.4919760000000  0.4957360000000 1.0
C      1  0.5572640000000  0.4592560000000  0.4618120000000 1.0
C      1  0.4969480000000  0.6223170000000  0.5653650000000 1.0
C      1  0.5927800000000  0.5228170000000  0.4914990000000 1.0
C      1  0.5934710000000  0.4668200000000  0.4872150000000 1.0
C      1  0.5765280000000  0.4799400000000  0.5069750000000 1.0
C      1  0.4879290000000  0.6039320000000  0.4859500000000 1.0
C      1  0.5091040000000  0.4011280000000  0.4518320000000 1.0
C      1  0.6082650000000  0.5221180000000  0.5614170000000 1.0
C      1  0.5727260000000  0.4171530000000  0.4814150000000 1.0
C      1  0.5322900000000  0.4678410000000  0.4725550000000 1.0
C      1  0.5270440000000  0.5252680000000  0.3783730000000 1.0
C      1  0.5376880000000  0.4998580000000  0.3784540000000 1.0
C      1  0.5103950000000  0.5433060000000  0.5334570000000 1.0
C      1  0.5983340000000  0.5106430000000  0.5834810000000 1.0
C      1  0.5888990000000  0.5386830000000  0.4680160000000 1.0
C      1  0.4582070000000  0.4929330000000  0.5461550000000 1.0
C      1  0.4698450000000  0.5027660000000  0.4992520000000 1.0
C      1  0.5619440000000  0.5376270000000  0.5985220000000 1.0
C      1  0.5107910000000  0.5110310000000  0.6262640000000 1.0
C      1  0.4925040000000  0.4850410000000  0.4536280000000 1.0
C      1  0.5815010000000  0.5572360000000  0.5397750000000 1.0
C      1  0.5835290000000  0.3840890000000  0.5194750000000 1.0
C      1  0.4519270000000  0.4481530000000  0.5830050000000 1.0
C      1  0.5274110000000  0.6357790000000  0.5271800000000 1.0
C      1  0.4537480000000  0.5636070000000  0.5451800000000 1.0
C      1  0.4891760000000  0.4186300000000  0.5667220000000 1.0
C      1  0.4939440000000  0.4374680000000  0.4183870000000 1.0
C      1  0.5035660000000  0.4961600000000  0.5030430000000 1.0
C      1  0.5582690000000  0.5690400000000  0.4973860000000 1.0
C      1  0.5267750000000  0.4908080000000  0.4882230000000 1.0
C      1  0.4729870000000  0.5566140000000  0.5002710000000 1.0
C      1  0.5169990000000  0.6010830000000  0.4899840000000 1.0
C      1  0.5336720000000  0.4973400000000  0.6203570000000 1.0
C      1  0.5227610000000  0.5636530000000  0.4108710000000 1.0
C      1  0.5194700000000  0.5538950000000  0.4770700000000 1.0
C      1  0.4149100000000  0.5526550000000  0.5133710000000 1.0
C      1  0.4376520000000  0.4104500000000  0.4863500000000 1.0
C      1  0.4988630000000  0.4669160000000  0.5381970000000 1.0
C      1  0.4929570000000  0.5523710000000  0.4837300000000 1.0
C      1  0.4647770000000  0.5892860000000  0.5496990000000 1.0
C      1  0.4703770000000  0.5276170000000  0.4527690000000 1.0
C      1  0.4995480000000  0.5790770000000  0.5845290000000 1.0
C      1  0.4591920000000  0.5468420000000  0.5219600000000 1.0
C      1  0.4639080000000  0.4067600000000  0.4991820000000 1.0
C      1  0.5090570000000  0.4646230000000  0.4576750000000 1.0
C      1  0.4171260000000  0.5341990000000  0.5388360000000 1.0
C      1  0.4330870000000  0.5085500000000  0.5861890000000 1.0
C      1  0.6021190000000  0.5373580000000  0.5387210000000 1.0
C      1  0.4136730000000  0.5277260000000  0.4182480000000 1.0
C      1  0.5743750000000  0.5120900000000  0.5978730000000 1.0
C      1  0.5527840000000  0.4814920000000  0.5513490000000 1.0
C      1  0.4370890000000  0.4035890000000  0.4573140000000 1.0
C      1  0.4851860000000  0.5967520000000  0.5684710000000 1.0
C      1  0.4519890000000  0.4492040000000  0.5308810000000 1.0
C      1  0.5212380000000  0.5647790000000  0.5901320000000 1.0
C      1  0.5654530000000  0.3981320000000  0.5049560000000 1.0
C      1  0.4905870000000  0.5258740000000  0.5453050000000 1.0
C      1  0.5352000000000  0.5250580000000  0.4404450000000 1.0
C      1  0.5144940000000  0.4437950000000  0.5339410000000 1.0
C      1  0.4436360000000  0.5827920000000  0.4760250000000 1.0
C      1  0.5356210000000  0.5069390000000  0.5459860000000 1.0
C      1  0.5815990000000  0.5240070000000  0.4431860000000 1.0
C      1  0.4097450000000  0.4982300000000  0.4715720000000 1.0
C      1  0.4358370000000  0.5469310000000  0.5605080000000 1.0
C      1  0.5791960000000  0.4446930000000  0.4767980000000 1.0
C      1  0.4801030000000  0.4246730000000  0.4839840000000 1.0
C      1  0.4111670000000  0.4841810000000  0.5183040000000 1.0
C      1  0.4561180000000  0.5201000000000  0.4762810000000 1.0
C      1  0.5703310000000  0.5064820000000  0.4976210000000 1.0
C      1  0.5034120000000  0.5799200000000  0.4239960000000 1.0
C      1  0.5323210000000  0.4158210000000  0.4417350000000 1.0
C      1  0.4404480000000  0.5176660000000  0.4163600000000 1.0
C      1  0.4413810000000  0.4180140000000  0.4061460000000 1.0
C      1  0.4337860000000  0.4586920000000  0.5093010000000 1.0
C      1  0.4721070000000  0.3626340000000  0.5198990000000 1.0
C      1  0.5781120000000  0.5639330000000  0.4768920000000 1.0
C      1  0.4217860000000  0.4342420000000  0.4937900000000 1.0
C      1  0.4831470000000  0.5864790000000  0.4407910000000 1.0
C      1  0.4039030000000  0.4517130000000  0.5749320000000 1.0
C      1  0.5250880000000  0.5192160000000  0.5736220000000 1.0
C      1  0.4607040000000  0.6084720000000  0.5293540000000 1.0
C      1  0.4810300000000  0.3881080000000  0.5145870000000 1.0
C      1  0.5552510000000  0.4910980000000  0.6016670000000 1.0
C      1  0.4991760000000  0.4606940000000  0.5870750000000 1.0
C      1  0.4142420000000  0.5031120000000  0.5401020000000 1.0
C      1  0.4920160000000  0.5118360000000  0.4466560000000 1.0
C      1  0.4543110000000  0.4752030000000  0.4920160000000 1.0
C      1  0.4733650000000  0.6159430000000  0.5070370000000 1.0
C      1  0.5838910000000  0.5793960000000  0.5556240000000 1.0
C      1  0.5057460000000  0.4182860000000  0.5437000000000 1.0
C      1  0.4914980000000  0.4873810000000  0.5824910000000 1.0
C      1  0.4155830000000  0.5449770000000  0.4652560000000 1.0
C      1  0.4946370000000  0.5162210000000  0.5732060000000 1.0
C      1  0.5578140000000  0.4664930000000  0.5254630000000 1.0
C      1  0.4707930000000  0.4677560000000  0.5406010000000 1.0
C      1  0.5290520000000  0.6224510000000  0.5040690000000 1.0
C      1  0.5448610000000  0.5118600000000  0.4858150000000 1.0
C      1  0.5325660000000  0.5768240000000  0.4872480000000 1.0
C      1  0.4707900000000  0.4409200000000  0.4631270000000 1.0
C      1  0.4134610000000  0.4783970000000  0.4514010000000 1.0
C      1  0.4761900000000  0.4805230000000  0.4056110000000 1.0
C      1  0.4770540000000  0.4522910000000  0.3995050000000 1.0
C      1  0.3995660000000  0.4391100000000  0.4766750000000 1.0
END
