TITL C-247199-3331-316 3.21609536755185e-07 125000 -572.156510791345 0 0 94 (C1) n - 1
REM
REM in /home/nfs/bkarasulu/CARBON/AIRSS/Generating-Clusters/LCBOP/Only-C1/SD-CG/FIRE-HFTN
REM
REM
REM
REM
REM
REM ./C.cell (11c1c37f851c82e70ff6c80c92926a4b)
REM AIRSS Version 0.9.1 bugfix July 2018 build 013d7b7c2542+ Fri, 06 Jul 2018 19:26:36 +0100
REM compiler GCC version 9.2.1 20190827 (Red Hat 9.2.1-1)
REM options -cpp -mtune=generic -march=x86-64 -g -O0 -fpre-include=/usr/include/finclude/math-vector-fortran.h
REM seed 2035831312 -974119483 1749707060 334233808 -1430791482 -2008180837 -1570804756 1977233118 210885260 861512157 583559949 -95818289 -166943129 -181341054 -552152638 1052754542 -576536868 2023315773 1704402380 -376472121 -2103984478 -1041630530 -1630369223 1812081192 -804046964 855147243 2013601973 -1013304273 457492039 -1646055979 1999753052 -1946703922 1104194496
REM
CELL 1.54180   50.00000   50.00000   50.00000   90.00000   90.00000   90.00000
LATT -1
SFAC C  
C      1  0.4562100000000  0.4468120000000  0.5732790000000 1.0
C      1  0.4508040000000  0.6049680000000  0.4829850000000 1.0
C      1  0.4828120000000  0.4008670000000  0.5674110000000 1.0
C      1  0.4490880000000  0.4782010000000  0.6396360000000 1.0
C      1  0.4306140000000  0.4819130000000  0.4599470000000 1.0
C      1  0.5621390000000  0.5411390000000  0.4485130000000 1.0
C      1  0.5166460000000  0.4305870000000  0.4650040000000 1.0
C      1  0.5942590000000  0.5224740000000  0.4863230000000 1.0
C      1  0.5171240000000  0.4647310000000  0.5134530000000 1.0
C      1  0.5365090000000  0.5292820000000  0.4457030000000 1.0
C      1  0.4638760000000  0.5310330000000  0.5184480000000 1.0
C      1  0.4964610000000  0.4423650000000  0.4482890000000 1.0
C      1  0.4484920000000  0.6309430000000  0.4719400000000 1.0
C      1  0.4458370000000  0.5683020000000  0.5403010000000 1.0
C      1  0.4136880000000  0.5681840000000  0.4929040000000 1.0
C      1  0.5224390000000  0.4044870000000  0.5073980000000 1.0
C      1  0.5495130000000  0.4292350000000  0.5416170000000 1.0
C      1  0.4864410000000  0.4819690000000  0.5461550000000 1.0
C      1  0.4622080000000  0.3900310000000  0.4861520000000 1.0
C      1  0.4330530000000  0.4958750000000  0.4860990000000 1.0
C      1  0.4520560000000  0.4737040000000  0.4425700000000 1.0
C      1  0.5441360000000  0.4380660000000  0.4667830000000 1.0
C      1  0.4636790000000  0.6230430000000  0.4272830000000 1.0
C      1  0.5452730000000  0.4769590000000  0.4101630000000 1.0
C      1  0.5102780000000  0.5405140000000  0.4457970000000 1.0
C      1  0.5351420000000  0.5300860000000  0.5177200000000 1.0
C      1  0.5448960000000  0.5096330000000  0.5004510000000 1.0
C      1  0.5326520000000  0.5577520000000  0.5138250000000 1.0
C      1  0.4775170000000  0.5280990000000  0.4959150000000 1.0
C      1  0.5355770000000  0.4918490000000  0.5476170000000 1.0
C      1  0.5353140000000  0.4272630000000  0.5889970000000 1.0
C      1  0.4673240000000  0.5845710000000  0.5426240000000 1.0
C      1  0.5316130000000  0.4958570000000  0.4791700000000 1.0
C      1  0.4152320000000  0.5192260000000  0.4893710000000 1.0
C      1  0.5326620000000  0.5199110000000  0.5444570000000 1.0
C      1  0.4717420000000  0.4530030000000  0.4444460000000 1.0
C      1  0.5102930000000  0.3914770000000  0.5292610000000 1.0
C      1  0.4201980000000  0.5431690000000  0.5041450000000 1.0
C      1  0.4526140000000  0.6386440000000  0.4463700000000 1.0
C      1  0.4924420000000  0.5898420000000  0.5308330000000 1.0
C      1  0.5463490000000  0.4170190000000  0.5160350000000 1.0
C      1  0.4851420000000  0.4834490000000  0.4846460000000 1.0
C      1  0.4548320000000  0.3759340000000  0.5092560000000 1.0
C      1  0.5062310000000  0.4138720000000  0.4860450000000 1.0
C      1  0.4055350000000  0.4938800000000  0.4503940000000 1.0
C      1  0.5539420000000  0.4863250000000  0.4342140000000 1.0
C      1  0.4843160000000  0.5839870000000  0.4529370000000 1.0
C      1  0.4670070000000  0.3792000000000  0.5584750000000 1.0
C      1  0.5312010000000  0.4199350000000  0.5623750000000 1.0
C      1  0.4689600000000  0.4224610000000  0.5786280000000 1.0
C      1  0.4588340000000  0.4936620000000  0.4237600000000 1.0
C      1  0.5870590000000  0.4942320000000  0.4913650000000 1.0
C      1  0.4792370000000  0.4877910000000  0.5729770000000 1.0
C      1  0.4406440000000  0.5453400000000  0.5244550000000 1.0
C      1  0.4945410000000  0.5860890000000  0.5021200000000 1.0
C      1  0.4490430000000  0.4530240000000  0.5461730000000 1.0
C      1  0.4561630000000  0.3711050000000  0.5354150000000 1.0
C      1  0.5801490000000  0.4819170000000  0.4441810000000 1.0
C      1  0.4775350000000  0.4138200000000  0.4888380000000 1.0
C      1  0.5130150000000  0.4770360000000  0.5387090000000 1.0
C      1  0.5498310000000  0.5935980000000  0.4613070000000 1.0
C      1  0.4559990000000  0.4744590000000  0.6147890000000 1.0
C      1  0.5181310000000  0.5892130000000  0.5446670000000 1.0
C      1  0.4749830000000  0.5988700000000  0.4309220000000 1.0
C      1  0.5669870000000  0.4500210000000  0.4754070000000 1.0
C      1  0.4686210000000  0.5374830000000  0.4065200000000 1.0
C      1  0.5371950000000  0.4360040000000  0.6134740000000 1.0
C      1  0.5886050000000  0.5573610000000  0.5273330000000 1.0
C      1  0.5125870000000  0.4774580000000  0.4886900000000 1.0
C      1  0.5079980000000  0.5682830000000  0.4508110000000 1.0
C      1  0.5702370000000  0.6089530000000  0.4561150000000 1.0
C      1  0.5691250000000  0.5716360000000  0.5397950000000 1.0
C      1  0.5843300000000  0.5350980000000  0.4627550000000 1.0
C      1  0.4547980000000  0.3811120000000  0.4613820000000 1.0
C      1  0.5670110000000  0.4935460000000  0.5119190000000 1.0
C      1  0.4272370000000  0.5906930000000  0.4880990000000 1.0
C      1  0.4634850000000  0.4700180000000  0.5884940000000 1.0
C      1  0.4657590000000  0.4696930000000  0.5299630000000 1.0
C      1  0.5194350000000  0.5733650000000  0.4947050000000 1.0
C      1  0.4685290000000  0.4658320000000  0.5015220000000 1.0
C      1  0.3972140000000  0.5150650000000  0.4666640000000 1.0
C      1  0.5280670000000  0.5780600000000  0.4684750000000 1.0
C      1  0.4652540000000  0.4388250000000  0.4933820000000 1.0
C      1  0.5085390000000  0.4033510000000  0.5551250000000 1.0
C      1  0.5375270000000  0.5015170000000  0.4519140000000 1.0
C      1  0.4877990000000  0.5225990000000  0.4489320000000 1.0
C      1  0.5602630000000  0.4807220000000  0.5366580000000 1.0
C      1  0.5831740000000  0.4734730000000  0.4711670000000 1.0
C      1  0.4760030000000  0.5913080000000  0.4803590000000 1.0
C      1  0.5978050000000  0.5398520000000  0.5089150000000 1.0
C      1  0.4717090000000  0.5183700000000  0.4257800000000 1.0
C      1  0.5642540000000  0.4534110000000  0.5428270000000 1.0
C      1  0.5411910000000  0.5741460000000  0.5361040000000 1.0
C      1  0.4817360000000  0.5104600000000  0.4746760000000 1.0
END
