TITL C-247201-3759-399 1.9735665801544e-06 125000 -861.379235215305 0 0 140 (C1) n - 1
REM
REM in /home/nfs/bkarasulu/CARBON/AIRSS/Generating-Clusters/LCBOP/Only-C1/SD-CG/FIRE-HFTN
REM
REM
REM
REM
REM
REM ./C.cell (11c1c37f851c82e70ff6c80c92926a4b)
REM AIRSS Version 0.9.1 bugfix July 2018 build 013d7b7c2542+ Fri, 06 Jul 2018 19:26:36 +0100
REM compiler GCC version 9.2.1 20190827 (Red Hat 9.2.1-1)
REM options -cpp -mtune=generic -march=x86-64 -g -O0 -fpre-include=/usr/include/finclude/math-vector-fortran.h
REM seed -1800689786 241660599 1104577881 1403822324 1389385795 -1825614718 311691485 2117435388 -201809973 249790363 -1041465219 -1980187125 -2018545276 1967310347 -1023776951 -1529063699 1731039827 1275679508 -131568692 -564314926 1655880283 1472810067 92454935 523801023 660417699 914960053 366837058 -119410926 1162144074 -764385915 -209885891 1726564960 514396965
REM
CELL 1.54180   50.00000   50.00000   50.00000   90.00000   90.00000   90.00000
LATT -1
SFAC C  
C      1  0.4123260000000  0.5374920000000  0.4834440000000 1.0
C      1  0.3784960000000  0.5099610000000  0.5484440000000 1.0
C      1  0.4559930000000  0.5027880000000  0.4138110000000 1.0
C      1  0.5080960000000  0.5833900000000  0.3993150000000 1.0
C      1  0.4255720000000  0.4356100000000  0.5442260000000 1.0
C      1  0.5665920000000  0.5063200000000  0.4472410000000 1.0
C      1  0.3910750000000  0.5200730000000  0.5703630000000 1.0
C      1  0.5793990000000  0.4205660000000  0.4999390000000 1.0
C      1  0.4370220000000  0.4441130000000  0.4381240000000 1.0
C      1  0.6032620000000  0.4696990000000  0.5445930000000 1.0
C      1  0.5592490000000  0.5282050000000  0.4918490000000 1.0
C      1  0.4746510000000  0.4336750000000  0.4678230000000 1.0
C      1  0.5027520000000  0.4337970000000  0.4704090000000 1.0
C      1  0.5541560000000  0.3980290000000  0.4389150000000 1.0
C      1  0.5114400000000  0.6314220000000  0.4144350000000 1.0
C      1  0.5635970000000  0.5310270000000  0.4043220000000 1.0
C      1  0.4098250000000  0.5771170000000  0.5068570000000 1.0
C      1  0.5796300000000  0.5211290000000  0.3838100000000 1.0
C      1  0.4395710000000  0.5268590000000  0.5329870000000 1.0
C      1  0.4438400000000  0.5094310000000  0.5115910000000 1.0
C      1  0.4852810000000  0.5651500000000  0.3944740000000 1.0
C      1  0.4585020000000  0.5421120000000  0.6037410000000 1.0
C      1  0.5424270000000  0.4463320000000  0.4934570000000 1.0
C      1  0.5778860000000  0.4614570000000  0.4647180000000 1.0
C      1  0.4442670000000  0.3917610000000  0.5474610000000 1.0
C      1  0.5945930000000  0.5114090000000  0.3648170000000 1.0
C      1  0.5182470000000  0.4844900000000  0.5441410000000 1.0
C      1  0.4274840000000  0.4667320000000  0.4236850000000 1.0
C      1  0.5230640000000  0.6083220000000  0.5313880000000 1.0
C      1  0.4877480000000  0.4994940000000  0.4531160000000 1.0
C      1  0.5608050000000  0.4766970000000  0.4450630000000 1.0
C      1  0.4234560000000  0.4085030000000  0.5418680000000 1.0
C      1  0.3801970000000  0.5139670000000  0.5215990000000 1.0
C      1  0.4596450000000  0.4856420000000  0.5166950000000 1.0
C      1  0.4618650000000  0.4272000000000  0.4917010000000 1.0
C      1  0.5437560000000  0.4949020000000  0.6156520000000 1.0
C      1  0.5435200000000  0.5699320000000  0.5080500000000 1.0
C      1  0.5796360000000  0.4244420000000  0.5290880000000 1.0
C      1  0.4725670000000  0.4906530000000  0.5624260000000 1.0
C      1  0.5288000000000  0.5480730000000  0.5969170000000 1.0
C      1  0.4831600000000  0.4601730000000  0.4001440000000 1.0
C      1  0.4839830000000  0.5422530000000  0.5907290000000 1.0
C      1  0.5185970000000  0.4236320000000  0.4083740000000 1.0
C      1  0.5309770000000  0.4388510000000  0.5856730000000 1.0
C      1  0.6136890000000  0.4832560000000  0.4953980000000 1.0
C      1  0.5335030000000  0.5711730000000  0.3987580000000 1.0
C      1  0.4811740000000  0.5692310000000  0.5446980000000 1.0
C      1  0.5512560000000  0.5118490000000  0.4712830000000 1.0
C      1  0.5026740000000  0.4790520000000  0.4391910000000 1.0
C      1  0.4612890000000  0.4792270000000  0.3944020000000 1.0
C      1  0.5010950000000  0.3813920000000  0.5223610000000 1.0
C      1  0.4203180000000  0.4230940000000  0.4453230000000 1.0
C      1  0.4049860000000  0.4034180000000  0.4528670000000 1.0
C      1  0.5302170000000  0.4777170000000  0.4473100000000 1.0
C      1  0.5895900000000  0.4832100000000  0.5657340000000 1.0
C      1  0.4378710000000  0.5206940000000  0.4823610000000 1.0
C      1  0.5986340000000  0.4422500000000  0.5400850000000 1.0
C      1  0.4951820000000  0.3911120000000  0.5484270000000 1.0
C      1  0.5718210000000  0.5293610000000  0.4315230000000 1.0
C      1  0.5284680000000  0.4944920000000  0.4718240000000 1.0
C      1  0.5758980000000  0.3960050000000  0.4859100000000 1.0
C      1  0.4750400000000  0.4861550000000  0.5899870000000 1.0
C      1  0.5584190000000  0.4181450000000  0.5471980000000 1.0
C      1  0.4040620000000  0.5559620000000  0.5252780000000 1.0
C      1  0.4731210000000  0.5550300000000  0.4974940000000 1.0
C      1  0.4713930000000  0.5839100000000  0.5007340000000 1.0
C      1  0.5738810000000  0.5290810000000  0.5565730000000 1.0
C      1  0.5025150000000  0.4399010000000  0.3929960000000 1.0
C      1  0.4847850000000  0.4596250000000  0.4289310000000 1.0
C      1  0.4207970000000  0.5837020000000  0.4590160000000 1.0
C      1  0.5681860000000  0.4845100000000  0.6111430000000 1.0
C      1  0.4949820000000  0.5035460000000  0.5507680000000 1.0
C      1  0.5292400000000  0.4121040000000  0.4321750000000 1.0
C      1  0.6139580000000  0.4833470000000  0.5222350000000 1.0
C      1  0.4957020000000  0.6149990000000  0.5315160000000 1.0
C      1  0.5214610000000  0.5239640000000  0.5180940000000 1.0
C      1  0.4969290000000  0.6087210000000  0.4080640000000 1.0
C      1  0.5379610000000  0.5845950000000  0.5317030000000 1.0
C      1  0.5555350000000  0.3896110000000  0.4671850000000 1.0
C      1  0.4496370000000  0.6144670000000  0.4286250000000 1.0
C      1  0.4335880000000  0.5393940000000  0.5908150000000 1.0
C      1  0.4497070000000  0.4481340000000  0.5529960000000 1.0
C      1  0.4582310000000  0.4743020000000  0.5437390000000 1.0
C      1  0.5558250000000  0.5803400000000  0.4848240000000 1.0
C      1  0.4928730000000  0.5627210000000  0.5701580000000 1.0
C      1  0.4138650000000  0.5370900000000  0.5710180000000 1.0
C      1  0.6020800000000  0.4742820000000  0.4728900000000 1.0
C      1  0.4786440000000  0.5928220000000  0.5274980000000 1.0
C      1  0.5178860000000  0.3979930000000  0.5638330000000 1.0
C      1  0.5685020000000  0.4427790000000  0.4848380000000 1.0
C      1  0.5408740000000  0.5414930000000  0.5082960000000 1.0
C      1  0.4682710000000  0.4878540000000  0.4704540000000 1.0
C      1  0.4809440000000  0.5470780000000  0.5253950000000 1.0
C      1  0.4215890000000  0.5448910000000  0.5447630000000 1.0
C      1  0.5002130000000  0.4787210000000  0.6013840000000 1.0
C      1  0.4865450000000  0.6403510000000  0.5352790000000 1.0
C      1  0.5426200000000  0.5708090000000  0.5561320000000 1.0
C      1  0.4650900000000  0.4445220000000  0.4439130000000 1.0
C      1  0.4712380000000  0.5262890000000  0.4208550000000 1.0
C      1  0.5169200000000  0.5009760000000  0.6084300000000 1.0
C      1  0.4694660000000  0.4017380000000  0.5562670000000 1.0
C      1  0.5106710000000  0.4815960000000  0.4935920000000 1.0
C      1  0.4975240000000  0.5263860000000  0.5332060000000 1.0
C      1  0.4835400000000  0.4358610000000  0.5892240000000 1.0
C      1  0.4360410000000  0.4927700000000  0.4347740000000 1.0
C      1  0.5102320000000  0.4565340000000  0.5419670000000 1.0
C      1  0.4793440000000  0.4822790000000  0.4958670000000 1.0
C      1  0.5253760000000  0.6524880000000  0.4208490000000 1.0
C      1  0.4677430000000  0.6064440000000  0.4091210000000 1.0
C      1  0.5655090000000  0.5543640000000  0.5577130000000 1.0
C      1  0.4348060000000  0.4662300000000  0.3954520000000 1.0
C      1  0.4673380000000  0.4289680000000  0.5673500000000 1.0
C      1  0.3947150000000  0.5335810000000  0.5073850000000 1.0
C      1  0.4145620000000  0.5669320000000  0.4800980000000 1.0
C      1  0.5159470000000  0.4121040000000  0.4584400000000 1.0
C      1  0.5146160000000  0.5278800000000  0.3977370000000 1.0
C      1  0.5083370000000  0.5281690000000  0.6022570000000 1.0
C      1  0.4591370000000  0.5472840000000  0.6575990000000 1.0
C      1  0.4644170000000  0.5381660000000  0.4749400000000 1.0
C      1  0.4781280000000  0.5271510000000  0.4494980000000 1.0
C      1  0.5068730000000  0.4510750000000  0.5954560000000 1.0
C      1  0.5762390000000  0.5539880000000  0.4450030000000 1.0
C      1  0.5163150000000  0.4524310000000  0.4872960000000 1.0
C      1  0.4954000000000  0.4384830000000  0.5292180000000 1.0
C      1  0.5431800000000  0.4909740000000  0.5581830000000 1.0
C      1  0.5145740000000  0.3821250000000  0.4991280000000 1.0
C      1  0.5385530000000  0.5431060000000  0.3989660000000 1.0
C      1  0.5275880000000  0.3921100000000  0.4764060000000 1.0
C      1  0.5220550000000  0.5654320000000  0.5748380000000 1.0
C      1  0.4620330000000  0.5814750000000  0.3955930000000 1.0
C      1  0.5686000000000  0.5728980000000  0.4624020000000 1.0
C      1  0.4415320000000  0.4970230000000  0.4628120000000 1.0
C      1  0.5376930000000  0.4181070000000  0.5668040000000 1.0
C      1  0.4748740000000  0.4289370000000  0.5150380000000 1.0
C      1  0.5691480000000  0.5016050000000  0.5579980000000 1.0
C      1  0.5235780000000  0.4950010000000  0.5165680000000 1.0
C      1  0.4583070000000  0.5451010000000  0.6316440000000 1.0
C      1  0.5875850000000  0.4776200000000  0.5934850000000 1.0
C      1  0.4321240000000  0.6036760000000  0.4456100000000 1.0
C      1  0.4885300000000  0.5382810000000  0.4020600000000 1.0
END
