TITL C-247199-3331-588 2.63718085920669 125000 -271.33722213223 0 0 46 (C1) n - 1
REM
REM in /home/nfs/bkarasulu/CARBON/AIRSS/Generating-Clusters/LCBOP/Only-C1/SD-CG/FIRE-HFTN
REM
REM
REM
REM
REM
REM ./C.cell (11c1c37f851c82e70ff6c80c92926a4b)
REM AIRSS Version 0.9.1 bugfix July 2018 build 013d7b7c2542+ Fri, 06 Jul 2018 19:26:36 +0100
REM compiler GCC version 9.2.1 20190827 (Red Hat 9.2.1-1)
REM options -cpp -mtune=generic -march=x86-64 -g -O0 -fpre-include=/usr/include/finclude/math-vector-fortran.h
REM seed -1125101934 -1349881818 907974944 1151922780 -1237397290 -1482140698 -656715735 101980457 481280636 -1355024201 1549852407 -1112894342 1720722065 -405338336 415792795 -1687407960 1749307540 -944374506 -864639001 1599444944 -184927025 507554884 -2146637965 410411348 5526772 995709222 -768748894 1546223099 1701165541 -402809065 281634218 -89127498 -1660524377
REM
CELL 1.54180   50.00000   50.00000   50.00000   90.00000   90.00000   90.00000
LATT -1
SFAC C  
C      1  0.5038180000000  0.4491980000000  0.4785850000000 1.0
C      1  0.4031740000000  0.5261880000000  0.5940010000000 1.0
C      1  0.4130190000000  0.5600350000000  0.5545040000000 1.0
C      1  0.4684440000000  0.5050790000000  0.6470210000000 1.0
C      1  0.4811500000000  0.6014370000000  0.4532130000000 1.0
C      1  0.5531220000000  0.4930880000000  0.4190460000000 1.0
C      1  0.5559930000000  0.5186540000000  0.4262090000000 1.0
C      1  0.4986880000000  0.5492780000000  0.5009880000000 1.0
C      1  0.5376200000000  0.4846770000000  0.5154940000000 1.0
C      1  0.5158520000000  0.3452010000000  0.4110610000000 1.0
C      1  0.5232710000000  0.4402690000000  0.4603490000000 1.0
C      1  0.4956240000000  0.5073080000000  0.5260650000000 1.0
C      1  0.4746580000000  0.5862340000000  0.4768390000000 1.0
C      1  0.5740280000000  0.5278010000000  0.5192800000000 1.0
C      1  0.5210620000000  0.4154430000000  0.4478970000000 1.0
C      1  0.5295510000000  0.5408480000000  0.5371360000000 1.0
C      1  0.5175780000000  0.3686120000000  0.4233560000000 1.0
C      1  0.5124270000000  0.2987520000000  0.3866660000000 1.0
C      1  0.5094670000000  0.4850550000000  0.5151320000000 1.0
C      1  0.5158390000000  0.5707570000000  0.4577800000000 1.0
C      1  0.5588650000000  0.4873220000000  0.4971790000000 1.0
C      1  0.5566510000000  0.5350720000000  0.4489530000000 1.0
C      1  0.4703540000000  0.5038040000000  0.6210530000000 1.0
C      1  0.5067910000000  0.5333160000000  0.5224440000000 1.0
C      1  0.5049070000000  0.5925720000000  0.4422290000000 1.0
C      1  0.4352100000000  0.5834470000000  0.5128040000000 1.0
C      1  0.4718430000000  0.5024070000000  0.5681150000000 1.0
C      1  0.3977390000000  0.4895590000000  0.6313170000000 1.0
C      1  0.5141250000000  0.3217840000000  0.3987620000000 1.0
C      1  0.4475080000000  0.5029040000000  0.5267010000000 1.0
C      1  0.4712660000000  0.5040780000000  0.5402220000000 1.0
C      1  0.5601680000000  0.4681510000000  0.4767040000000 1.0
C      1  0.5562340000000  0.5391310000000  0.5358500000000 1.0
C      1  0.4967480000000  0.5671250000000  0.4798400000000 1.0
C      1  0.4001140000000  0.5078270000000  0.6128710000000 1.0
C      1  0.5386190000000  0.5561870000000  0.4520120000000 1.0
C      1  0.4526730000000  0.5881570000000  0.4934340000000 1.0
C      1  0.5492740000000  0.4689980000000  0.4299360000000 1.0
C      1  0.5716000000000  0.5128250000000  0.4955470000000 1.0
C      1  0.4071710000000  0.5438630000000  0.5746680000000 1.0
C      1  0.5717230000000  0.5262900000000  0.4709640000000 1.0
C      1  0.4715700000000  0.5027210000000  0.5945980000000 1.0
C      1  0.5193040000000  0.3920230000000  0.4356510000000 1.0
C      1  0.5455280000000  0.4573110000000  0.4551720000000 1.0
C      1  0.4220680000000  0.5736150000000  0.5336190000000 1.0
C      1  0.4975630000000  0.4656000000000  0.4987340000000 1.0
END
