TITL C-247201-3759-41 -3.06281867180655e-07 125000 -613.664293234159 0 0 103 (C1) n - 1
REM
REM in /home/nfs/bkarasulu/CARBON/AIRSS/Generating-Clusters/LCBOP/Only-C1/SD-CG/FIRE-HFTN
REM
REM
REM
REM
REM
REM ./C.cell (11c1c37f851c82e70ff6c80c92926a4b)
REM AIRSS Version 0.9.1 bugfix July 2018 build 013d7b7c2542+ Fri, 06 Jul 2018 19:26:36 +0100
REM compiler GCC version 9.2.1 20190827 (Red Hat 9.2.1-1)
REM options -cpp -mtune=generic -march=x86-64 -g -O0 -fpre-include=/usr/include/finclude/math-vector-fortran.h
REM seed 1388963728 -627592172 -1392941889 -1195227461 1025269991 -249346408 -1103756674 -1180193609 -1006024264 1121600042 -82088972 1498795554 -1931653545 -145179855 -2029107931 1837367236 -1224774541 -558547425 -987567869 826357902 1128344538 -1408620924 635597185 -1572304082 -1828630844 1486368469 -1257120727 -2091389238 -751806225 2066881694 306935871 -1848866623 -1321708287
REM
CELL 1.54180   50.00000   50.00000   50.00000   90.00000   90.00000   90.00000
LATT -1
SFAC C  
C      1  0.4563150000000  0.6048890000000  0.4840260000000 1.0
C      1  0.5510490000000  0.4387420000000  0.5380840000000 1.0
C      1  0.4467720000000  0.5468900000000  0.5708690000000 1.0
C      1  0.5520360000000  0.5327010000000  0.5275530000000 1.0
C      1  0.4650090000000  0.4733040000000  0.5072490000000 1.0
C      1  0.6032300000000  0.5106750000000  0.4540970000000 1.0
C      1  0.5491420000000  0.4950770000000  0.4771320000000 1.0
C      1  0.5041880000000  0.3954510000000  0.4961850000000 1.0
C      1  0.4774000000000  0.4877270000000  0.4859830000000 1.0
C      1  0.4696140000000  0.5144820000000  0.4801020000000 1.0
C      1  0.4163600000000  0.4010460000000  0.5081720000000 1.0
C      1  0.4248480000000  0.5386220000000  0.5536370000000 1.0
C      1  0.4794960000000  0.5149000000000  0.5355910000000 1.0
C      1  0.4886850000000  0.5050620000000  0.4236410000000 1.0
C      1  0.4784220000000  0.6125850000000  0.4675690000000 1.0
C      1  0.4876190000000  0.5947650000000  0.4474080000000 1.0
C      1  0.4875140000000  0.5328420000000  0.4167980000000 1.0
C      1  0.4392410000000  0.4729700000000  0.5194760000000 1.0
C      1  0.4369540000000  0.5883300000000  0.5488250000000 1.0
C      1  0.5032750000000  0.5525180000000  0.4291970000000 1.0
C      1  0.4908560000000  0.4323040000000  0.5810060000000 1.0
C      1  0.5408650000000  0.5424210000000  0.5725580000000 1.0
C      1  0.4120860000000  0.4651130000000  0.4776610000000 1.0
C      1  0.4344240000000  0.5761030000000  0.5227980000000 1.0
C      1  0.4397900000000  0.4992700000000  0.4212080000000 1.0
C      1  0.4816680000000  0.4293640000000  0.5158820000000 1.0
C      1  0.5141230000000  0.4239040000000  0.5662440000000 1.0
C      1  0.5870460000000  0.5837040000000  0.4531690000000 1.0
C      1  0.5182740000000  0.4717520000000  0.5555310000000 1.0
C      1  0.4318860000000  0.5690120000000  0.4438580000000 1.0
C      1  0.5630270000000  0.4358490000000  0.4895630000000 1.0
C      1  0.4132370000000  0.4912930000000  0.4673860000000 1.0
C      1  0.5130540000000  0.5554010000000  0.5372850000000 1.0
C      1  0.6469450000000  0.4465670000000  0.4401500000000 1.0
C      1  0.5381830000000  0.3792770000000  0.4659320000000 1.0
C      1  0.6197700000000  0.4907850000000  0.4484050000000 1.0
C      1  0.5839520000000  0.5284370000000  0.4636240000000 1.0
C      1  0.5102040000000  0.4028630000000  0.5471910000000 1.0
C      1  0.5223680000000  0.3995440000000  0.4751800000000 1.0
C      1  0.5682910000000  0.6017490000000  0.4640130000000 1.0
C      1  0.4987760000000  0.6300760000000  0.4765350000000 1.0
C      1  0.5315350000000  0.4455160000000  0.5571120000000 1.0
C      1  0.4955980000000  0.5346320000000  0.5859180000000 1.0
C      1  0.4749910000000  0.4527930000000  0.5692330000000 1.0
C      1  0.4737530000000  0.3506930000000  0.5230380000000 1.0
C      1  0.4973640000000  0.5642740000000  0.5849840000000 1.0
C      1  0.5153680000000  0.5675380000000  0.4752910000000 1.0
C      1  0.4938590000000  0.5608250000000  0.4924160000000 1.0
C      1  0.4042860000000  0.5234230000000  0.5636510000000 1.0
C      1  0.4146870000000  0.5300160000000  0.5056330000000 1.0
C      1  0.5297980000000  0.4982740000000  0.5589630000000 1.0
C      1  0.4668230000000  0.5303090000000  0.5840410000000 1.0
C      1  0.5028840000000  0.4307290000000  0.4436660000000 1.0
C      1  0.4908270000000  0.4656020000000  0.5482870000000 1.0
C      1  0.5256440000000  0.6301460000000  0.4768030000000 1.0
C      1  0.5398100000000  0.5515760000000  0.5453390000000 1.0
C      1  0.5588160000000  0.4505760000000  0.4428750000000 1.0
C      1  0.5001580000000  0.5307560000000  0.5319690000000 1.0
C      1  0.4551090000000  0.5861190000000  0.5053250000000 1.0
C      1  0.5494100000000  0.6190610000000  0.4715640000000 1.0
C      1  0.4826130000000  0.5786290000000  0.5646720000000 1.0
C      1  0.4470500000000  0.4547610000000  0.5653820000000 1.0
C      1  0.4239040000000  0.5484570000000  0.5257270000000 1.0
C      1  0.5041280000000  0.4113250000000  0.5206480000000 1.0
C      1  0.4863770000000  0.5344070000000  0.4890880000000 1.0
C      1  0.5657330000000  0.4466820000000  0.5156080000000 1.0
C      1  0.5698120000000  0.4535310000000  0.4194580000000 1.0
C      1  0.5815800000000  0.4693290000000  0.5203440000000 1.0
C      1  0.5745630000000  0.4906960000000  0.5347380000000 1.0
C      1  0.4404950000000  0.5230870000000  0.4052690000000 1.0
C      1  0.4827610000000  0.4567400000000  0.5221950000000 1.0
C      1  0.4663940000000  0.4892180000000  0.4252650000000 1.0
C      1  0.4894420000000  0.3559200000000  0.5442510000000 1.0
C      1  0.4628940000000  0.5388000000000  0.4032710000000 1.0
C      1  0.4582790000000  0.5048980000000  0.5465110000000 1.0
C      1  0.5631380000000  0.5190930000000  0.4807780000000 1.0
C      1  0.5220710000000  0.4252240000000  0.4626060000000 1.0
C      1  0.4940650000000  0.5764820000000  0.5381990000000 1.0
C      1  0.5805880000000  0.4160190000000  0.4819590000000 1.0
C      1  0.5529030000000  0.5381220000000  0.4993620000000 1.0
C      1  0.5057330000000  0.5728400000000  0.4486270000000 1.0
C      1  0.4754630000000  0.3897380000000  0.4923150000000 1.0
C      1  0.4190530000000  0.4931260000000  0.4393130000000 1.0
C      1  0.5432180000000  0.4461270000000  0.4685940000000 1.0
C      1  0.5044670000000  0.3761110000000  0.5536490000000 1.0
C      1  0.4670190000000  0.3642130000000  0.5006790000000 1.0
C      1  0.5030240000000  0.4783190000000  0.4773780000000 1.0
C      1  0.5208070000000  0.5211180000000  0.5776050000000 1.0
C      1  0.4615740000000  0.4146900000000  0.5000680000000 1.0
C      1  0.6078290000000  0.5935720000000  0.4382490000000 1.0
C      1  0.4813580000000  0.5770960000000  0.5123400000000 1.0
C      1  0.6340960000000  0.4688990000000  0.4441250000000 1.0
C      1  0.4227390000000  0.4412080000000  0.4833030000000 1.0
C      1  0.4425670000000  0.5482600000000  0.4555220000000 1.0
C      1  0.4215030000000  0.5145720000000  0.4825740000000 1.0
C      1  0.5520080000000  0.5063750000000  0.5400840000000 1.0
C      1  0.4325000000000  0.4629640000000  0.5439420000000 1.0
C      1  0.5851640000000  0.5558710000000  0.4571320000000 1.0
C      1  0.4337660000000  0.4190570000000  0.4968610000000 1.0
C      1  0.5400520000000  0.5601130000000  0.4865640000000 1.0
C      1  0.4543310000000  0.5747500000000  0.5666180000000 1.0
C      1  0.4452670000000  0.5249520000000  0.4706810000000 1.0
C      1  0.5309550000000  0.4733820000000  0.4755670000000 1.0
END
