TITL C-247201-3759-478 130136.156140703 125000 -1117.71647298512 0 0 183 (C1) n - 1
REM
REM in /home/nfs/bkarasulu/CARBON/AIRSS/Generating-Clusters/LCBOP/Only-C1/SD-CG/FIRE-HFTN
REM
REM
REM
REM
REM
REM ./C.cell (11c1c37f851c82e70ff6c80c92926a4b)
REM AIRSS Version 0.9.1 bugfix July 2018 build 013d7b7c2542+ Fri, 06 Jul 2018 19:26:36 +0100
REM compiler GCC version 9.2.1 20190827 (Red Hat 9.2.1-1)
REM options -cpp -mtune=generic -march=x86-64 -g -O0 -fpre-include=/usr/include/finclude/math-vector-fortran.h
REM seed -1956124635 -1513975626 139505740 -590546269 548283565 553798771 1858758013 -577777515 495088244 -1960538175 -906796344 993204352 1372358679 -1562330051 1297089240 -1995610611 -639677187 2084659813 1667924164 -1587934210 -2144600678 1027224864 1197274414 914568723 1734482995 2073198603 -273700303 1054051320 1965492509 -741163774 -1395196953 -614467841 1935523734
REM
CELL 1.54180   50.00000   50.00000   50.00000   90.00000   90.00000   90.00000
LATT -1
SFAC C  
C      1  0.4269640000000  0.5040300000000  0.4685130000000 1.0
C      1  0.5322580000000  0.4562490000000  0.5157500000000 1.0
C      1  0.5818260000000  0.5402400000000  0.4116060000000 1.0
C      1  0.4452300000000  0.3979480000000  0.5325540000000 1.0
C      1  0.5518530000000  0.5673330000000  0.5197530000000 1.0
C      1  0.5558960000000  0.6222830000000  0.5663810000000 1.0
C      1  0.4008390000000  0.5036170000000  0.4549870000000 1.0
C      1  0.3886350000000  0.4800740000000  0.4428100000000 1.0
C      1  0.5305020000000  0.5379970000000  0.4834640000000 1.0
C      1  0.5607910000000  0.4555720000000  0.4256130000000 1.0
C      1  0.3948470000000  0.4923670000000  0.5201930000000 1.0
C      1  0.5995060000000  0.4868890000000  0.5201900000000 1.0
C      1  0.4414450000000  0.4789230000000  0.4644940000000 1.0
C      1  0.3010460000000  0.4941390000000  0.5697340000000 1.0
C      1  0.5330820000000  0.5126680000000  0.6257300000000 1.0
C      1  0.5043390000000  0.3997320000000  0.4569620000000 1.0
C      1  0.4674120000000  0.4689180000000  0.4564240000000 1.0
C      1  0.4837090000000  0.5383500000000  0.4543910000000 1.0
C      1  0.5067810000000  0.5281160000000  0.5886180000000 1.0
C      1  0.4801750000000  0.5145640000000  0.4394630000000 1.0
C      1  0.5968030000000  0.5644650000000  0.5452730000000 1.0
C      1  0.5326900000000  0.4669060000000  0.5973810000000 1.0
C      1  0.4945580000000  0.5620880000000  0.4439150000000 1.0
C      1  0.4237430000000  0.4582500000000  0.4572960000000 1.0
C      1  0.3711480000000  0.4640510000000  0.4592400000000 1.0
C      1  0.6135600000000  0.5092030000000  0.4418210000000 1.0
C      1  0.4505350000000  0.4546970000000  0.5270630000000 1.0
C      1  0.5518250000000  0.5374020000000  0.4048640000000 1.0
C      1  0.4579000000000  0.4656060000000  0.5532500000000 1.0
C      1  0.4508550000000  0.5948580000000  0.5635760000000 1.0
C      1  0.5417230000000  0.6079620000000  0.4348950000000 1.0
C      1  0.5441980000000  0.5605680000000  0.4933190000000 1.0
C      1  0.4463030000000  0.4766830000000  0.3980960000000 1.0
C      1  0.5357440000000  0.4399400000000  0.5874730000000 1.0
C      1  0.4050770000000  0.4679640000000  0.5194560000000 1.0
C      1  0.6197660000000  0.4617750000000  0.4504250000000 1.0
C      1  0.4499700000000  0.4218500000000  0.5743670000000 1.0
C      1  0.5866350000000  0.5352040000000  0.5090610000000 1.0
C      1  0.5778360000000  0.5567880000000  0.5257750000000 1.0
C      1  0.5934780000000  0.5153770000000  0.4211760000000 1.0
C      1  0.5528850000000  0.6028220000000  0.4109970000000 1.0
C      1  0.4225610000000  0.5646270000000  0.4282050000000 1.0
C      1  0.4728970000000  0.5798720000000  0.5772890000000 1.0
C      1  0.5047610000000  0.4189030000000  0.5028800000000 1.0
C      1  0.4538340000000  0.5348760000000  0.5353830000000 1.0
C      1  0.5324460000000  0.4305440000000  0.5036000000000 1.0
C      1  0.5312260000000  0.5809210000000  0.5347690000000 1.0
C      1  0.5237970000000  0.4901000000000  0.3929910000000 1.0
C      1  0.4104910000000  0.4641970000000  0.4321370000000 1.0
C      1  0.4843480000000  0.4405640000000  0.4930460000000 1.0
C      1  0.4706620000000  0.4601070000000  0.5080630000000 1.0
C      1  0.4597690000000  0.6239220000000  0.4386570000000 1.0
C      1  0.5707490000000  0.3958670000000  0.5379830000000 1.0
C      1  0.6054810000000  0.5411360000000  0.4890700000000 1.0
C      1  0.4950760000000  0.5906020000000  0.4467740000000 1.0
C      1  0.6116800000000  0.5003830000000  0.5454820000000 1.0
C      1  0.6379380000000  0.5846080000000  0.5203400000000 1.0
C      1  0.5784490000000  0.4535600000000  0.5607550000000 1.0
C      1  0.5519420000000  0.5851800000000  0.3905600000000 1.0
C      1  0.4725790000000  0.3855920000000  0.5524000000000 1.0
C      1  0.6198020000000  0.5791680000000  0.5392500000000 1.0
C      1  0.5373210000000  0.4415170000000  0.4192310000000 1.0
C      1  0.5003870000000  0.3890240000000  0.5456730000000 1.0
C      1  0.5541700000000  0.4864640000000  0.5883570000000 1.0
C      1  0.5166180000000  0.3902550000000  0.4335670000000 1.0
C      1  0.3562900000000  0.4382910000000  0.5619120000000 1.0
C      1  0.5662880000000  0.4983440000000  0.4864340000000 1.0
C      1  0.5815150000000  0.4780050000000  0.5783470000000 1.0
C      1  0.5280260000000  0.5837160000000  0.5636450000000 1.0
C      1  0.5235930000000  0.5364510000000  0.6103320000000 1.0
C      1  0.4576660000000  0.6202420000000  0.5532270000000 1.0
C      1  0.5569500000000  0.5015590000000  0.4596320000000 1.0
C      1  0.5974920000000  0.5033110000000  0.5707830000000 1.0
C      1  0.5083630000000  0.4334390000000  0.5784840000000 1.0
C      1  0.5886620000000  0.4599300000000  0.5335790000000 1.0
C      1  0.5683680000000  0.4368030000000  0.4769240000000 1.0
C      1  0.5573820000000  0.5053280000000  0.6112270000000 1.0
C      1  0.5892610000000  0.5305050000000  0.5818960000000 1.0
C      1  0.5359430000000  0.5384070000000  0.4320720000000 1.0
C      1  0.6264660000000  0.5564680000000  0.4827260000000 1.0
C      1  0.4795400000000  0.3779460000000  0.4914690000000 1.0
C      1  0.4876430000000  0.4511960000000  0.5895770000000 1.0
C      1  0.4218870000000  0.5804500000000  0.5224250000000 1.0
C      1  0.5709770000000  0.4009460000000  0.5116740000000 1.0
C      1  0.5087880000000  0.5381880000000  0.5608200000000 1.0
C      1  0.4719590000000  0.4835630000000  0.3917860000000 1.0
C      1  0.4817600000000  0.5998300000000  0.4019740000000 1.0
C      1  0.5517990000000  0.5955520000000  0.5753830000000 1.0
C      1  0.4763010000000  0.6235140000000  0.5338230000000 1.0
C      1  0.5574640000000  0.4193120000000  0.4958380000000 1.0
C      1  0.4699660000000  0.4917870000000  0.5502020000000 1.0
C      1  0.4387920000000  0.5579260000000  0.4079350000000 1.0
C      1  0.4622940000000  0.4480630000000  0.5757690000000 1.0
C      1  0.5309690000000  0.6268250000000  0.5234070000000 1.0
C      1  0.5385230000000  0.5601220000000  0.3890510000000 1.0
C      1  0.5897510000000  0.5579820000000  0.5716180000000 1.0
C      1  0.5578480000000  0.4313430000000  0.5699350000000 1.0
C      1  0.5527050000000  0.4040970000000  0.5582370000000 1.0
C      1  0.5077200000000  0.4346430000000  0.5501890000000 1.0
C      1  0.5735880000000  0.5789340000000  0.5829730000000 1.0
C      1  0.6262440000000  0.4391180000000  0.4392970000000 1.0
C      1  0.5084960000000  0.4852260000000  0.4648570000000 1.0
C      1  0.4655500000000  0.3976020000000  0.5776460000000 1.0
C      1  0.5032370000000  0.4902770000000  0.4922610000000 1.0
C      1  0.4250870000000  0.4488000000000  0.5153950000000 1.0
C      1  0.4542570000000  0.3887830000000  0.4829880000000 1.0
C      1  0.5266110000000  0.4814190000000  0.5050860000000 1.0
C      1  0.4571500000000  0.5384110000000  0.4915220000000 1.0
C      1  0.6132000000000  0.4863840000000  0.4915270000000 1.0
C      1  0.5489510000000  0.5495100000000  0.6060900000000 1.0
C      1  0.4829140000000  0.5346770000000  0.4819150000000 1.0
C      1  0.4301610000000  0.4573590000000  0.4120430000000 1.0
C      1  0.4851800000000  0.5734640000000  0.3914570000000 1.0
C      1  0.5026940000000  0.3939550000000  0.4854490000000 1.0
C      1  0.4038120000000  0.4164520000000  0.5556810000000 1.0
C      1  0.3789130000000  0.4247200000000  0.5593780000000 1.0
C      1  0.3727210000000  0.4435650000000  0.4771970000000 1.0
C      1  0.4987820000000  0.4725030000000  0.3921230000000 1.0
C      1  0.5268880000000  0.4643230000000  0.4603940000000 1.0
C      1  0.4311720000000  0.5754440000000  0.5501300000000 1.0
C      1  0.5206260000000  0.6025100000000  0.4507290000000 1.0
C      1  0.5722760000000  0.4968450000000  0.4138780000000 1.0
C      1  0.5012280000000  0.5843240000000  0.5749690000000 1.0
C      1  0.4620180000000  0.5537570000000  0.5150740000000 1.0
C      1  0.4958950000000  0.5018100000000  0.5943880000000 1.0
C      1  0.3363000000000  0.4555520000000  0.5641030000000 1.0
C      1  0.4860580000000  0.4886320000000  0.4483260000000 1.0
C      1  0.5127120000000  0.5531800000000  0.4246940000000 1.0
C      1  0.5706390000000  0.5297710000000  0.6035180000000 1.0
C      1  0.5192630000000  0.3997630000000  0.4082030000000 1.0
C      1  0.5579580000000  0.5068350000000  0.5385330000000 1.0
C      1  0.4447710000000  0.4318920000000  0.4174960000000 1.0
C      1  0.5104010000000  0.5612160000000  0.3971380000000 1.0
C      1  0.3909650000000  0.5197890000000  0.5168400000000 1.0
C      1  0.5470900000000  0.6345750000000  0.5438550000000 1.0
C      1  0.4106450000000  0.5726320000000  0.4508450000000 1.0
C      1  0.5198730000000  0.4821130000000  0.5524180000000 1.0
C      1  0.6411070000000  0.5750530000000  0.4954170000000 1.0
C      1  0.3182230000000  0.4747610000000  0.5667240000000 1.0
C      1  0.3678870000000  0.5315970000000  0.5273530000000 1.0
C      1  0.5487570000000  0.5066520000000  0.3982520000000 1.0
C      1  0.4035690000000  0.5747650000000  0.4766960000000 1.0
C      1  0.6370670000000  0.5238890000000  0.4397890000000 1.0
C      1  0.3465800000000  0.5426550000000  0.5374960000000 1.0
C      1  0.3881610000000  0.4265110000000  0.4920630000000 1.0
C      1  0.5193340000000  0.4467720000000  0.4405750000000 1.0
C      1  0.5525060000000  0.4576330000000  0.4704500000000 1.0
C      1  0.4807650000000  0.4160550000000  0.4529720000000 1.0
C      1  0.5062500000000  0.5325290000000  0.4996540000000 1.0
C      1  0.4370740000000  0.4165070000000  0.4426430000000 1.0
C      1  0.4708370000000  0.4311850000000  0.4038800000000 1.0
C      1  0.4767410000000  0.4881210000000  0.5037770000000 1.0
C      1  0.4313550000000  0.4138020000000  0.5530660000000 1.0
C      1  0.4593500000000  0.5068900000000  0.5285230000000 1.0
C      1  0.4886130000000  0.6017020000000  0.5195530000000 1.0
C      1  0.5272530000000  0.3884280000000  0.5585140000000 1.0
C      1  0.4980820000000  0.4977020000000  0.5458240000000 1.0
C      1  0.4256680000000  0.4317530000000  0.4645220000000 1.0
C      1  0.4779160000000  0.6058130000000  0.4295040000000 1.0
C      1  0.4427500000000  0.5946240000000  0.5085760000000 1.0
C      1  0.5169930000000  0.6019720000000  0.5209600000000 1.0
C      1  0.4687960000000  0.5822580000000  0.5118380000000 1.0
C      1  0.4608840000000  0.5535650000000  0.5795140000000 1.0
C      1  0.6144300000000  0.4871360000000  0.4619590000000 1.0
C      1  0.4608860000000  0.5587010000000  0.3925040000000 1.0
C      1  0.4967210000000  0.4425830000000  0.3953330000000 1.0
C      1  0.5432210000000  0.4957460000000  0.5603970000000 1.0
C      1  0.4781950000000  0.4422750000000  0.4648150000000 1.0
C      1  0.4074380000000  0.5643350000000  0.5030080000000 1.0
C      1  0.5758520000000  0.5072790000000  0.5139460000000 1.0
C      1  0.5035680000000  0.4745720000000  0.5984230000000 1.0
C      1  0.5008130000000  0.4142450000000  0.5321780000000 1.0
C      1  0.4563840000000  0.4004520000000  0.4560190000000 1.0
C      1  0.5637230000000  0.4825040000000  0.4366490000000 1.0
C      1  0.5216330000000  0.4567400000000  0.5413250000000 1.0
C      1  0.5403960000000  0.5259620000000  0.4576240000000 1.0
C      1  0.4098840000000  0.5357020000000  0.5029870000000 1.0
C      1  0.4426440000000  0.5485690000000  0.5576420000000 1.0
C      1  0.5208230000000  0.4272650000000  0.4009210000000 1.0
C      1  0.4193480000000  0.4248980000000  0.4943300000000 1.0
C      1  0.4379530000000  0.4011890000000  0.5041630000000 1.0
C      1  0.5048940000000  0.5246490000000  0.5350700000000 1.0
C      1  0.4320430000000  0.5253450000000  0.4870080000000 1.0
END
