TITL C-247199-3331-119 262.292569077753 125000 -418.500847094814 0 0 72 (C1) n - 1
REM
REM in /home/nfs/bkarasulu/CARBON/AIRSS/Generating-Clusters/LCBOP/Only-C1/SD-CG/FIRE-HFTN
REM
REM
REM
REM
REM
REM ./C.cell (11c1c37f851c82e70ff6c80c92926a4b)
REM AIRSS Version 0.9.1 bugfix July 2018 build 013d7b7c2542+ Fri, 06 Jul 2018 19:26:36 +0100
REM compiler GCC version 9.2.1 20190827 (Red Hat 9.2.1-1)
REM options -cpp -mtune=generic -march=x86-64 -g -O0 -fpre-include=/usr/include/finclude/math-vector-fortran.h
REM seed -1836268738 -236140059 -1325599977 -1961496816 1610629329 1967067134 1009077267 764401714 -1224736891 -1824734340 -423202123 -881001082 1293307309 -1837412297 320962393 962646731 920709564 -380908773 -1804162316 -1172973964 1308019894 -775458088 -1789163459 334572314 -2080992916 -1713321965 772598508 -573620572 1474903563 -1366842051 584823836 -1719153746 -527259982
REM
CELL 1.54180   50.00000   50.00000   50.00000   90.00000   90.00000   90.00000
LATT -1
SFAC C  
C      1  0.4775970000000  0.4381410000000  0.4720450000000 1.0
C      1  0.5360150000000  0.4844600000000  0.4234360000000 1.0
C      1  0.4456390000000  0.4763140000000  0.5267000000000 1.0
C      1  0.4281500000000  0.4069420000000  0.5150690000000 1.0
C      1  0.4700510000000  0.5027890000000  0.4945920000000 1.0
C      1  0.4403930000000  0.4949160000000  0.5478760000000 1.0
C      1  0.5188440000000  0.5695690000000  0.5574450000000 1.0
C      1  0.5611450000000  0.5297010000000  0.4451980000000 1.0
C      1  0.4510140000000  0.5460150000000  0.4007140000000 1.0
C      1  0.5226650000000  0.5265340000000  0.4780410000000 1.0
C      1  0.5065010000000  0.4411120000000  0.5236050000000 1.0
C      1  0.5885680000000  0.5768720000000  0.5049550000000 1.0
C      1  0.4791680000000  0.4919230000000  0.4685650000000 1.0
C      1  0.5595310000000  0.5452200000000  0.5258510000000 1.0
C      1  0.5072690000000  0.4832290000000  0.4286040000000 1.0
C      1  0.5591490000000  0.4641370000000  0.4812190000000 1.0
C      1  0.5287980000000  0.5827580000000  0.4677340000000 1.0
C      1  0.4779820000000  0.5534540000000  0.5525080000000 1.0
C      1  0.4148780000000  0.3858140000000  0.5061450000000 1.0
C      1  0.5260240000000  0.4314260000000  0.4669210000000 1.0
C      1  0.4409880000000  0.5707600000000  0.4985620000000 1.0
C      1  0.4581300000000  0.5878960000000  0.5112510000000 1.0
C      1  0.4016200000000  0.3647340000000  0.4970640000000 1.0
C      1  0.4918140000000  0.5291920000000  0.4317000000000 1.0
C      1  0.4997320000000  0.4227670000000  0.4732030000000 1.0
C      1  0.4928370000000  0.5766700000000  0.5472490000000 1.0
C      1  0.4914970000000  0.5022290000000  0.4432870000000 1.0
C      1  0.4838190000000  0.4460930000000  0.5397690000000 1.0
C      1  0.5283440000000  0.4417810000000  0.4403310000000 1.0
C      1  0.4572750000000  0.4505280000000  0.5297720000000 1.0
C      1  0.5253740000000  0.4738420000000  0.5898060000000 1.0
C      1  0.4797230000000  0.5922450000000  0.5274220000000 1.0
C      1  0.4724110000000  0.4639910000000  0.4673130000000 1.0
C      1  0.4270930000000  0.5152190000000  0.5005400000000 1.0
C      1  0.5870130000000  0.5283710000000  0.4396410000000 1.0
C      1  0.5037420000000  0.4545090000000  0.4302440000000 1.0
C      1  0.4406130000000  0.5398890000000  0.5338730000000 1.0
C      1  0.5280070000000  0.5428900000000  0.5632110000000 1.0
C      1  0.4234130000000  0.5197620000000  0.5285970000000 1.0
C      1  0.4597970000000  0.5083800000000  0.5653610000000 1.0
C      1  0.4889250000000  0.4469530000000  0.5674450000000 1.0
C      1  0.4417820000000  0.4281320000000  0.5232300000000 1.0
C      1  0.6125120000000  0.5260160000000  0.4347640000000 1.0
C      1  0.5335020000000  0.4438090000000  0.5157080000000 1.0
C      1  0.4969020000000  0.5389140000000  0.4815590000000 1.0
C      1  0.5133840000000  0.5188160000000  0.5745330000000 1.0
C      1  0.4519030000000  0.5442210000000  0.5582760000000 1.0
C      1  0.4702970000000  0.5422780000000  0.4763690000000 1.0
C      1  0.5534000000000  0.5028220000000  0.5576230000000 1.0
C      1  0.5415370000000  0.4429920000000  0.4880140000000 1.0
C      1  0.4711030000000  0.5377410000000  0.4151010000000 1.0
C      1  0.5549970000000  0.4904830000000  0.4845230000000 1.0
C      1  0.4883990000000  0.5296100000000  0.5383190000000 1.0
C      1  0.5614370000000  0.4795170000000  0.5440010000000 1.0
C      1  0.5493210000000  0.4592020000000  0.4292390000000 1.0
C      1  0.4885780000000  0.5110430000000  0.5615310000000 1.0
C      1  0.5064040000000  0.4554150000000  0.5857790000000 1.0
C      1  0.5346320000000  0.5321630000000  0.4527280000000 1.0
C      1  0.5331440000000  0.5057370000000  0.4935940000000 1.0
C      1  0.5145860000000  0.5461170000000  0.4373510000000 1.0
C      1  0.5432410000000  0.5768550000000  0.4898090000000 1.0
C      1  0.4436580000000  0.5445120000000  0.4870070000000 1.0
C      1  0.5192980000000  0.4969510000000  0.5153340000000 1.0
C      1  0.4440810000000  0.4909110000000  0.5011400000000 1.0
C      1  0.5160780000000  0.5735810000000  0.4453630000000 1.0
C      1  0.5633110000000  0.5661510000000  0.5069530000000 1.0
C      1  0.5751280000000  0.4526860000000  0.4240250000000 1.0
C      1  0.5518090000000  0.4567240000000  0.5333430000000 1.0
C      1  0.3885700000000  0.3440220000000  0.4881010000000 1.0
C      1  0.5507940000000  0.5308540000000  0.5485390000000 1.0
C      1  0.5330070000000  0.4979490000000  0.5781370000000 1.0
C      1  0.4716560000000  0.5237520000000  0.5171400000000 1.0
END
