TITL C-247202-1916-484 0.000492333522841458 125000 -492.546660754913 0 0 81 (C1) n - 1
REM
REM in /home/nfs/bkarasulu/CARBON/AIRSS/Generating-Clusters/LCBOP/Only-C1/SD-CG/FIRE-HFTN
REM
REM
REM
REM
REM
REM ./C.cell (11c1c37f851c82e70ff6c80c92926a4b)
REM AIRSS Version 0.9.1 bugfix July 2018 build 013d7b7c2542+ Fri, 06 Jul 2018 19:26:36 +0100
REM compiler GCC version 9.2.1 20190827 (Red Hat 9.2.1-1)
REM options -cpp -mtune=generic -march=x86-64 -g -O0 -fpre-include=/usr/include/finclude/math-vector-fortran.h
REM seed -669683758 642082943 -1134701615 166237903 -1096278975 1371888416 778277238 588652648 1701670805 -1401401651 1456858713 -1846123648 -1581758084 39267802 222405300 -954843520 1711019481 -1313118273 305285953 1746022420 1623745113 -1193767455 -1394047242 -121522970 -2077779468 -896072533 -88540243 -1598035195 1984929796 -519003390 1392258788 -266894504 -1616716179
REM
CELL 1.54180   50.00000   50.00000   50.00000   90.00000   90.00000   90.00000
LATT -1
SFAC C  
C      1  0.4847210000000  0.4678310000000  0.4275830000000 1.0
C      1  0.6025820000000  0.5923480000000  0.4340160000000 1.0
C      1  0.5556290000000  0.4594230000000  0.4553780000000 1.0
C      1  0.5444570000000  0.4846180000000  0.4616140000000 1.0
C      1  0.5043460000000  0.5707360000000  0.5713330000000 1.0
C      1  0.5509740000000  0.5549410000000  0.5213010000000 1.0
C      1  0.4536580000000  0.5719480000000  0.4611670000000 1.0
C      1  0.4350530000000  0.4710090000000  0.5172820000000 1.0
C      1  0.5040260000000  0.4001990000000  0.4347260000000 1.0
C      1  0.5266580000000  0.5712320000000  0.4774080000000 1.0
C      1  0.4423370000000  0.5361440000000  0.5504820000000 1.0
C      1  0.5423070000000  0.5160260000000  0.5743390000000 1.0
C      1  0.4789310000000  0.5655150000000  0.5653230000000 1.0
C      1  0.3932520000000  0.5602740000000  0.4996520000000 1.0
C      1  0.4298480000000  0.4912590000000  0.5348220000000 1.0
C      1  0.4680030000000  0.5871310000000  0.5033150000000 1.0
C      1  0.5200690000000  0.3735180000000  0.4704550000000 1.0
C      1  0.4167400000000  0.5488880000000  0.4899070000000 1.0
C      1  0.4275130000000  0.5254550000000  0.5015610000000 1.0
C      1  0.4778880000000  0.4682740000000  0.5631290000000 1.0
C      1  0.4568010000000  0.4643210000000  0.4227580000000 1.0
C      1  0.5942950000000  0.4863660000000  0.4920320000000 1.0
C      1  0.5052320000000  0.4561510000000  0.5134690000000 1.0
C      1  0.5650210000000  0.4445040000000  0.5000780000000 1.0
C      1  0.4869650000000  0.4445910000000  0.5714820000000 1.0
C      1  0.5375940000000  0.5191880000000  0.4194250000000 1.0
C      1  0.5845390000000  0.5056650000000  0.4759910000000 1.0
C      1  0.5114200000000  0.4245070000000  0.4477540000000 1.0
C      1  0.5255900000000  0.4144900000000  0.5560620000000 1.0
C      1  0.4788910000000  0.5059170000000  0.6076510000000 1.0
C      1  0.5318940000000  0.4202440000000  0.4688350000000 1.0
C      1  0.4936630000000  0.4950870000000  0.4317590000000 1.0
C      1  0.5436970000000  0.5722170000000  0.5425430000000 1.0
C      1  0.5459840000000  0.5090080000000  0.5465860000000 1.0
C      1  0.4568060000000  0.5768790000000  0.5251440000000 1.0
C      1  0.4811470000000  0.4548760000000  0.4711040000000 1.0
C      1  0.4138780000000  0.4485370000000  0.4417810000000 1.0
C      1  0.5619310000000  0.5069370000000  0.4591280000000 1.0
C      1  0.5046310000000  0.4991300000000  0.6056660000000 1.0
C      1  0.5583510000000  0.5249530000000  0.4375020000000 1.0
C      1  0.5051240000000  0.4251050000000  0.5695950000000 1.0
C      1  0.5315270000000  0.5655400000000  0.5671100000000 1.0
C      1  0.5277040000000  0.4908450000000  0.5349550000000 1.0
C      1  0.4528710000000  0.4605210000000  0.4705010000000 1.0
C      1  0.5007830000000  0.5018130000000  0.5309040000000 1.0
C      1  0.4332300000000  0.5036080000000  0.4839890000000 1.0
C      1  0.5371820000000  0.3971060000000  0.5116430000000 1.0
C      1  0.4856480000000  0.5098500000000  0.4550910000000 1.0
C      1  0.4562510000000  0.5153880000000  0.5971690000000 1.0
C      1  0.5077540000000  0.3758720000000  0.4463250000000 1.0
C      1  0.5873100000000  0.4618770000000  0.5005930000000 1.0
C      1  0.4933110000000  0.5155240000000  0.5071820000000 1.0
C      1  0.3891640000000  0.4404950000000  0.4398670000000 1.0
C      1  0.5433640000000  0.5436680000000  0.5804420000000 1.0
C      1  0.4317440000000  0.5195320000000  0.5295980000000 1.0
C      1  0.5401050000000  0.4163610000000  0.5320820000000 1.0
C      1  0.6161560000000  0.6146030000000  0.4343280000000 1.0
C      1  0.4819870000000  0.4904260000000  0.5486090000000 1.0
C      1  0.4750840000000  0.5813860000000  0.4767280000000 1.0
C      1  0.3717320000000  0.5711510000000  0.5106260000000 1.0
C      1  0.5002540000000  0.4662180000000  0.4881110000000 1.0
C      1  0.4941530000000  0.4472100000000  0.4460920000000 1.0
C      1  0.4399950000000  0.4765660000000  0.4899160000000 1.0
C      1  0.5572500000000  0.5284770000000  0.5292140000000 1.0
C      1  0.5531970000000  0.4384240000000  0.4741280000000 1.0
C      1  0.5887280000000  0.5697530000000  0.4337750000000 1.0
C      1  0.5305440000000  0.3958200000000  0.4844160000000 1.0
C      1  0.5142070000000  0.5066180000000  0.4165120000000 1.0
C      1  0.5279100000000  0.5002210000000  0.5925570000000 1.0
C      1  0.4399750000000  0.4575320000000  0.4447290000000 1.0
C      1  0.4305080000000  0.5603880000000  0.4682060000000 1.0
C      1  0.5486270000000  0.4425730000000  0.5235180000000 1.0
C      1  0.5021100000000  0.5787000000000  0.4701900000000 1.0
C      1  0.5443850000000  0.5621950000000  0.4951350000000 1.0
C      1  0.3506590000000  0.5818490000000  0.5216310000000 1.0
C      1  0.5206790000000  0.4826510000000  0.4765250000000 1.0
C      1  0.4581690000000  0.5597550000000  0.5471050000000 1.0
C      1  0.4873530000000  0.5177150000000  0.4809170000000 1.0
C      1  0.5291830000000  0.4632930000000  0.5272810000000 1.0
C      1  0.5744310000000  0.5474650000000  0.4343670000000 1.0
C      1  0.4423260000000  0.5255710000000  0.5767900000000 1.0
END
