TITL C-247198-3593-534 295.916276883063 125000 -1038.44160390503 0 0 169 (C1) n - 1
REM
REM in /home/nfs/bkarasulu/CARBON/AIRSS/Generating-Clusters/LCBOP/Only-C1/SD-CG/FIRE-HFTN
REM
REM
REM
REM
REM
REM ./C.cell (11c1c37f851c82e70ff6c80c92926a4b)
REM AIRSS Version 0.9.1 bugfix July 2018 build 013d7b7c2542+ Fri, 06 Jul 2018 19:26:36 +0100
REM compiler GCC version 9.2.1 20190827 (Red Hat 9.2.1-1)
REM options -cpp -mtune=generic -march=x86-64 -g -O0 -fpre-include=/usr/include/finclude/math-vector-fortran.h
REM seed 1932003078 -700522712 -849064506 -390201737 -1259420168 -105344037 -1835732409 389834876 1289730097 -1689359726 982462864 -1474884568 2039104509 -1402600775 749974632 1963909942 1775777781 -82847690 185666895 -388614685 1382848566 -1808173880 367685187 505563787 -1329088113 -748768221 -1927900394 2125183403 -1518239624 -507396943 1403914271 -506114639 -882812112
REM
CELL 1.54180   50.00000   50.00000   50.00000   90.00000   90.00000   90.00000
LATT -1
SFAC C  
C      1  0.5461870000000  0.4917360000000  0.5501030000000 1.0
C      1  0.5719730000000  0.4857460000000  0.4691870000000 1.0
C      1  0.4840440000000  0.5705340000000  0.4638570000000 1.0
C      1  0.5365550000000  0.3937300000000  0.4169610000000 1.0
C      1  0.4091720000000  0.4718950000000  0.5628200000000 1.0
C      1  0.5324510000000  0.5419980000000  0.4254400000000 1.0
C      1  0.4975440000000  0.4492080000000  0.5371130000000 1.0
C      1  0.4780440000000  0.5014330000000  0.4453060000000 1.0
C      1  0.5973750000000  0.4629740000000  0.5800130000000 1.0
C      1  0.5583270000000  0.4375110000000  0.4699180000000 1.0
C      1  0.4050440000000  0.5267970000000  0.5412850000000 1.0
C      1  0.5251090000000  0.5819360000000  0.5914510000000 1.0
C      1  0.5651420000000  0.4930460000000  0.5994470000000 1.0
C      1  0.4796820000000  0.4982230000000  0.3970930000000 1.0
C      1  0.5261780000000  0.5420650000000  0.5537320000000 1.0
C      1  0.4453340000000  0.4401450000000  0.5187160000000 1.0
C      1  0.5764610000000  0.4589590000000  0.4673110000000 1.0
C      1  0.5271580000000  0.4262060000000  0.5822510000000 1.0
C      1  0.5705130000000  0.5404530000000  0.5399690000000 1.0
C      1  0.4885130000000  0.5459240000000  0.4508660000000 1.0
C      1  0.5641460000000  0.4715910000000  0.5402530000000 1.0
C      1  0.5511040000000  0.4068340000000  0.3985480000000 1.0
C      1  0.4140600000000  0.5521630000000  0.5394060000000 1.0
C      1  0.5203250000000  0.6009900000000  0.5725350000000 1.0
C      1  0.5742180000000  0.5776820000000  0.5652270000000 1.0
C      1  0.5195820000000  0.4836420000000  0.6147530000000 1.0
C      1  0.4397480000000  0.5260320000000  0.4597830000000 1.0
C      1  0.5351520000000  0.5171150000000  0.5134210000000 1.0
C      1  0.5281900000000  0.5170980000000  0.4671830000000 1.0
C      1  0.5266730000000  0.4904790000000  0.5052270000000 1.0
C      1  0.6111740000000  0.4828050000000  0.5642290000000 1.0
C      1  0.3974060000000  0.5043650000000  0.4391070000000 1.0
C      1  0.4910770000000  0.6060900000000  0.5302120000000 1.0
C      1  0.6246520000000  0.4785710000000  0.5396000000000 1.0
C      1  0.5780140000000  0.5726450000000  0.5081160000000 1.0
C      1  0.4318520000000  0.5908740000000  0.4323130000000 1.0
C      1  0.4185830000000  0.4352230000000  0.5098020000000 1.0
C      1  0.5401250000000  0.3798530000000  0.5691880000000 1.0
C      1  0.5409810000000  0.5588640000000  0.5981760000000 1.0
C      1  0.5343260000000  0.4456020000000  0.4858640000000 1.0
C      1  0.5319800000000  0.5300950000000  0.5992810000000 1.0
C      1  0.5552060000000  0.3589950000000  0.5732590000000 1.0
C      1  0.3090840000000  0.5427540000000  0.6656120000000 1.0
C      1  0.3718080000000  0.4481760000000  0.5116350000000 1.0
C      1  0.4579460000000  0.5749690000000  0.5802000000000 1.0
C      1  0.6073540000000  0.5164150000000  0.4723810000000 1.0
C      1  0.5485890000000  0.4879810000000  0.4303120000000 1.0
C      1  0.5258250000000  0.4183310000000  0.4974210000000 1.0
C      1  0.5214580000000  0.5039770000000  0.3737990000000 1.0
C      1  0.5067480000000  0.4037640000000  0.5414990000000 1.0
C      1  0.3749330000000  0.4944160000000  0.5987290000000 1.0
C      1  0.4798130000000  0.4046300000000  0.4992260000000 1.0
C      1  0.5606530000000  0.5477700000000  0.4337600000000 1.0
C      1  0.4625700000000  0.5522900000000  0.5659470000000 1.0
C      1  0.5190190000000  0.4634670000000  0.4659270000000 1.0
C      1  0.5989490000000  0.5087780000000  0.5656220000000 1.0
C      1  0.5622730000000  0.5766990000000  0.4815950000000 1.0
C      1  0.3253100000000  0.5307850000000  0.6490860000000 1.0
C      1  0.4036440000000  0.4765700000000  0.5348670000000 1.0
C      1  0.4522640000000  0.4422030000000  0.5797370000000 1.0
C      1  0.5843660000000  0.5135320000000  0.5898920000000 1.0
C      1  0.4684970000000  0.5656700000000  0.4090420000000 1.0
C      1  0.3915920000000  0.4828500000000  0.5816930000000 1.0
C      1  0.5698020000000  0.4645090000000  0.5902440000000 1.0
C      1  0.4187470000000  0.5732860000000  0.4501420000000 1.0
C      1  0.5362010000000  0.6153650000000  0.5252200000000 1.0
C      1  0.5323630000000  0.4631710000000  0.5096070000000 1.0
C      1  0.4781400000000  0.4315750000000  0.5751960000000 1.0
C      1  0.4650900000000  0.6037970000000  0.5419390000000 1.0
C      1  0.4306400000000  0.4561320000000  0.5722480000000 1.0
C      1  0.4589010000000  0.5331080000000  0.5028120000000 1.0
C      1  0.5026110000000  0.5507920000000  0.5013090000000 1.0
C      1  0.4647820000000  0.4190380000000  0.5214730000000 1.0
C      1  0.5071130000000  0.4026290000000  0.5116730000000 1.0
C      1  0.5685790000000  0.5621130000000  0.5894490000000 1.0
C      1  0.4792640000000  0.4014140000000  0.4682100000000 1.0
C      1  0.5206190000000  0.5233310000000  0.5739490000000 1.0
C      1  0.4974750000000  0.5683480000000  0.4090070000000 1.0
C      1  0.5160600000000  0.6106550000000  0.5461070000000 1.0
C      1  0.5943360000000  0.4128860000000  0.5141400000000 1.0
C      1  0.5850060000000  0.4656560000000  0.5210360000000 1.0
C      1  0.4560680000000  0.5399580000000  0.4155650000000 1.0
C      1  0.5736840000000  0.5694980000000  0.5373940000000 1.0
C      1  0.4650880000000  0.5287010000000  0.4420810000000 1.0
C      1  0.4301720000000  0.5682060000000  0.4754900000000 1.0
C      1  0.4633760000000  0.5067700000000  0.4918240000000 1.0
C      1  0.5527680000000  0.4130150000000  0.4568720000000 1.0
C      1  0.5123950000000  0.5435340000000  0.4028510000000 1.0
C      1  0.5399100000000  0.5033150000000  0.6097690000000 1.0
C      1  0.6076130000000  0.5296750000000  0.5171460000000 1.0
C      1  0.3418170000000  0.5186240000000  0.6322860000000 1.0
C      1  0.5254740000000  0.4501550000000  0.5334940000000 1.0
C      1  0.5290810000000  0.4686730000000  0.4381040000000 1.0
C      1  0.6025450000000  0.5196670000000  0.4233530000000 1.0
C      1  0.5124240000000  0.5873360000000  0.4267380000000 1.0
C      1  0.4939120000000  0.4923050000000  0.5489090000000 1.0
C      1  0.4802830000000  0.4721090000000  0.5342510000000 1.0
C      1  0.4659870000000  0.4308070000000  0.4249530000000 1.0
C      1  0.4305740000000  0.4753180000000  0.4728180000000 1.0
C      1  0.4044490000000  0.5105190000000  0.4970100000000 1.0
C      1  0.5593590000000  0.4315490000000  0.3921270000000 1.0
C      1  0.5313080000000  0.3986790000000  0.4442760000000 1.0
C      1  0.4428670000000  0.5929750000000  0.5280110000000 1.0
C      1  0.5128800000000  0.4915820000000  0.4780710000000 1.0
C      1  0.4029060000000  0.5038410000000  0.5246340000000 1.0
C      1  0.5152070000000  0.5350230000000  0.4474970000000 1.0
C      1  0.4558330000000  0.4502190000000  0.4040060000000 1.0
C      1  0.5817040000000  0.5361360000000  0.4181280000000 1.0
C      1  0.4944160000000  0.5752350000000  0.4891780000000 1.0
C      1  0.4395710000000  0.5551240000000  0.4989020000000 1.0
C      1  0.5934520000000  0.5423410000000  0.4736970000000 1.0
C      1  0.5847950000000  0.5406140000000  0.5980080000000 1.0
C      1  0.5054110000000  0.4618690000000  0.6070630000000 1.0
C      1  0.5195290000000  0.4592650000000  0.3908610000000 1.0
C      1  0.4302380000000  0.5298990000000  0.4086090000000 1.0
C      1  0.5012950000000  0.5190200000000  0.3887340000000 1.0
C      1  0.5128800000000  0.4768260000000  0.3692920000000 1.0
C      1  0.5195590000000  0.4985250000000  0.5601940000000 1.0
C      1  0.4187590000000  0.5209000000000  0.4765590000000 1.0
C      1  0.4999670000000  0.5990050000000  0.5029670000000 1.0
C      1  0.5069540000000  0.4634450000000  0.4180980000000 1.0
C      1  0.4455570000000  0.4852700000000  0.4973360000000 1.0
C      1  0.4947110000000  0.4479200000000  0.4598320000000 1.0
C      1  0.6134790000000  0.5091240000000  0.4458350000000 1.0
C      1  0.4306870000000  0.5679900000000  0.5229840000000 1.0
C      1  0.5536160000000  0.5026740000000  0.4551920000000 1.0
C      1  0.4079460000000  0.5282090000000  0.4264190000000 1.0
C      1  0.5247460000000  0.5344480000000  0.4928230000000 1.0
C      1  0.5446740000000  0.5320240000000  0.5351660000000 1.0
C      1  0.4842580000000  0.4989770000000  0.4734120000000 1.0
C      1  0.5275280000000  0.5946230000000  0.4489140000000 1.0
C      1  0.4024800000000  0.4572200000000  0.4374970000000 1.0
C      1  0.3978940000000  0.4532050000000  0.5186160000000 1.0
C      1  0.3911080000000  0.4385430000000  0.4232930000000 1.0
C      1  0.4839090000000  0.4238050000000  0.5461920000000 1.0
C      1  0.4810150000000  0.5413540000000  0.5179550000000 1.0
C      1  0.5501610000000  0.4446640000000  0.5780040000000 1.0
C      1  0.4608980000000  0.4752420000000  0.3911570000000 1.0
C      1  0.5492470000000  0.4481490000000  0.5494250000000 1.0
C      1  0.6110990000000  0.5058000000000  0.5001400000000 1.0
C      1  0.5706460000000  0.5563120000000  0.4608520000000 1.0
C      1  0.4174550000000  0.4188300000000  0.4859160000000 1.0
C      1  0.4719430000000  0.4518000000000  0.4743700000000 1.0
C      1  0.5487840000000  0.4572760000000  0.3935070000000 1.0
C      1  0.4517830000000  0.5878690000000  0.4144040000000 1.0
C      1  0.4895710000000  0.4887990000000  0.4228340000000 1.0
C      1  0.4449270000000  0.4512180000000  0.4678260000000 1.0
C      1  0.5981280000000  0.5520210000000  0.5006800000000 1.0
C      1  0.5062060000000  0.5603740000000  0.5504030000000 1.0
C      1  0.5051530000000  0.3948150000000  0.4557430000000 1.0
C      1  0.5248570000000  0.4027020000000  0.5642420000000 1.0
C      1  0.5405820000000  0.5949920000000  0.4755670000000 1.0
C      1  0.5278830000000  0.6073150000000  0.4984870000000 1.0
C      1  0.5883520000000  0.4382600000000  0.5147610000000 1.0
C      1  0.6086310000000  0.4818320000000  0.5156910000000 1.0
C      1  0.5946460000000  0.5256720000000  0.5425730000000 1.0
C      1  0.5484360000000  0.5045580000000  0.3839630000000 1.0
C      1  0.5021610000000  0.4385800000000  0.5908240000000 1.0
C      1  0.4624420000000  0.5998580000000  0.5701140000000 1.0
C      1  0.4018430000000  0.5534800000000  0.4385930000000 1.0
C      1  0.3696820000000  0.5032780000000  0.4404670000000 1.0
C      1  0.5563750000000  0.4843000000000  0.4029110000000 1.0
C      1  0.4111440000000  0.4810310000000  0.4507260000000 1.0
C      1  0.4351360000000  0.4245630000000  0.4643770000000 1.0
C      1  0.4555570000000  0.4676020000000  0.5188620000000 1.0
C      1  0.4807060000000  0.5502580000000  0.5444890000000 1.0
C      1  0.4574540000000  0.4126840000000  0.4491440000000 1.0
C      1  0.3583470000000  0.5064840000000  0.6155060000000 1.0
C      1  0.4918430000000  0.4417790000000  0.4320900000000 1.0
END
