TITL C-247202-1916-282 0.36171813101149 125000 -804.967934306662 0 0 130 (C1) n - 1
REM
REM in /home/nfs/bkarasulu/CARBON/AIRSS/Generating-Clusters/LCBOP/Only-C1/SD-CG/FIRE-HFTN
REM
REM
REM
REM
REM
REM ./C.cell (11c1c37f851c82e70ff6c80c92926a4b)
REM AIRSS Version 0.9.1 bugfix July 2018 build 013d7b7c2542+ Fri, 06 Jul 2018 19:26:36 +0100
REM compiler GCC version 9.2.1 20190827 (Red Hat 9.2.1-1)
REM options -cpp -mtune=generic -march=x86-64 -g -O0 -fpre-include=/usr/include/finclude/math-vector-fortran.h
REM seed 1819668201 -2039177554 -1547610239 -1121755344 1005533499 -667034172 -1504004554 -1134088298 983126576 1259166290 1625504116 -1097347860 -1250879776 295612190 1919384917 1397090828 1732282241 -1967021228 -561632249 1695819102 1575454762 -589991132 994705294 -1073424833 729813960 1882578908 736157224 -1683336475 1408417428 352877255 773752318 591500791 1951066431
REM
CELL 1.54180   50.00000   50.00000   50.00000   90.00000   90.00000   90.00000
LATT -1
SFAC C  
C      1  0.4922880000000  0.4578330000000  0.5090400000000 1.0
C      1  0.5116210000000  0.5154510000000  0.5136910000000 1.0
C      1  0.5395340000000  0.5421790000000  0.4451490000000 1.0
C      1  0.5318640000000  0.5574770000000  0.3993880000000 1.0
C      1  0.4767080000000  0.4199330000000  0.4268830000000 1.0
C      1  0.5439510000000  0.4046360000000  0.4662890000000 1.0
C      1  0.5489840000000  0.3999680000000  0.4958800000000 1.0
C      1  0.5159600000000  0.4090410000000  0.4580570000000 1.0
C      1  0.4957720000000  0.4780740000000  0.4399850000000 1.0
C      1  0.4861230000000  0.6440040000000  0.3222620000000 1.0
C      1  0.5144610000000  0.5152830000000  0.4150120000000 1.0
C      1  0.5882490000000  0.4174730000000  0.4787810000000 1.0
C      1  0.5748850000000  0.5038900000000  0.4843700000000 1.0
C      1  0.6001600000000  0.4523050000000  0.5090340000000 1.0
C      1  0.5745000000000  0.4109760000000  0.5041700000000 1.0
C      1  0.5547480000000  0.5245910000000  0.5296630000000 1.0
C      1  0.4067150000000  0.5100610000000  0.5095490000000 1.0
C      1  0.4223160000000  0.5376870000000  0.5487130000000 1.0
C      1  0.5567190000000  0.5202730000000  0.5982640000000 1.0
C      1  0.4067830000000  0.5733250000000  0.5216980000000 1.0
C      1  0.5434980000000  0.5980210000000  0.5157350000000 1.0
C      1  0.5707400000000  0.5138870000000  0.5739370000000 1.0
C      1  0.5258020000000  0.4832880000000  0.5807780000000 1.0
C      1  0.4794270000000  0.4326600000000  0.5640630000000 1.0
C      1  0.5867060000000  0.4599450000000  0.4597690000000 1.0
C      1  0.4662170000000  0.4993150000000  0.5028190000000 1.0
C      1  0.5325350000000  0.4710460000000  0.5330490000000 1.0
C      1  0.4702140000000  0.5639300000000  0.5620760000000 1.0
C      1  0.5207380000000  0.4632820000000  0.4403760000000 1.0
C      1  0.4803830000000  0.4988950000000  0.5607560000000 1.0
C      1  0.4976360000000  0.5301220000000  0.4713660000000 1.0
C      1  0.5419700000000  0.4806050000000  0.5581690000000 1.0
C      1  0.4545610000000  0.4855040000000  0.3991510000000 1.0
C      1  0.5330900000000  0.5276550000000  0.6093830000000 1.0
C      1  0.4438580000000  0.5355150000000  0.4466320000000 1.0
C      1  0.5271440000000  0.5306380000000  0.5298240000000 1.0
C      1  0.4924210000000  0.5002930000000  0.4232210000000 1.0
C      1  0.4706560000000  0.5720680000000  0.3876420000000 1.0
C      1  0.4515690000000  0.4632830000000  0.4594450000000 1.0
C      1  0.5866690000000  0.4689330000000  0.5506600000000 1.0
C      1  0.5326170000000  0.4670160000000  0.6026920000000 1.0
C      1  0.5658680000000  0.5465540000000  0.4556020000000 1.0
C      1  0.4039100000000  0.4830360000000  0.5010230000000 1.0
C      1  0.4274310000000  0.5189920000000  0.5274160000000 1.0
C      1  0.4402890000000  0.4371770000000  0.4608210000000 1.0
C      1  0.3923680000000  0.5572150000000  0.5055990000000 1.0
C      1  0.5209510000000  0.4405600000000  0.4234260000000 1.0
C      1  0.4607770000000  0.4451210000000  0.5816480000000 1.0
C      1  0.4457290000000  0.4602020000000  0.5233730000000 1.0
C      1  0.5065420000000  0.5321340000000  0.6118880000000 1.0
C      1  0.4787980000000  0.5344440000000  0.6054500000000 1.0
C      1  0.5700060000000  0.5965020000000  0.5207000000000 1.0
C      1  0.5609470000000  0.5052040000000  0.5099500000000 1.0
C      1  0.5692330000000  0.4874590000000  0.5630270000000 1.0
C      1  0.4356110000000  0.4504380000000  0.5707430000000 1.0
C      1  0.4997650000000  0.4189840000000  0.4800550000000 1.0
C      1  0.3888150000000  0.5300270000000  0.4988100000000 1.0
C      1  0.5314720000000  0.5665600000000  0.5623700000000 1.0
C      1  0.4838440000000  0.6633250000000  0.3049080000000 1.0
C      1  0.5542840000000  0.4301230000000  0.5640340000000 1.0
C      1  0.4667220000000  0.4838150000000  0.6124770000000 1.0
C      1  0.4347900000000  0.5170520000000  0.5955920000000 1.0
C      1  0.5242130000000  0.5806550000000  0.5042270000000 1.0
C      1  0.3903100000000  0.3883660000000  0.4806090000000 1.0
C      1  0.4962030000000  0.5824370000000  0.5102100000000 1.0
C      1  0.4354810000000  0.4858800000000  0.4564570000000 1.0
C      1  0.5358470000000  0.5598580000000  0.4880840000000 1.0
C      1  0.5182530000000  0.5743950000000  0.3840090000000 1.0
C      1  0.5251960000000  0.4588350000000  0.4690120000000 1.0
C      1  0.4602980000000  0.5115570000000  0.6070100000000 1.0
C      1  0.6082540000000  0.5038530000000  0.5190690000000 1.0
C      1  0.4583560000000  0.5544100000000  0.4032000000000 1.0
C      1  0.4541080000000  0.5738750000000  0.5396130000000 1.0
C      1  0.5689380000000  0.4156020000000  0.4558990000000 1.0
C      1  0.5099940000000  0.4535180000000  0.5313810000000 1.0
C      1  0.3495310000000  0.5150300000000  0.4649840000000 1.0
C      1  0.5679180000000  0.5338690000000  0.5535830000000 1.0
C      1  0.5270260000000  0.4308080000000  0.5734750000000 1.0
C      1  0.4025400000000  0.4112790000000  0.4784590000000 1.0
C      1  0.5208810000000  0.5452790000000  0.4674480000000 1.0
C      1  0.5654220000000  0.5539520000000  0.4837390000000 1.0
C      1  0.4801270000000  0.5127830000000  0.4821750000000 1.0
C      1  0.5210700000000  0.4411080000000  0.6006600000000 1.0
C      1  0.6019960000000  0.4763070000000  0.5260650000000 1.0
C      1  0.4872110000000  0.5443760000000  0.5502230000000 1.0
C      1  0.5016130000000  0.4033680000000  0.5036640000000 1.0
C      1  0.5000500000000  0.4917390000000  0.5766700000000 1.0
C      1  0.4931810000000  0.5840950000000  0.3760710000000 1.0
C      1  0.4484090000000  0.5562430000000  0.4656330000000 1.0
C      1  0.4308540000000  0.5120560000000  0.4551010000000 1.0
C      1  0.6001850000000  0.4448620000000  0.4810850000000 1.0
C      1  0.4907560000000  0.6047290000000  0.3575380000000 1.0
C      1  0.4559350000000  0.4176690000000  0.4468270000000 1.0
C      1  0.4216390000000  0.5284120000000  0.5751730000000 1.0
C      1  0.6032050000000  0.5298030000000  0.5106640000000 1.0
C      1  0.5747860000000  0.4402000000000  0.4419190000000 1.0
C      1  0.3680440000000  0.5225930000000  0.4816950000000 1.0
C      1  0.4265740000000  0.5650050000000  0.5399940000000 1.0
C      1  0.4884410000000  0.6243600000000  0.3399060000000 1.0
C      1  0.5306860000000  0.5376510000000  0.4190340000000 1.0
C      1  0.5893370000000  0.5779460000000  0.5167640000000 1.0
C      1  0.4680300000000  0.5766680000000  0.5130880000000 1.0
C      1  0.4552450000000  0.5151000000000  0.5233940000000 1.0
C      1  0.4582870000000  0.4589820000000  0.3960240000000 1.0
C      1  0.4306520000000  0.4553000000000  0.5448450000000 1.0
C      1  0.4954240000000  0.4412330000000  0.6133840000000 1.0
C      1  0.4060060000000  0.4588490000000  0.4892820000000 1.0
C      1  0.5875450000000  0.5533300000000  0.5025610000000 1.0
C      1  0.5760510000000  0.4409020000000  0.5489400000000 1.0
C      1  0.5696780000000  0.4799650000000  0.4696990000000 1.0
C      1  0.5148750000000  0.5482090000000  0.5480550000000 1.0
C      1  0.4736360000000  0.5201700000000  0.5443960000000 1.0
C      1  0.5224500000000  0.5890020000000  0.5749060000000 1.0
C      1  0.5838390000000  0.4308140000000  0.5231080000000 1.0
C      1  0.4557240000000  0.5326850000000  0.4205370000000 1.0
C      1  0.5589540000000  0.5593600000000  0.5622700000000 1.0
C      1  0.5056280000000  0.4360020000000  0.5541170000000 1.0
C      1  0.5056120000000  0.4180570000000  0.4325890000000 1.0
C      1  0.4795620000000  0.4647870000000  0.4605610000000 1.0
C      1  0.4678150000000  0.4719150000000  0.5107970000000 1.0
C      1  0.4982660000000  0.4493630000000  0.4810100000000 1.0
C      1  0.4161360000000  0.4355250000000  0.4761510000000 1.0
C      1  0.4665740000000  0.5069240000000  0.4132010000000 1.0
C      1  0.5459440000000  0.4696830000000  0.4834030000000 1.0
C      1  0.5449620000000  0.4804980000000  0.5097610000000 1.0
C      1  0.4548400000000  0.5685510000000  0.4888150000000 1.0
C      1  0.4685710000000  0.4355570000000  0.4043580000000 1.0
C      1  0.4721820000000  0.4562900000000  0.6054280000000 1.0
C      1  0.4696360000000  0.5579230000000  0.5902830000000 1.0
C      1  0.5260630000000  0.3943050000000  0.5113800000000 1.0
END
