TITL C-247200-3482-551 -5.02698444196079e-07 125000 -551.071413268174 0 0 90 (C1) n - 1
REM
REM in /home/nfs/bkarasulu/CARBON/AIRSS/Generating-Clusters/LCBOP/Only-C1/SD-CG/FIRE-HFTN
REM
REM
REM
REM
REM
REM ./C.cell (11c1c37f851c82e70ff6c80c92926a4b)
REM AIRSS Version 0.9.1 bugfix July 2018 build 013d7b7c2542+ Fri, 06 Jul 2018 19:26:36 +0100
REM compiler GCC version 9.2.1 20190827 (Red Hat 9.2.1-1)
REM options -cpp -mtune=generic -march=x86-64 -g -O0 -fpre-include=/usr/include/finclude/math-vector-fortran.h
REM seed 1726225612 -77369662 1246516826 1144629492 746453452 -1817054292 -1595368659 1781088296 -1075909918 -445240313 -1390857910 626140439 1530032810 -1344769526 -1599982263 -1937105924 -1122982323 -1775150239 269458470 -1056243012 -1982022822 329408598 1625340706 1436009734 -2947766 -1386647818 1486221255 1771526405 724989539 -1043548710 581205168 852316234 -942967290
REM
CELL 1.54180   50.00000   50.00000   50.00000   90.00000   90.00000   90.00000
LATT -1
SFAC C  
C      1  0.4392750000000  0.5628090000000  0.5051560000000 1.0
C      1  0.3919910000000  0.5137150000000  0.4902880000000 1.0
C      1  0.4687310000000  0.5577270000000  0.5625770000000 1.0
C      1  0.4678070000000  0.4955580000000  0.4978340000000 1.0
C      1  0.4951880000000  0.5560630000000  0.5759400000000 1.0
C      1  0.5347470000000  0.4920520000000  0.5847040000000 1.0
C      1  0.5021610000000  0.4986210000000  0.4608910000000 1.0
C      1  0.5785450000000  0.4463770000000  0.5410120000000 1.0
C      1  0.5803510000000  0.5321780000000  0.4651450000000 1.0
C      1  0.5347360000000  0.4394860000000  0.5686270000000 1.0
C      1  0.4866200000000  0.5075890000000  0.5166480000000 1.0
C      1  0.5303160000000  0.4347020000000  0.4838110000000 1.0
C      1  0.5635670000000  0.5431860000000  0.5167770000000 1.0
C      1  0.4822240000000  0.5868680000000  0.4951700000000 1.0
C      1  0.4764110000000  0.4640800000000  0.5479110000000 1.0
C      1  0.5565680000000  0.4243200000000  0.4848080000000 1.0
C      1  0.4734420000000  0.4699390000000  0.4872190000000 1.0
C      1  0.5143050000000  0.5054120000000  0.5136940000000 1.0
C      1  0.4890720000000  0.4860660000000  0.5894850000000 1.0
C      1  0.4237660000000  0.4256470000000  0.5213340000000 1.0
C      1  0.4466060000000  0.4550250000000  0.3834130000000 1.0
C      1  0.5874790000000  0.4611270000000  0.4934180000000 1.0
C      1  0.5084090000000  0.4428990000000  0.5783320000000 1.0
C      1  0.5148880000000  0.5208840000000  0.4697240000000 1.0
C      1  0.5285980000000  0.4802990000000  0.5149510000000 1.0
C      1  0.5807280000000  0.4359370000000  0.4820480000000 1.0
C      1  0.4473810000000  0.5137430000000  0.4911770000000 1.0
C      1  0.5492870000000  0.4767320000000  0.4674270000000 1.0
C      1  0.4960860000000  0.4017350000000  0.4713710000000 1.0
C      1  0.5123470000000  0.5344080000000  0.5832380000000 1.0
C      1  0.4746550000000  0.5328800000000  0.5216810000000 1.0
C      1  0.4604340000000  0.5515350000000  0.4343380000000 1.0
C      1  0.5441790000000  0.4989680000000  0.4203440000000 1.0
C      1  0.5817080000000  0.5114270000000  0.4846060000000 1.0
C      1  0.5267440000000  0.4648920000000  0.4873780000000 1.0
C      1  0.4551430000000  0.4529970000000  0.5003950000000 1.0
C      1  0.3959030000000  0.5401560000000  0.4934090000000 1.0
C      1  0.5135580000000  0.4343710000000  0.4394720000000 1.0
C      1  0.4721920000000  0.4862850000000  0.5658860000000 1.0
C      1  0.4983660000000  0.5874720000000  0.5397830000000 1.0
C      1  0.4870030000000  0.4390600000000  0.5597480000000 1.0
C      1  0.5067400000000  0.5870590000000  0.5125900000000 1.0
C      1  0.5746510000000  0.4838280000000  0.4804940000000 1.0
C      1  0.4076870000000  0.4628370000000  0.4898810000000 1.0
C      1  0.4119130000000  0.5613720000000  0.4986500000000 1.0
C      1  0.5518300000000  0.4508420000000  0.5489520000000 1.0
C      1  0.5098850000000  0.5057110000000  0.5900540000000 1.0
C      1  0.5475120000000  0.4963580000000  0.5593160000000 1.0
C      1  0.5362010000000  0.5482310000000  0.4261480000000 1.0
C      1  0.5035720000000  0.5209170000000  0.4008570000000 1.0
C      1  0.4774970000000  0.4823630000000  0.4078790000000 1.0
C      1  0.4565610000000  0.4266770000000  0.5932230000000 1.0
C      1  0.4912830000000  0.5790030000000  0.4684490000000 1.0
C      1  0.5926610000000  0.4585830000000  0.5212010000000 1.0
C      1  0.4523730000000  0.5348630000000  0.5648150000000 1.0
C      1  0.4510250000000  0.5375440000000  0.5058760000000 1.0
C      1  0.5206820000000  0.5739190000000  0.4683770000000 1.0
C      1  0.5535780000000  0.5252100000000  0.4234410000000 1.0
C      1  0.5094200000000  0.5790750000000  0.5645860000000 1.0
C      1  0.5208790000000  0.4589100000000  0.4283110000000 1.0
C      1  0.4611000000000  0.4241360000000  0.5649070000000 1.0
C      1  0.4766730000000  0.5114590000000  0.4064340000000 1.0
C      1  0.5395800000000  0.5402480000000  0.5745900000000 1.0
C      1  0.5426620000000  0.4764900000000  0.4391750000000 1.0
C      1  0.4441180000000  0.4297520000000  0.5415380000000 1.0
C      1  0.4544870000000  0.5080500000000  0.5637330000000 1.0
C      1  0.4734780000000  0.5695060000000  0.4491120000000 1.0
C      1  0.3965800000000  0.4872820000000  0.4887250000000 1.0
C      1  0.5405440000000  0.5627160000000  0.4504380000000 1.0
C      1  0.4587240000000  0.4528980000000  0.5289850000000 1.0
C      1  0.4420160000000  0.4593610000000  0.4305850000000 1.0
C      1  0.5271380000000  0.5732050000000  0.4975710000000 1.0
C      1  0.4993480000000  0.4734720000000  0.4748990000000 1.0
C      1  0.5381690000000  0.5483610000000  0.5057910000000 1.0
C      1  0.4551000000000  0.4653760000000  0.4073040000000 1.0
C      1  0.5428260000000  0.4763730000000  0.5395330000000 1.0
C      1  0.4717500000000  0.4434420000000  0.6090960000000 1.0
C      1  0.5211410000000  0.4978160000000  0.4028070000000 1.0
C      1  0.5125070000000  0.4224840000000  0.4649890000000 1.0
C      1  0.5805490000000  0.5228890000000  0.5106190000000 1.0
C      1  0.5664280000000  0.5551200000000  0.4607090000000 1.0
C      1  0.4942370000000  0.4586790000000  0.5991020000000 1.0
C      1  0.5051320000000  0.4736490000000  0.4091060000000 1.0
C      1  0.5242770000000  0.5254220000000  0.4960920000000 1.0
C      1  0.5138530000000  0.5459710000000  0.4090800000000 1.0
C      1  0.4595610000000  0.5295900000000  0.4190540000000 1.0
C      1  0.4695120000000  0.5784790000000  0.5409130000000 1.0
C      1  0.5548900000000  0.5235950000000  0.5594450000000 1.0
C      1  0.4591730000000  0.5816180000000  0.5131460000000 1.0
C      1  0.4269810000000  0.4440330000000  0.4982480000000 1.0
END
