TITL C-247202-1916-660 0.000189548096020979 125000 -254.936082437496 0 0 43 (C1) n - 1
REM
REM in /home/nfs/bkarasulu/CARBON/AIRSS/Generating-Clusters/LCBOP/Only-C1/SD-CG/FIRE-HFTN
REM
REM
REM
REM
REM
REM ./C.cell (11c1c37f851c82e70ff6c80c92926a4b)
REM AIRSS Version 0.9.1 bugfix July 2018 build 013d7b7c2542+ Fri, 06 Jul 2018 19:26:36 +0100
REM compiler GCC version 9.2.1 20190827 (Red Hat 9.2.1-1)
REM options -cpp -mtune=generic -march=x86-64 -g -O0 -fpre-include=/usr/include/finclude/math-vector-fortran.h
REM seed -801691769 300427066 -1448853346 1305274708 69595109 -844411525 -417904220 232358535 -1415516863 79494018 -1056669979 -429636411 1237776054 -1747161278 -408049814 -1644972115 -1043255398 -1666549554 -593251440 1113172026 -1928649997 1493528255 -35463300 -1213010662 943616810 502825492 -2079509433 -601537356 -120853017 -1256034594 -1906542841 1578538740 -645293166
REM
CELL 1.54180   50.00000   50.00000   50.00000   90.00000   90.00000   90.00000
LATT -1
SFAC C  
C      1  0.5151160000000  0.5130130000000  0.5193390000000 1.0
C      1  0.4838640000000  0.4166240000000  0.4628660000000 1.0
C      1  0.4605120000000  0.5061390000000  0.4296480000000 1.0
C      1  0.4617050000000  0.5060590000000  0.4576480000000 1.0
C      1  0.4361410000000  0.5097410000000  0.5520150000000 1.0
C      1  0.5420690000000  0.4688920000000  0.4266450000000 1.0
C      1  0.4927880000000  0.5360560000000  0.4801260000000 1.0
C      1  0.4738410000000  0.4832170000000  0.4700370000000 1.0
C      1  0.4893660000000  0.4463570000000  0.5192930000000 1.0
C      1  0.4585730000000  0.4979710000000  0.5642660000000 1.0
C      1  0.4921180000000  0.5524040000000  0.5389930000000 1.0
C      1  0.4647130000000  0.4356520000000  0.4619900000000 1.0
C      1  0.5324220000000  0.4677150000000  0.5233110000000 1.0
C      1  0.5250450000000  0.4333020000000  0.4885440000000 1.0
C      1  0.4837410000000  0.5078720000000  0.5565460000000 1.0
C      1  0.5449950000000  0.4442110000000  0.4720170000000 1.0
C      1  0.5072420000000  0.4151210000000  0.4761270000000 1.0
C      1  0.5162760000000  0.5843270000000  0.4729190000000 1.0
C      1  0.5604790000000  0.5054690000000  0.5362730000000 1.0
C      1  0.4299650000000  0.5284040000000  0.5338230000000 1.0
C      1  0.5827830000000  0.5161820000000  0.5457230000000 1.0
C      1  0.5096120000000  0.5714740000000  0.5476210000000 1.0
C      1  0.5498980000000  0.4567860000000  0.4490260000000 1.0
C      1  0.5272330000000  0.6079540000000  0.4717850000000 1.0
C      1  0.6050150000000  0.5270560000000  0.5552110000000 1.0
C      1  0.5062040000000  0.5138830000000  0.4923430000000 1.0
C      1  0.4665490000000  0.5588580000000  0.5289860000000 1.0
C      1  0.4653180000000  0.5302790000000  0.4727710000000 1.0
C      1  0.4539560000000  0.4576580000000  0.5997130000000 1.0
C      1  0.5011640000000  0.4907260000000  0.4031160000000 1.0
C      1  0.4986700000000  0.5245810000000  0.5395470000000 1.0
C      1  0.4770340000000  0.5001310000000  0.4094830000000 1.0
C      1  0.5168870000000  0.4469630000000  0.5124680000000 1.0
C      1  0.4455280000000  0.5414280000000  0.4892960000000 1.0
C      1  0.4445290000000  0.5456930000000  0.5171090000000 1.0
C      1  0.4560240000000  0.4774040000000  0.5828310000000 1.0
C      1  0.6268820000000  0.5377530000000  0.5645440000000 1.0
C      1  0.4631600000000  0.4584610000000  0.4786430000000 1.0
C      1  0.5364090000000  0.4953860000000  0.5265200000000 1.0
C      1  0.5245950000000  0.4801060000000  0.4099940000000 1.0
C      1  0.5050310000000  0.5604260000000  0.4749250000000 1.0
C      1  0.4999890000000  0.4894290000000  0.4795540000000 1.0
C      1  0.4665630000000  0.4528380000000  0.5063660000000 1.0
END
