TITL C-247202-1916-422 4.68976985190644e-05 125000 -367.483029698833 0 0 60 (C1) n - 1
REM
REM in /home/nfs/bkarasulu/CARBON/AIRSS/Generating-Clusters/LCBOP/Only-C1/SD-CG/FIRE-HFTN
REM
REM
REM
REM
REM
REM ./C.cell (11c1c37f851c82e70ff6c80c92926a4b)
REM AIRSS Version 0.9.1 bugfix July 2018 build 013d7b7c2542+ Fri, 06 Jul 2018 19:26:36 +0100
REM compiler GCC version 9.2.1 20190827 (Red Hat 9.2.1-1)
REM options -cpp -mtune=generic -march=x86-64 -g -O0 -fpre-include=/usr/include/finclude/math-vector-fortran.h
REM seed 738087524 -2057604244 -1539342637 -11217951 -1448092716 631609059 -627465821 1069209532 2023129903 -48650973 1767143974 1259181300 -1343989406 872540396 1736941133 -629770323 1134056310 -833193174 -1181296335 1334785479 -692092865 1903921458 -1594849018 -308272744 -55060591 -579909553 328500887 -207885840 1211952446 698066948 979428117 -1416443109 -1296508798
REM
CELL 1.54180   50.00000   50.00000   50.00000   90.00000   90.00000   90.00000
LATT -1
SFAC C  
C      1  0.5578620000000  0.5205490000000  0.4546110000000 1.0
C      1  0.5159870000000  0.5692540000000  0.5103960000000 1.0
C      1  0.5021430000000  0.4409290000000  0.4291260000000 1.0
C      1  0.5564970000000  0.5483160000000  0.4492780000000 1.0
C      1  0.5337030000000  0.5861240000000  0.5543250000000 1.0
C      1  0.4854870000000  0.4286610000000  0.5206500000000 1.0
C      1  0.4962800000000  0.5126650000000  0.4248850000000 1.0
C      1  0.5135860000000  0.5591930000000  0.4270920000000 1.0
C      1  0.4950930000000  0.5396090000000  0.4357370000000 1.0
C      1  0.4728970000000  0.4253340000000  0.4955310000000 1.0
C      1  0.5256370000000  0.5432880000000  0.5076760000000 1.0
C      1  0.5162880000000  0.5428580000000  0.6147980000000 1.0
C      1  0.4521870000000  0.3554200000000  0.4737900000000 1.0
C      1  0.4542410000000  0.5553200000000  0.4934100000000 1.0
C      1  0.4610600000000  0.4864610000000  0.5121920000000 1.0
C      1  0.4796850000000  0.6262120000000  0.4809570000000 1.0
C      1  0.4584610000000  0.4845550000000  0.5596030000000 1.0
C      1  0.4289710000000  0.4604710000000  0.5891710000000 1.0
C      1  0.5133870000000  0.4662040000000  0.5387670000000 1.0
C      1  0.4499770000000  0.4775040000000  0.5853310000000 1.0
C      1  0.4684030000000  0.5111380000000  0.5510650000000 1.0
C      1  0.5107430000000  0.6139710000000  0.5184810000000 1.0
C      1  0.5352880000000  0.4582330000000  0.5231710000000 1.0
C      1  0.5469670000000  0.5097050000000  0.4786830000000 1.0
C      1  0.4676220000000  0.4495850000000  0.4819780000000 1.0
C      1  0.5471360000000  0.4386990000000  0.4799780000000 1.0
C      1  0.4484360000000  0.5359220000000  0.5108770000000 1.0
C      1  0.5370380000000  0.4259960000000  0.4589220000000 1.0
C      1  0.4647890000000  0.4689730000000  0.5359870000000 1.0
C      1  0.4698070000000  0.4774650000000  0.4866330000000 1.0
C      1  0.4637170000000  0.4886090000000  0.6071120000000 1.0
C      1  0.4583870000000  0.5133290000000  0.5234790000000 1.0
C      1  0.5479250000000  0.4599120000000  0.4981930000000 1.0
C      1  0.5063330000000  0.3939090000000  0.4394350000000 1.0
C      1  0.5556410000000  0.4852560000000  0.4890450000000 1.0
C      1  0.5430280000000  0.5006420000000  0.4107460000000 1.0
C      1  0.5134680000000  0.4918840000000  0.5510320000000 1.0
C      1  0.4981010000000  0.5177660000000  0.4776550000000 1.0
C      1  0.4957490000000  0.5797840000000  0.4919350000000 1.0
C      1  0.4881950000000  0.4525610000000  0.5353050000000 1.0
C      1  0.5350720000000  0.5757530000000  0.5787230000000 1.0
C      1  0.4810580000000  0.5045810000000  0.6193270000000 1.0
C      1  0.5170820000000  0.5065620000000  0.4066410000000 1.0
C      1  0.4880130000000  0.3778230000000  0.4501880000000 1.0
C      1  0.4965080000000  0.5127160000000  0.5550600000000 1.0
C      1  0.5388970000000  0.5633550000000  0.4354800000000 1.0
C      1  0.4657760000000  0.4003130000000  0.4856940000000 1.0
C      1  0.4779240000000  0.5617190000000  0.4795570000000 1.0
C      1  0.5596630000000  0.5041630000000  0.4316080000000 1.0
C      1  0.4995620000000  0.5234640000000  0.6218020000000 1.0
C      1  0.4681690000000  0.3771840000000  0.4700050000000 1.0
C      1  0.5232110000000  0.5901570000000  0.5290750000000 1.0
C      1  0.4884760000000  0.5409830000000  0.4634090000000 1.0
C      1  0.5165420000000  0.4199200000000  0.4408110000000 1.0
C      1  0.4850950000000  0.4939460000000  0.4691910000000 1.0
C      1  0.4938880000000  0.6084310000000  0.4956350000000 1.0
C      1  0.5287770000000  0.5608080000000  0.5997440000000 1.0
C      1  0.4871100000000  0.4901130000000  0.4407260000000 1.0
C      1  0.4894350000000  0.4642540000000  0.4302680000000 1.0
C      1  0.5235400000000  0.5214920000000  0.4900200000000 1.0
END
