TITL C-247197-3123-599 0.205646598860822 125000 -516.926828766117 0 0 85 (C1) n - 1
REM
REM in /home/nfs/bkarasulu/CARBON/AIRSS/Generating-Clusters/LCBOP/Only-C1/SD-CG/FIRE-HFTN
REM
REM
REM
REM
REM
REM ./C.cell (11c1c37f851c82e70ff6c80c92926a4b)
REM AIRSS Version 0.9.1 bugfix July 2018 build 013d7b7c2542+ Fri, 06 Jul 2018 19:26:36 +0100
REM compiler GCC version 9.2.1 20190827 (Red Hat 9.2.1-1)
REM options -cpp -mtune=generic -march=x86-64 -g -O0 -fpre-include=/usr/include/finclude/math-vector-fortran.h
REM seed -1239033128 -539981845 1098508456 2040640121 1430342120 -1342957293 -1179624170 -1081986689 2018128136 60341777 -922642513 -443108806 13420049 1488334473 1771417162 -1124617132 -1288860048 1593152433 1859341221 246581751 1468542574 -674944463 1334252872 -29740037 -424783770 1466484639 -1412719414 -2108794362 992263255 -520716596 1999709021 1747346859 1850361900
REM
CELL 1.54180   50.00000   50.00000   50.00000   90.00000   90.00000   90.00000
LATT -1
SFAC C  
C      1  0.4533020000000  0.4892260000000  0.4203770000000 1.0
C      1  0.4865370000000  0.5807570000000  0.4900800000000 1.0
C      1  0.5389270000000  0.4986360000000  0.5606040000000 1.0
C      1  0.4786660000000  0.5631010000000  0.4691320000000 1.0
C      1  0.5419380000000  0.4698280000000  0.5669690000000 1.0
C      1  0.5725010000000  0.4554990000000  0.5319270000000 1.0
C      1  0.4762890000000  0.4764150000000  0.4254210000000 1.0
C      1  0.3995220000000  0.5104330000000  0.5129440000000 1.0
C      1  0.5969350000000  0.5318580000000  0.4473780000000 1.0
C      1  0.5490810000000  0.4508730000000  0.5471760000000 1.0
C      1  0.5426270000000  0.3244990000000  0.3182590000000 1.0
C      1  0.5189150000000  0.4716140000000  0.4540580000000 1.0
C      1  0.5770940000000  0.5755080000000  0.4358780000000 1.0
C      1  0.5532530000000  0.5113610000000  0.5392760000000 1.0
C      1  0.4876020000000  0.4374300000000  0.5991220000000 1.0
C      1  0.5368750000000  0.3579520000000  0.3584100000000 1.0
C      1  0.4634890000000  0.4510100000000  0.5943930000000 1.0
C      1  0.4448150000000  0.5571820000000  0.5428460000000 1.0
C      1  0.5582670000000  0.5967000000000  0.4943300000000 1.0
C      1  0.4183500000000  0.5552690000000  0.5525010000000 1.0
C      1  0.5113500000000  0.5916200000000  0.4784100000000 1.0
C      1  0.4404120000000  0.5436290000000  0.4634350000000 1.0
C      1  0.4175730000000  0.4115630000000  0.5836430000000 1.0
C      1  0.4747050000000  0.4657940000000  0.5273140000000 1.0
C      1  0.5659920000000  0.5352290000000  0.5438280000000 1.0
C      1  0.5339760000000  0.3748130000000  0.3786470000000 1.0
C      1  0.5028950000000  0.5371470000000  0.4209150000000 1.0
C      1  0.5281760000000  0.4085370000000  0.4191190000000 1.0
C      1  0.4994420000000  0.4697120000000  0.5147440000000 1.0
C      1  0.3910220000000  0.4901130000000  0.5277200000000 1.0
C      1  0.5295910000000  0.4645720000000  0.5927620000000 1.0
C      1  0.4486000000000  0.4465750000000  0.5705740000000 1.0
C      1  0.4837600000000  0.5360290000000  0.4729250000000 1.0
C      1  0.5489610000000  0.5369780000000  0.4372080000000 1.0
C      1  0.4589220000000  0.4557450000000  0.5461660000000 1.0
C      1  0.5098680000000  0.4956700000000  0.5074470000000 1.0
C      1  0.5200630000000  0.4364460000000  0.4864090000000 1.0
C      1  0.4778220000000  0.5507110000000  0.4270300000000 1.0
C      1  0.4523850000000  0.5378760000000  0.4366950000000 1.0
C      1  0.4730670000000  0.5359880000000  0.5826070000000 1.0
C      1  0.4018520000000  0.4501610000000  0.5593400000000 1.0
C      1  0.5751230000000  0.5474930000000  0.4402330000000 1.0
C      1  0.4886770000000  0.5129440000000  0.5456680000000 1.0
C      1  0.3914890000000  0.4691950000000  0.5440310000000 1.0
C      1  0.5341530000000  0.5830060000000  0.4935430000000 1.0
C      1  0.5279870000000  0.5534210000000  0.4245210000000 1.0
C      1  0.5014190000000  0.4840070000000  0.4346230000000 1.0
C      1  0.4526740000000  0.5251100000000  0.5997960000000 1.0
C      1  0.5139270000000  0.4423860000000  0.5990590000000 1.0
C      1  0.5213020000000  0.4906300000000  0.6024020000000 1.0
C      1  0.5358300000000  0.4926840000000  0.4664300000000 1.0
C      1  0.4560550000000  0.5002100000000  0.6120470000000 1.0
C      1  0.5809130000000  0.6094230000000  0.4964490000000 1.0
C      1  0.5083680000000  0.5893050000000  0.4485380000000 1.0
C      1  0.4150410000000  0.5288650000000  0.5018840000000 1.0
C      1  0.5397750000000  0.3410860000000  0.3381680000000 1.0
C      1  0.5557380000000  0.5916880000000  0.4314370000000 1.0
C      1  0.5213880000000  0.4441400000000  0.4595740000000 1.0
C      1  0.5755330000000  0.4763220000000  0.5149030000000 1.0
C      1  0.5570280000000  0.4977330000000  0.5137850000000 1.0
C      1  0.5158470000000  0.4463730000000  0.5121600000000 1.0
C      1  0.4224090000000  0.4355750000000  0.5715480000000 1.0
C      1  0.6160070000000  0.5161130000000  0.4555950000000 1.0
C      1  0.5046780000000  0.5467120000000  0.5167200000000 1.0
C      1  0.5287220000000  0.4351030000000  0.5349320000000 1.0
C      1  0.5109100000000  0.5107850000000  0.4300980000000 1.0
C      1  0.4538950000000  0.5556060000000  0.5155540000000 1.0
C      1  0.5290560000000  0.5596410000000  0.5093800000000 1.0
C      1  0.4942010000000  0.5198190000000  0.5722740000000 1.0
C      1  0.5221700000000  0.4102920000000  0.5442730000000 1.0
C      1  0.5356000000000  0.4966930000000  0.4946690000000 1.0
C      1  0.5294650000000  0.5813910000000  0.4314620000000 1.0
C      1  0.5251940000000  0.4254870000000  0.4392520000000 1.0
C      1  0.4441030000000  0.5141470000000  0.4237860000000 1.0
C      1  0.4837900000000  0.5739290000000  0.4431960000000 1.0
C      1  0.5193870000000  0.5097530000000  0.5807740000000 1.0
C      1  0.4642010000000  0.5559270000000  0.5639940000000 1.0
C      1  0.4816230000000  0.5639680000000  0.5125850000000 1.0
C      1  0.4373220000000  0.5441040000000  0.4930420000000 1.0
C      1  0.4114590000000  0.5460860000000  0.5770030000000 1.0
C      1  0.4576510000000  0.4737590000000  0.6097390000000 1.0
C      1  0.5363610000000  0.5131340000000  0.4460320000000 1.0
C      1  0.5005970000000  0.5188310000000  0.5212370000000 1.0
C      1  0.5310770000000  0.3916740000000  0.3988840000000 1.0
C      1  0.4264320000000  0.5353890000000  0.5966980000000 1.0
END
