TITL C-247198-3593-20 2.33448978055956e-05 125000 -993.934360375097 0 0 162 (C1) n - 1
REM
REM in /home/nfs/bkarasulu/CARBON/AIRSS/Generating-Clusters/LCBOP/Only-C1/SD-CG/FIRE-HFTN
REM
REM
REM
REM
REM
REM ./C.cell (11c1c37f851c82e70ff6c80c92926a4b)
REM AIRSS Version 0.9.1 bugfix July 2018 build 013d7b7c2542+ Fri, 06 Jul 2018 19:26:36 +0100
REM compiler GCC version 9.2.1 20190827 (Red Hat 9.2.1-1)
REM options -cpp -mtune=generic -march=x86-64 -g -O0 -fpre-include=/usr/include/finclude/math-vector-fortran.h
REM seed -786366720 1810249076 -635063325 1283089252 -435273839 -582296909 610151889 -195727770 -1052915727 1981588915 -1887497006 -1661189521 -637073795 -201333355 -1874825497 1174220884 961746352 -362283047 1450492255 541376460 1242492067 241682330 1621223657 638862636 1134918883 -1845283634 1106093083 -2064498750 -1604405979 -1348814142 787685901 1943246029 -675148675
REM
CELL 1.54180   50.00000   50.00000   50.00000   90.00000   90.00000   90.00000
LATT -1
SFAC C  
C      1  0.4950090000000  0.3741340000000  0.5278370000000 1.0
C      1  0.5592180000000  0.4050580000000  0.4844730000000 1.0
C      1  0.4465920000000  0.4791740000000  0.5932360000000 1.0
C      1  0.5091470000000  0.3990040000000  0.4389140000000 1.0
C      1  0.3999040000000  0.4655570000000  0.5390510000000 1.0
C      1  0.5522500000000  0.4652210000000  0.6154120000000 1.0
C      1  0.4887720000000  0.3828920000000  0.4506690000000 1.0
C      1  0.5755790000000  0.5319330000000  0.5491920000000 1.0
C      1  0.4741840000000  0.4854500000000  0.4582780000000 1.0
C      1  0.4847910000000  0.5524040000000  0.3920260000000 1.0
C      1  0.4407240000000  0.5502160000000  0.5883030000000 1.0
C      1  0.4363020000000  0.4713190000000  0.5676480000000 1.0
C      1  0.5607740000000  0.5499380000000  0.4114190000000 1.0
C      1  0.5276820000000  0.6071750000000  0.4773780000000 1.0
C      1  0.4690580000000  0.5004380000000  0.4328550000000 1.0
C      1  0.4376660000000  0.5004560000000  0.4951320000000 1.0
C      1  0.4395330000000  0.5364710000000  0.4301420000000 1.0
C      1  0.4936440000000  0.3685020000000  0.5019150000000 1.0
C      1  0.5166390000000  0.4262060000000  0.4416130000000 1.0
C      1  0.4392080000000  0.5275190000000  0.4940660000000 1.0
C      1  0.5268590000000  0.5307060000000  0.4390070000000 1.0
C      1  0.4742820000000  0.5728400000000  0.4059590000000 1.0
C      1  0.5495820000000  0.5973880000000  0.5271290000000 1.0
C      1  0.4545920000000  0.5940590000000  0.4505440000000 1.0
C      1  0.5270050000000  0.4702250000000  0.5744230000000 1.0
C      1  0.4837820000000  0.3900020000000  0.6486060000000 1.0
C      1  0.4740130000000  0.5568680000000  0.4817200000000 1.0
C      1  0.4421430000000  0.4564470000000  0.4834800000000 1.0
C      1  0.4861110000000  0.4968390000000  0.5712800000000 1.0
C      1  0.5226560000000  0.4982970000000  0.5215470000000 1.0
C      1  0.4709530000000  0.5915390000000  0.5216170000000 1.0
C      1  0.5311990000000  0.4640390000000  0.4093510000000 1.0
C      1  0.5115730000000  0.5515810000000  0.6072130000000 1.0
C      1  0.6001270000000  0.5141690000000  0.4920070000000 1.0
C      1  0.4818380000000  0.4759570000000  0.5036660000000 1.0
C      1  0.5846270000000  0.5044890000000  0.5536240000000 1.0
C      1  0.4129100000000  0.5301840000000  0.4233150000000 1.0
C      1  0.5481390000000  0.5268210000000  0.4208850000000 1.0
C      1  0.4694310000000  0.4816480000000  0.4109430000000 1.0
C      1  0.6005240000000  0.5057900000000  0.4646560000000 1.0
C      1  0.5787450000000  0.4882110000000  0.4586040000000 1.0
C      1  0.4653080000000  0.5475440000000  0.6015630000000 1.0
C      1  0.4692230000000  0.4969320000000  0.5970840000000 1.0
C      1  0.5401300000000  0.4063060000000  0.5036600000000 1.0
C      1  0.5091650000000  0.5058420000000  0.3829270000000 1.0
C      1  0.5307620000000  0.5327020000000  0.5698200000000 1.0
C      1  0.4751350000000  0.5214090000000  0.6114410000000 1.0
C      1  0.4640580000000  0.5279750000000  0.4386960000000 1.0
C      1  0.5686600000000  0.4158250000000  0.5504510000000 1.0
C      1  0.4739690000000  0.5895610000000  0.5489520000000 1.0
C      1  0.5059800000000  0.5251640000000  0.4569590000000 1.0
C      1  0.4652970000000  0.5060160000000  0.5525970000000 1.0
C      1  0.4074610000000  0.5633880000000  0.5294220000000 1.0
C      1  0.5021080000000  0.6084570000000  0.4628800000000 1.0
C      1  0.5909790000000  0.4293300000000  0.5361730000000 1.0
C      1  0.5279360000000  0.3862060000000  0.5613210000000 1.0
C      1  0.4810360000000  0.3908180000000  0.6226940000000 1.0
C      1  0.3842340000000  0.5017100000000  0.5041680000000 1.0
C      1  0.4265490000000  0.5824940000000  0.4552880000000 1.0
C      1  0.5565070000000  0.4726970000000  0.4208440000000 1.0
C      1  0.4135570000000  0.5692310000000  0.4789970000000 1.0
C      1  0.5885010000000  0.5795470000000  0.4986430000000 1.0
C      1  0.4087340000000  0.5018660000000  0.4195780000000 1.0
C      1  0.4660440000000  0.4403810000000  0.5284600000000 1.0
C      1  0.4411610000000  0.3956460000000  0.4560320000000 1.0
C      1  0.5525250000000  0.4945650000000  0.4683870000000 1.0
C      1  0.3869990000000  0.5221650000000  0.4863540000000 1.0
C      1  0.5807070000000  0.4236600000000  0.4819060000000 1.0
C      1  0.4965410000000  0.4958190000000  0.5130640000000 1.0
C      1  0.4257640000000  0.4164940000000  0.4625330000000 1.0
C      1  0.5346820000000  0.4285350000000  0.5200270000000 1.0
C      1  0.5586140000000  0.5663640000000  0.5918670000000 1.0
C      1  0.4116300000000  0.5418550000000  0.5475120000000 1.0
C      1  0.5377210000000  0.5209290000000  0.5233950000000 1.0
C      1  0.4743080000000  0.6025410000000  0.4723830000000 1.0
C      1  0.4726090000000  0.5438260000000  0.5269250000000 1.0
C      1  0.5002320000000  0.3853900000000  0.5531370000000 1.0
C      1  0.4228430000000  0.4501110000000  0.5522220000000 1.0
C      1  0.4477500000000  0.4834350000000  0.3929520000000 1.0
C      1  0.4593160000000  0.5328250000000  0.5483050000000 1.0
C      1  0.5763830000000  0.5838060000000  0.4713270000000 1.0
C      1  0.4588210000000  0.3865200000000  0.4125700000000 1.0
C      1  0.5495210000000  0.5330540000000  0.5010840000000 1.0
C      1  0.4005410000000  0.4593650000000  0.4562930000000 1.0
C      1  0.6107940000000  0.5267150000000  0.4479960000000 1.0
C      1  0.3748350000000  0.4506110000000  0.4609890000000 1.0
C      1  0.5751450000000  0.5689710000000  0.4234370000000 1.0
C      1  0.5470510000000  0.4344110000000  0.5457120000000 1.0
C      1  0.4681440000000  0.4483260000000  0.4986850000000 1.0
C      1  0.4817340000000  0.5409820000000  0.4582480000000 1.0
C      1  0.5362560000000  0.4746280000000  0.5257800000000 1.0
C      1  0.4621230000000  0.3849830000000  0.4405090000000 1.0
C      1  0.4930560000000  0.3705550000000  0.4754250000000 1.0
C      1  0.5120780000000  0.4463450000000  0.4209090000000 1.0
C      1  0.3914200000000  0.4933570000000  0.5308810000000 1.0
C      1  0.5323690000000  0.4535450000000  0.5074080000000 1.0
C      1  0.5546640000000  0.3924190000000  0.5596790000000 1.0
C      1  0.4785180000000  0.3918990000000  0.5963440000000 1.0
C      1  0.5026940000000  0.4972190000000  0.4647620000000 1.0
C      1  0.4984940000000  0.5541100000000  0.5270940000000 1.0
C      1  0.4772360000000  0.3946250000000  0.5684440000000 1.0
C      1  0.5347060000000  0.5547930000000  0.4924500000000 1.0
C      1  0.5154350000000  0.5635880000000  0.5088100000000 1.0
C      1  0.5475510000000  0.4650180000000  0.5522800000000 1.0
C      1  0.6276730000000  0.5668370000000  0.4723050000000 1.0
C      1  0.3976830000000  0.5167480000000  0.5469160000000 1.0
C      1  0.5768190000000  0.4762710000000  0.5536040000000 1.0
C      1  0.5118630000000  0.4363620000000  0.4680950000000 1.0
C      1  0.4736710000000  0.5841290000000  0.4935840000000 1.0
C      1  0.5073400000000  0.5175340000000  0.5702080000000 1.0
C      1  0.4220170000000  0.4438450000000  0.4680770000000 1.0
C      1  0.4608320000000  0.4085820000000  0.3974540000000 1.0
C      1  0.6212280000000  0.5223280000000  0.5088860000000 1.0
C      1  0.3989160000000  0.5549220000000  0.4216880000000 1.0
C      1  0.4878530000000  0.5653940000000  0.5948070000000 1.0
C      1  0.4451220000000  0.4884340000000  0.5463780000000 1.0
C      1  0.4907740000000  0.5843640000000  0.5722440000000 1.0
C      1  0.4865360000000  0.4517190000000  0.5468120000000 1.0
C      1  0.5590760000000  0.5012540000000  0.4158770000000 1.0
C      1  0.5038040000000  0.5246960000000  0.6175260000000 1.0
C      1  0.5941150000000  0.4272250000000  0.5073380000000 1.0
C      1  0.5265560000000  0.4566300000000  0.4805600000000 1.0
C      1  0.4970430000000  0.5297680000000  0.3843990000000 1.0
C      1  0.4991370000000  0.4701150000000  0.5651880000000 1.0
C      1  0.4532500000000  0.4066070000000  0.5576050000000 1.0
C      1  0.5164920000000  0.5962780000000  0.5689800000000 1.0
C      1  0.4221370000000  0.4909600000000  0.3969140000000 1.0
C      1  0.4732520000000  0.5915380000000  0.4270090000000 1.0
C      1  0.4487390000000  0.4839490000000  0.4757070000000 1.0
C      1  0.4759610000000  0.4558000000000  0.4498930000000 1.0
C      1  0.5779040000000  0.5725520000000  0.5737860000000 1.0
C      1  0.5204540000000  0.4824490000000  0.3899560000000 1.0
C      1  0.5880430000000  0.5706560000000  0.4481510000000 1.0
C      1  0.5522770000000  0.5980440000000  0.4657260000000 1.0
C      1  0.4609450000000  0.5420080000000  0.5016670000000 1.0
C      1  0.4986360000000  0.6042390000000  0.4343580000000 1.0
C      1  0.5350750000000  0.5510160000000  0.5912390000000 1.0
C      1  0.5735270000000  0.5797060000000  0.5241910000000 1.0
C      1  0.6249700000000  0.5484990000000  0.5155500000000 1.0
C      1  0.5806800000000  0.5612810000000  0.5474620000000 1.0
C      1  0.4134800000000  0.5765250000000  0.5065020000000 1.0
C      1  0.5341030000000  0.6088590000000  0.5055280000000 1.0
C      1  0.5959780000000  0.4555220000000  0.5472840000000 1.0
C      1  0.4839260000000  0.4392950000000  0.4731890000000 1.0
C      1  0.6161940000000  0.5694320000000  0.4984180000000 1.0
C      1  0.4818610000000  0.4541340000000  0.4193390000000 1.0
C      1  0.4095800000000  0.5780310000000  0.4320690000000 1.0
C      1  0.4362960000000  0.5429980000000  0.5616000000000 1.0
C      1  0.5809190000000  0.4400490000000  0.4580650000000 1.0
C      1  0.5331710000000  0.4792560000000  0.6013750000000 1.0
C      1  0.5206320000000  0.5015640000000  0.6146750000000 1.0
C      1  0.3975980000000  0.5448890000000  0.4757270000000 1.0
C      1  0.6116140000000  0.5550900000000  0.4521470000000 1.0
C      1  0.5470870000000  0.5296460000000  0.5479420000000 1.0
C      1  0.4681700000000  0.4336560000000  0.4026610000000 1.0
C      1  0.5747640000000  0.4636990000000  0.4429180000000 1.0
C      1  0.5269020000000  0.4829590000000  0.4702510000000 1.0
C      1  0.5758440000000  0.5268340000000  0.4973080000000 1.0
C      1  0.4432140000000  0.4297410000000  0.5435000000000 1.0
C      1  0.4354660000000  0.4892790000000  0.5205180000000 1.0
C      1  0.4034800000000  0.4830230000000  0.4404520000000 1.0
C      1  0.5372510000000  0.6002080000000  0.5525230000000 1.0
END
