TITL C-247199-3331-495 160.46749255373 125000 -638.233210214279 0 0 107 (C1) n - 1
REM
REM in /home/nfs/bkarasulu/CARBON/AIRSS/Generating-Clusters/LCBOP/Only-C1/SD-CG/FIRE-HFTN
REM
REM
REM
REM
REM
REM ./C.cell (11c1c37f851c82e70ff6c80c92926a4b)
REM AIRSS Version 0.9.1 bugfix July 2018 build 013d7b7c2542+ Fri, 06 Jul 2018 19:26:36 +0100
REM compiler GCC version 9.2.1 20190827 (Red Hat 9.2.1-1)
REM options -cpp -mtune=generic -march=x86-64 -g -O0 -fpre-include=/usr/include/finclude/math-vector-fortran.h
REM seed -1343213448 1069179886 1894090477 -196800788 -1980250810 2017259797 65131593 1823495758 -87075545 2023680577 1305613890 2004262087 1866855518 -375904812 1295401229 1328464051 1638379902 -848636638 1647541082 862393974 146392308 1023469881 -1567894003 -1589579356 -1821397553 -816816195 -1178811265 1511870201 -933357229 -1069878815 2077717627 -235480558 1038206348
REM
CELL 1.54180   50.00000   50.00000   50.00000   90.00000   90.00000   90.00000
LATT -1
SFAC C  
C      1  0.4252980000000  0.5427900000000  0.4416550000000 1.0
C      1  0.4705030000000  0.4355490000000  0.4199080000000 1.0
C      1  0.4023360000000  0.4974730000000  0.5130980000000 1.0
C      1  0.5525990000000  0.5669410000000  0.4596220000000 1.0
C      1  0.4414160000000  0.5513810000000  0.5636710000000 1.0
C      1  0.4391290000000  0.4768990000000  0.5699510000000 1.0
C      1  0.5011940000000  0.4867590000000  0.4737600000000 1.0
C      1  0.4758320000000  0.5541360000000  0.5204250000000 1.0
C      1  0.4615200000000  0.5690340000000  0.4501260000000 1.0
C      1  0.4841240000000  0.5299800000000  0.5832050000000 1.0
C      1  0.4231820000000  0.5486000000000  0.4699650000000 1.0
C      1  0.4125790000000  0.4425730000000  0.4641670000000 1.0
C      1  0.4847230000000  0.4495270000000  0.5180080000000 1.0
C      1  0.4261610000000  0.4836880000000  0.5180850000000 1.0
C      1  0.5088890000000  0.5683730000000  0.5510170000000 1.0
C      1  0.4889010000000  0.5746420000000  0.4488680000000 1.0
C      1  0.5349060000000  0.5261400000000  0.5774520000000 1.0
C      1  0.4704710000000  0.4921850000000  0.5337150000000 1.0
C      1  0.5732230000000  0.5209960000000  0.5501000000000 1.0
C      1  0.4877050000000  0.5008220000000  0.3844420000000 1.0
C      1  0.5348820000000  0.5993070000000  0.5228490000000 1.0
C      1  0.5855200000000  0.4941060000000  0.5161030000000 1.0
C      1  0.6783890000000  0.4830500000000  0.4638430000000 1.0
C      1  0.4318900000000  0.4565080000000  0.5254270000000 1.0
C      1  0.5101490000000  0.5214810000000  0.5915710000000 1.0
C      1  0.5437980000000  0.5875640000000  0.4747030000000 1.0
C      1  0.5053860000000  0.4053150000000  0.5022240000000 1.0
C      1  0.5244070000000  0.4984490000000  0.4892370000000 1.0
C      1  0.4884000000000  0.5158790000000  0.4086290000000 1.0
C      1  0.5786400000000  0.4729520000000  0.5339770000000 1.0
C      1  0.5113160000000  0.5935780000000  0.5386750000000 1.0
C      1  0.4586780000000  0.4961910000000  0.4504450000000 1.0
C      1  0.5293390000000  0.4799700000000  0.5128760000000 1.0
C      1  0.4499470000000  0.4991130000000  0.5163120000000 1.0
C      1  0.4495330000000  0.5627720000000  0.4784160000000 1.0
C      1  0.5514260000000  0.4040410000000  0.4766050000000 1.0
C      1  0.5246710000000  0.4989100000000  0.5386380000000 1.0
C      1  0.5769390000000  0.4504480000000  0.4835520000000 1.0
C      1  0.4836530000000  0.4432430000000  0.4694260000000 1.0
C      1  0.4352260000000  0.4843890000000  0.4464420000000 1.0
C      1  0.4981200000000  0.5464620000000  0.5367730000000 1.0
C      1  0.4846630000000  0.4223620000000  0.5621190000000 1.0
C      1  0.4795660000000  0.4739740000000  0.3860970000000 1.0
C      1  0.4510230000000  0.5762220000000  0.5521640000000 1.0
C      1  0.5573500000000  0.4696190000000  0.4693390000000 1.0
C      1  0.4861840000000  0.4995810000000  0.4534990000000 1.0
C      1  0.5128000000000  0.5244490000000  0.5272100000000 1.0
C      1  0.5098790000000  0.4228530000000  0.5486210000000 1.0
C      1  0.5532540000000  0.5420040000000  0.4492040000000 1.0
C      1  0.5705680000000  0.4225170000000  0.4760800000000 1.0
C      1  0.4694280000000  0.5430410000000  0.4931020000000 1.0
C      1  0.4997990000000  0.6065730000000  0.4956750000000 1.0
C      1  0.5486130000000  0.5056580000000  0.5579510000000 1.0
C      1  0.4873760000000  0.4703740000000  0.5381730000000 1.0
C      1  0.5073780000000  0.4598760000000  0.4650550000000 1.0
C      1  0.4041620000000  0.5393000000000  0.4881780000000 1.0
C      1  0.5606460000000  0.5632960000000  0.5538360000000 1.0
C      1  0.4144980000000  0.5458310000000  0.5566800000000 1.0
C      1  0.5019570000000  0.5233980000000  0.3376040000000 1.0
C      1  0.4177780000000  0.4646810000000  0.4502190000000 1.0
C      1  0.5299880000000  0.4497790000000  0.5127320000000 1.0
C      1  0.4595240000000  0.4327750000000  0.5612220000000 1.0
C      1  0.4222410000000  0.4276950000000  0.4859200000000 1.0
C      1  0.4732120000000  0.4314090000000  0.4461540000000 1.0
C      1  0.6542600000000  0.4743410000000  0.4684880000000 1.0
C      1  0.3979630000000  0.5254520000000  0.5119070000000 1.0
C      1  0.5145940000000  0.5244680000000  0.4986610000000 1.0
C      1  0.4567060000000  0.5289420000000  0.5750780000000 1.0
C      1  0.4836850000000  0.3886590000000  0.5042410000000 1.0
C      1  0.4977210000000  0.5404240000000  0.4825480000000 1.0
C      1  0.5052090000000  0.5578140000000  0.4620080000000 1.0
C      1  0.5286870000000  0.6007630000000  0.4944490000000 1.0
C      1  0.4505650000000  0.5505000000000  0.4301160000000 1.0
C      1  0.5745160000000  0.4489290000000  0.5196570000000 1.0
C      1  0.4556040000000  0.5174250000000  0.4965510000000 1.0
C      1  0.4684690000000  0.4452420000000  0.4949630000000 1.0
C      1  0.5727250000000  0.5393460000000  0.5071750000000 1.0
C      1  0.5537250000000  0.5002080000000  0.4774580000000 1.0
C      1  0.4410700000000  0.4532890000000  0.5532950000000 1.0
C      1  0.5367020000000  0.4334400000000  0.5540150000000 1.0
C      1  0.4683110000000  0.5357140000000  0.4137430000000 1.0
C      1  0.5604730000000  0.4769530000000  0.5580640000000 1.0
C      1  0.4409480000000  0.4410220000000  0.5025000000000 1.0
C      1  0.4458490000000  0.5838870000000  0.5001300000000 1.0
C      1  0.6049610000000  0.4576680000000  0.4783840000000 1.0
C      1  0.4733250000000  0.4513130000000  0.3986070000000 1.0
C      1  0.4950810000000  0.5123120000000  0.3601650000000 1.0
C      1  0.5722140000000  0.5452570000000  0.5349110000000 1.0
C      1  0.5331790000000  0.4662510000000  0.4506140000000 1.0
C      1  0.5030000000000  0.5046960000000  0.4306290000000 1.0
C      1  0.5485830000000  0.5140750000000  0.4502470000000 1.0
C      1  0.5272140000000  0.3985120000000  0.4860490000000 1.0
C      1  0.4444040000000  0.5027850000000  0.5760910000000 1.0
C      1  0.5068470000000  0.4301120000000  0.5185800000000 1.0
C      1  0.5304590000000  0.4946980000000  0.4361460000000 1.0
C      1  0.3982920000000  0.5389710000000  0.5365710000000 1.0
C      1  0.5731500000000  0.5121450000000  0.4975290000000 1.0
C      1  0.4876800000000  0.6002200000000  0.5218970000000 1.0
C      1  0.4633730000000  0.5818940000000  0.5251030000000 1.0
C      1  0.5357600000000  0.4606600000000  0.5639560000000 1.0
C      1  0.6297030000000  0.4655730000000  0.4732400000000 1.0
C      1  0.5109670000000  0.4759720000000  0.5551580000000 1.0
C      1  0.5463620000000  0.5527230000000  0.5749260000000 1.0
C      1  0.4142910000000  0.4020720000000  0.4907730000000 1.0
C      1  0.5117880000000  0.5070870000000  0.6155970000000 1.0
C      1  0.5134200000000  0.4921260000000  0.6368720000000 1.0
C      1  0.5512830000000  0.4365840000000  0.5281040000000 1.0
END
