TITL C-247200-3482-682 0.0712700191270625 125000 -782.951911191637 0 0 128 (C1) n - 1
REM
REM in /home/nfs/bkarasulu/CARBON/AIRSS/Generating-Clusters/LCBOP/Only-C1/SD-CG/FIRE-HFTN
REM
REM
REM
REM
REM
REM ./C.cell (11c1c37f851c82e70ff6c80c92926a4b)
REM AIRSS Version 0.9.1 bugfix July 2018 build 013d7b7c2542+ Fri, 06 Jul 2018 19:26:36 +0100
REM compiler GCC version 9.2.1 20190827 (Red Hat 9.2.1-1)
REM options -cpp -mtune=generic -march=x86-64 -g -O0 -fpre-include=/usr/include/finclude/math-vector-fortran.h
REM seed -1296420163 -804792188 -1872574912 1907136330 918721185 -434973201 954063754 2027958888 1647716207 269390527 -377690116 -1004157426 664069311 -1030494763 1899170648 1360541258 2085047114 -24860204 -216053423 2045955220 931349735 1800739265 -161760343 -2119757890 -1183615402 962070864 -1318336489 1362300226 830366556 -1613458766 794477926 846138131 365326682
REM
CELL 1.54180   50.00000   50.00000   50.00000   90.00000   90.00000   90.00000
LATT -1
SFAC C  
C      1  0.4816440000000  0.4789300000000  0.5099690000000 1.0
C      1  0.5286150000000  0.5970650000000  0.5874480000000 1.0
C      1  0.4781650000000  0.4551350000000  0.5244260000000 1.0
C      1  0.4786120000000  0.6330970000000  0.4970580000000 1.0
C      1  0.5347790000000  0.5183170000000  0.4479100000000 1.0
C      1  0.5007650000000  0.4440310000000  0.4571210000000 1.0
C      1  0.5817560000000  0.4975400000000  0.5391330000000 1.0
C      1  0.5075740000000  0.5482200000000  0.5421100000000 1.0
C      1  0.5772090000000  0.4259320000000  0.4844470000000 1.0
C      1  0.4533210000000  0.4456220000000  0.4455660000000 1.0
C      1  0.3903400000000  0.5012640000000  0.5892610000000 1.0
C      1  0.4168090000000  0.5346630000000  0.5056660000000 1.0
C      1  0.5357350000000  0.6040180000000  0.5401330000000 1.0
C      1  0.4224970000000  0.5363900000000  0.4773460000000 1.0
C      1  0.4433340000000  0.5398960000000  0.4578730000000 1.0
C      1  0.5493680000000  0.5679170000000  0.5038190000000 1.0
C      1  0.3571490000000  0.5005850000000  0.4532790000000 1.0
C      1  0.4601670000000  0.3833390000000  0.5287660000000 1.0
C      1  0.5075060000000  0.4673340000000  0.4387520000000 1.0
C      1  0.5547940000000  0.3889620000000  0.4622250000000 1.0
C      1  0.4845920000000  0.3978120000000  0.5272400000000 1.0
C      1  0.6095610000000  0.5357460000000  0.5463150000000 1.0
C      1  0.4832840000000  0.5057530000000  0.5881940000000 1.0
C      1  0.5777080000000  0.5228420000000  0.5791400000000 1.0
C      1  0.5360660000000  0.4695410000000  0.4369470000000 1.0
C      1  0.4837940000000  0.6073000000000  0.5000710000000 1.0
C      1  0.4793020000000  0.4601680000000  0.5709920000000 1.0
C      1  0.5207870000000  0.3957390000000  0.4928910000000 1.0
C      1  0.5332710000000  0.5828680000000  0.5216540000000 1.0
C      1  0.4658530000000  0.5256530000000  0.5850030000000 1.0
C      1  0.5206070000000  0.4583010000000  0.5450650000000 1.0
C      1  0.5883840000000  0.4492920000000  0.4979390000000 1.0
C      1  0.4474270000000  0.3980470000000  0.4856750000000 1.0
C      1  0.4937890000000  0.4025040000000  0.4999900000000 1.0
C      1  0.4907460000000  0.6084200000000  0.5599780000000 1.0
C      1  0.5348410000000  0.5322420000000  0.3973320000000 1.0
C      1  0.4435200000000  0.5544780000000  0.5460520000000 1.0
C      1  0.4565030000000  0.5336890000000  0.4105260000000 1.0
C      1  0.4732240000000  0.4333770000000  0.4619010000000 1.0
C      1  0.5945180000000  0.4718910000000  0.5413660000000 1.0
C      1  0.4784590000000  0.5606430000000  0.4867890000000 1.0
C      1  0.5268460000000  0.3963290000000  0.4636220000000 1.0
C      1  0.5241950000000  0.5248380000000  0.5034270000000 1.0
C      1  0.5636800000000  0.5064190000000  0.5601770000000 1.0
C      1  0.4667230000000  0.5973280000000  0.5555900000000 1.0
C      1  0.5571070000000  0.4535400000000  0.4494850000000 1.0
C      1  0.5814040000000  0.4716980000000  0.4531490000000 1.0
C      1  0.5850770000000  0.5338780000000  0.5035930000000 1.0
C      1  0.5224520000000  0.5332690000000  0.5615500000000 1.0
C      1  0.6926250000000  0.4766490000000  0.6315180000000 1.0
C      1  0.5351380000000  0.5070700000000  0.5591150000000 1.0
C      1  0.4721860000000  0.4116240000000  0.4810880000000 1.0
C      1  0.4524270000000  0.5220540000000  0.4367310000000 1.0
C      1  0.5089310000000  0.5305180000000  0.4096170000000 1.0
C      1  0.3949630000000  0.5196310000000  0.5164790000000 1.0
C      1  0.4479540000000  0.4742980000000  0.3726830000000 1.0
C      1  0.4176970000000  0.4853890000000  0.5459180000000 1.0
C      1  0.5999890000000  0.5369020000000  0.5718950000000 1.0
C      1  0.5809820000000  0.5118380000000  0.4124620000000 1.0
C      1  0.5572140000000  0.4056830000000  0.5322750000000 1.0
C      1  0.4677130000000  0.6844720000000  0.4946820000000 1.0
C      1  0.6737540000000  0.4745190000000  0.6136570000000 1.0
C      1  0.5090620000000  0.5172010000000  0.4351530000000 1.0
C      1  0.5342800000000  0.4446610000000  0.4937440000000 1.0
C      1  0.5301520000000  0.4970100000000  0.4985010000000 1.0
C      1  0.5059530000000  0.4804610000000  0.4951080000000 1.0
C      1  0.5197740000000  0.4831240000000  0.5609790000000 1.0
C      1  0.3841010000000  0.5125460000000  0.5652130000000 1.0
C      1  0.5311290000000  0.5717380000000  0.5959520000000 1.0
C      1  0.5765560000000  0.4941530000000  0.4345930000000 1.0
C      1  0.4420580000000  0.3842480000000  0.5084850000000 1.0
C      1  0.4103840000000  0.4830370000000  0.5925230000000 1.0
C      1  0.4927080000000  0.4927700000000  0.4381480000000 1.0
C      1  0.4346270000000  0.5411580000000  0.3949540000000 1.0
C      1  0.5112440000000  0.4556520000000  0.4826770000000 1.0
C      1  0.4225360000000  0.4761650000000  0.3799810000000 1.0
C      1  0.4889430000000  0.5802190000000  0.5039610000000 1.0
C      1  0.3981650000000  0.5059630000000  0.5412830000000 1.0
C      1  0.4613150000000  0.5221360000000  0.5139100000000 1.0
C      1  0.4588500000000  0.4949190000000  0.5088730000000 1.0
C      1  0.5954470000000  0.5203890000000  0.5265830000000 1.0
C      1  0.4124900000000  0.5469060000000  0.3815850000000 1.0
C      1  0.4927990000000  0.4152560000000  0.5477780000000 1.0
C      1  0.3595810000000  0.5085780000000  0.4784630000000 1.0
C      1  0.4926350000000  0.4445830000000  0.5484020000000 1.0
C      1  0.5532730000000  0.4384270000000  0.4733720000000 1.0
C      1  0.3642890000000  0.4926120000000  0.4290080000000 1.0
C      1  0.4799610000000  0.5352280000000  0.4982200000000 1.0
C      1  0.5767240000000  0.5611490000000  0.5067790000000 1.0
C      1  0.4614550000000  0.5612260000000  0.4644270000000 1.0
C      1  0.4731340000000  0.6589940000000  0.4957370000000 1.0
C      1  0.5474660000000  0.3956030000000  0.5074520000000 1.0
C      1  0.4830530000000  0.5374060000000  0.4011680000000 1.0
C      1  0.3790190000000  0.4854530000000  0.4081530000000 1.0
C      1  0.5601490000000  0.4931900000000  0.4913830000000 1.0
C      1  0.4640500000000  0.4955210000000  0.4409790000000 1.0
C      1  0.5873870000000  0.4486860000000  0.5265600000000 1.0
C      1  0.4399830000000  0.4314150000000  0.4264130000000 1.0
C      1  0.5353290000000  0.4494660000000  0.5221520000000 1.0
C      1  0.5476630000000  0.4955910000000  0.4372030000000 1.0
C      1  0.6353380000000  0.4703760000000  0.5773740000000 1.0
C      1  0.3901400000000  0.5511350000000  0.3688490000000 1.0
C      1  0.5702340000000  0.5197080000000  0.4833720000000 1.0
C      1  0.4955080000000  0.4832910000000  0.5770290000000 1.0
C      1  0.4513090000000  0.4612040000000  0.5739830000000 1.0
C      1  0.4301160000000  0.4784360000000  0.4710560000000 1.0
C      1  0.5352160000000  0.5473010000000  0.4888670000000 1.0
C      1  0.5687040000000  0.3983980000000  0.4860830000000 1.0
C      1  0.5189430000000  0.6074950000000  0.5630850000000 1.0
C      1  0.4736630000000  0.4732560000000  0.3684800000000 1.0
C      1  0.4395330000000  0.5380580000000  0.5229720000000 1.0
C      1  0.4360120000000  0.4846070000000  0.4963560000000 1.0
C      1  0.5749060000000  0.4256030000000  0.5381530000000 1.0
C      1  0.3722720000000  0.5154410000000  0.5007340000000 1.0
C      1  0.6158240000000  0.4696290000000  0.5594840000000 1.0
C      1  0.4508020000000  0.5416900000000  0.5700350000000 1.0
C      1  0.5613290000000  0.5257160000000  0.3990030000000 1.0
C      1  0.4268920000000  0.4745890000000  0.5708230000000 1.0
C      1  0.5492660000000  0.5335860000000  0.4674440000000 1.0
C      1  0.5152910000000  0.4178920000000  0.4491840000000 1.0
C      1  0.5072970000000  0.5704750000000  0.5239910000000 1.0
C      1  0.4234000000000  0.5969830000000  0.5346010000000 1.0
C      1  0.4479520000000  0.4733820000000  0.4499180000000 1.0
C      1  0.4444800000000  0.5830960000000  0.5452870000000 1.0
C      1  0.6545670000000  0.4723560000000  0.5954970000000 1.0
C      1  0.5811450000000  0.4738590000000  0.4830380000000 1.0
C      1  0.5276340000000  0.5473400000000  0.5855990000000 1.0
C      1  0.3990670000000  0.4797480000000  0.3917720000000 1.0
END
