TITL C-247195-3186-555 30.8157126209584 125000 -314.529677492364 0 0 54 (C1) n - 1
REM
REM in /home/nfs/bkarasulu/CARBON/AIRSS/Generating-Clusters/LCBOP/Only-C1/SD-CG/FIRE-HFTN
REM
REM
REM
REM
REM
REM ./C.cell (11c1c37f851c82e70ff6c80c92926a4b)
REM AIRSS Version 0.9.1 bugfix July 2018 build 013d7b7c2542+ Fri, 06 Jul 2018 19:26:36 +0100
REM compiler GCC version 9.2.1 20190827 (Red Hat 9.2.1-1)
REM options -cpp -mtune=generic -march=x86-64 -g -O0 -fpre-include=/usr/include/finclude/math-vector-fortran.h
REM seed 707127864 970822223 1990317198 995716935 1544450265 351516866 1657460783 66570344 -430371169 1389236046 -311236467 -1221738435 -762975242 -854200262 -797879456 -718630868 -365595601 -387195301 1252277095 158586202 -1091620757 364979103 177084315 1426253957 2099066099 -1345907822 385278928 -1695690517 -451442532 -1687888783 -957424673 924734253 893021025
REM
CELL 1.54180   50.00000   50.00000   50.00000   90.00000   90.00000   90.00000
LATT -1
SFAC C  
C      1  0.5159680000000  0.3963660000000  0.5075610000000 1.0
C      1  0.5121490000000  0.4805500000000  0.5428970000000 1.0
C      1  0.4586740000000  0.4819350000000  0.5507160000000 1.0
C      1  0.5161220000000  0.5053270000000  0.5524810000000 1.0
C      1  0.5185500000000  0.4663280000000  0.5962960000000 1.0
C      1  0.5830760000000  0.4375300000000  0.4946330000000 1.0
C      1  0.5602960000000  0.4363200000000  0.5808930000000 1.0
C      1  0.5337340000000  0.3995210000000  0.5917710000000 1.0
C      1  0.5502100000000  0.4097910000000  0.5706520000000 1.0
C      1  0.4593030000000  0.4983050000000  0.5267200000000 1.0
C      1  0.4520810000000  0.4549160000000  0.5452140000000 1.0
C      1  0.6023880000000  0.4360410000000  0.5160720000000 1.0
C      1  0.4109110000000  0.7005720000000  0.3514420000000 1.0
C      1  0.5502600000000  0.4367990000000  0.5321390000000 1.0
C      1  0.5591070000000  0.4621060000000  0.5312620000000 1.0
C      1  0.4468320000000  0.5590090000000  0.4574990000000 1.0
C      1  0.4198930000000  0.7216790000000  0.3371160000000 1.0
C      1  0.5013680000000  0.4184830000000  0.5035830000000 1.0
C      1  0.5395580000000  0.4492400000000  0.4653990000000 1.0
C      1  0.4623250000000  0.5268590000000  0.5256900000000 1.0
C      1  0.4924660000000  0.4412860000000  0.5173560000000 1.0
C      1  0.5075400000000  0.4658240000000  0.5193600000000 1.0
C      1  0.6529140000000  0.4226730000000  0.5019000000000 1.0
C      1  0.5350330000000  0.3916490000000  0.5259480000000 1.0
C      1  0.3828630000000  0.6688360000000  0.3714720000000 1.0
C      1  0.4095290000000  0.6610420000000  0.3798730000000 1.0
C      1  0.5467410000000  0.4106910000000  0.5427440000000 1.0
C      1  0.4811260000000  0.5384820000000  0.5430600000000 1.0
C      1  0.6286010000000  0.4291060000000  0.5087360000000 1.0
C      1  0.3836640000000  0.6913420000000  0.3552870000000 1.0
C      1  0.5270740000000  0.4200630000000  0.6090130000000 1.0
C      1  0.4944390000000  0.4770580000000  0.5902670000000 1.0
C      1  0.5043160000000  0.5293790000000  0.5530990000000 1.0
C      1  0.5376090000000  0.4455400000000  0.5989390000000 1.0
C      1  0.5612440000000  0.4861470000000  0.5194270000000 1.0
C      1  0.4394310000000  0.5792500000000  0.4421000000000 1.0
C      1  0.4544710000000  0.5397420000000  0.5018810000000 1.0
C      1  0.4546020000000  0.5377720000000  0.4736930000000 1.0
C      1  0.4320270000000  0.5995000000000  0.4266940000000 1.0
C      1  0.4908630000000  0.4717310000000  0.4621000000000 1.0
C      1  0.4734830000000  0.4850540000000  0.5749880000000 1.0
C      1  0.5205250000000  0.4777960000000  0.4968530000000 1.0
C      1  0.4246230000000  0.6197500000000  0.4112880000000 1.0
C      1  0.5978340000000  0.4408570000000  0.5441990000000 1.0
C      1  0.4262910000000  0.6812300000000  0.3670190000000 1.0
C      1  0.4172240000000  0.6399910000000  0.3958880000000 1.0
C      1  0.4680030000000  0.4386390000000  0.5310510000000 1.0
C      1  0.4618510000000  0.4853780000000  0.5010700000000 1.0
C      1  0.5170020000000  0.4656550000000  0.4716100000000 1.0
C      1  0.4705210000000  0.4882150000000  0.4739570000000 1.0
C      1  0.4630580000000  0.5130680000000  0.4627680000000 1.0
C      1  0.5426020000000  0.4946880000000  0.5018190000000 1.0
C      1  0.5630390000000  0.4409820000000  0.4765940000000 1.0
C      1  0.5845850000000  0.4439060000000  0.5679130000000 1.0
END
