TITL C-247196-3112-138 3.02871278496716e-07 125000 -953.195319061708 0 0 154 (C1) n - 1
REM
REM in /home/nfs/bkarasulu/CARBON/AIRSS/Generating-Clusters/LCBOP/Only-C1/SD-CG/FIRE-HFTN
REM
REM
REM
REM
REM
REM ./C.cell (11c1c37f851c82e70ff6c80c92926a4b)
REM AIRSS Version 0.9.1 bugfix July 2018 build 013d7b7c2542+ Fri, 06 Jul 2018 19:26:36 +0100
REM compiler GCC version 9.2.1 20190827 (Red Hat 9.2.1-1)
REM options -cpp -mtune=generic -march=x86-64 -g -O0 -fpre-include=/usr/include/finclude/math-vector-fortran.h
REM seed 162971273 555237645 -553413482 -579260285 -1999513884 1782212103 -336268611 -1696664381 1644162989 1533924776 -75968514 1810252330 543245480 37981463 -157988325 -114877062 1550397281 -778777200 332865491 -2046675071 1445051791 -2000173504 -471900497 -637838937 1366280145 17811641 2134416082 -1990064189 -110563837 -656160580 -1762807730 605935353 1330454150
REM
CELL 1.54180   50.00000   50.00000   50.00000   90.00000   90.00000   90.00000
LATT -1
SFAC C  
C      1  0.4406680000000  0.5147450000000  0.5059380000000 1.0
C      1  0.5869970000000  0.4208700000000  0.4795720000000 1.0
C      1  0.4600270000000  0.6042210000000  0.4970630000000 1.0
C      1  0.4758070000000  0.3839440000000  0.5038060000000 1.0
C      1  0.4428250000000  0.4172600000000  0.4489780000000 1.0
C      1  0.4518040000000  0.5326730000000  0.3764400000000 1.0
C      1  0.4747570000000  0.5235560000000  0.4429930000000 1.0
C      1  0.5211810000000  0.4356900000000  0.5168780000000 1.0
C      1  0.4670020000000  0.4185850000000  0.6061980000000 1.0
C      1  0.5708040000000  0.4864910000000  0.6107720000000 1.0
C      1  0.4386560000000  0.4614740000000  0.4309160000000 1.0
C      1  0.4713720000000  0.5437070000000  0.3585190000000 1.0
C      1  0.4852230000000  0.4369020000000  0.6134190000000 1.0
C      1  0.4669500000000  0.4038730000000  0.4382530000000 1.0
C      1  0.6333080000000  0.4955470000000  0.5355160000000 1.0
C      1  0.4124090000000  0.5144780000000  0.4630740000000 1.0
C      1  0.6037500000000  0.3902760000000  0.5157490000000 1.0
C      1  0.5806090000000  0.4789400000000  0.4400240000000 1.0
C      1  0.3917590000000  0.4713640000000  0.5189770000000 1.0
C      1  0.5816330000000  0.5229310000000  0.5452690000000 1.0
C      1  0.5149130000000  0.5673690000000  0.6028150000000 1.0
C      1  0.4534860000000  0.5234070000000  0.5506760000000 1.0
C      1  0.5139050000000  0.5989730000000  0.5015000000000 1.0
C      1  0.5558280000000  0.4917610000000  0.4350550000000 1.0
C      1  0.5358680000000  0.5503670000000  0.6034250000000 1.0
C      1  0.5760830000000  0.4758120000000  0.5841120000000 1.0
C      1  0.4501690000000  0.4665110000000  0.5818420000000 1.0
C      1  0.5563520000000  0.5315840000000  0.5366200000000 1.0
C      1  0.5306240000000  0.4896940000000  0.5298990000000 1.0
C      1  0.5818780000000  0.5614230000000  0.4939430000000 1.0
C      1  0.5817400000000  0.4826450000000  0.5112980000000 1.0
C      1  0.5431960000000  0.4409930000000  0.4757710000000 1.0
C      1  0.5018300000000  0.4921380000000  0.5309350000000 1.0
C      1  0.5392760000000  0.4427580000000  0.5381120000000 1.0
C      1  0.5076460000000  0.5404080000000  0.4692530000000 1.0
C      1  0.4920710000000  0.5526110000000  0.5401200000000 1.0
C      1  0.5389220000000  0.5917930000000  0.4889890000000 1.0
C      1  0.5991610000000  0.4003770000000  0.4914460000000 1.0
C      1  0.4899750000000  0.4059730000000  0.4560050000000 1.0
C      1  0.5444460000000  0.5121770000000  0.5198760000000 1.0
C      1  0.4512810000000  0.4170710000000  0.5829780000000 1.0
C      1  0.4487380000000  0.4412980000000  0.5684500000000 1.0
C      1  0.4310670000000  0.5456630000000  0.4168160000000 1.0
C      1  0.6126610000000  0.5586000000000  0.4589160000000 1.0
C      1  0.5128720000000  0.5196910000000  0.3940500000000 1.0
C      1  0.3943000000000  0.4579540000000  0.5457020000000 1.0
C      1  0.4555920000000  0.5411060000000  0.4565430000000 1.0
C      1  0.5507820000000  0.5928320000000  0.4344040000000 1.0
C      1  0.4226500000000  0.5020790000000  0.6013730000000 1.0
C      1  0.5981140000000  0.3974790000000  0.5408820000000 1.0
C      1  0.3911880000000  0.5020840000000  0.5545910000000 1.0
C      1  0.4794970000000  0.5912520000000  0.4130630000000 1.0
C      1  0.4790600000000  0.4731780000000  0.5812030000000 1.0
C      1  0.5255770000000  0.5978980000000  0.4274610000000 1.0
C      1  0.6171860000000  0.5205720000000  0.4898780000000 1.0
C      1  0.5951220000000  0.4821280000000  0.4644920000000 1.0
C      1  0.4576100000000  0.5376910000000  0.5060110000000 1.0
C      1  0.4733870000000  0.4087910000000  0.4108190000000 1.0
C      1  0.4702740000000  0.4447540000000  0.4727770000000 1.0
C      1  0.4165640000000  0.5161940000000  0.4906660000000 1.0
C      1  0.4441200000000  0.5006750000000  0.5322780000000 1.0
C      1  0.4469230000000  0.5555420000000  0.3954630000000 1.0
C      1  0.4027840000000  0.4431300000000  0.4737420000000 1.0
C      1  0.5130370000000  0.5189910000000  0.4874240000000 1.0
C      1  0.4146390000000  0.4748320000000  0.4378150000000 1.0
C      1  0.5474610000000  0.5251920000000  0.5983240000000 1.0
C      1  0.5159690000000  0.5670180000000  0.5401280000000 1.0
C      1  0.4926090000000  0.5207610000000  0.5950930000000 1.0
C      1  0.5943360000000  0.5278120000000  0.5949810000000 1.0
C      1  0.4214680000000  0.5720520000000  0.5192020000000 1.0
C      1  0.5015930000000  0.5358560000000  0.4416760000000 1.0
C      1  0.5083790000000  0.5070700000000  0.5767030000000 1.0
C      1  0.4427080000000  0.6171480000000  0.4782110000000 1.0
C      1  0.4560490000000  0.4838320000000  0.3884540000000 1.0
C      1  0.5184860000000  0.4350020000000  0.4882660000000 1.0
C      1  0.4438890000000  0.5874290000000  0.5146260000000 1.0
C      1  0.4428650000000  0.5089530000000  0.3902550000000 1.0
C      1  0.4955710000000  0.5015060000000  0.5032600000000 1.0
C      1  0.4831070000000  0.4779860000000  0.3807560000000 1.0
C      1  0.3881790000000  0.4318730000000  0.5505240000000 1.0
C      1  0.3954200000000  0.4598150000000  0.4518290000000 1.0
C      1  0.5300940000000  0.4801500000000  0.4323450000000 1.0
C      1  0.5829530000000  0.4689930000000  0.4867590000000 1.0
C      1  0.5568100000000  0.5239050000000  0.4717250000000 1.0
C      1  0.4354410000000  0.4623890000000  0.5030650000000 1.0
C      1  0.4357650000000  0.5557340000000  0.4424100000000 1.0
C      1  0.6164060000000  0.5008530000000  0.4683060000000 1.0
C      1  0.4029250000000  0.5516720000000  0.5188310000000 1.0
C      1  0.4602100000000  0.4272860000000  0.5202640000000 1.0
C      1  0.4956750000000  0.4612960000000  0.6032200000000 1.0
C      1  0.4908110000000  0.6067990000000  0.4591780000000 1.0
C      1  0.4513000000000  0.5340370000000  0.5775090000000 1.0
C      1  0.4884800000000  0.6045160000000  0.4878210000000 1.0
C      1  0.4556170000000  0.4429850000000  0.4965700000000 1.0
C      1  0.4681550000000  0.5410400000000  0.5323220000000 1.0
C      1  0.5033100000000  0.4815790000000  0.4357000000000 1.0
C      1  0.5708270000000  0.4437470000000  0.4808020000000 1.0
C      1  0.4838080000000  0.4261290000000  0.3929490000000 1.0
C      1  0.4948910000000  0.4292420000000  0.4723540000000 1.0
C      1  0.4244070000000  0.4795070000000  0.5846090000000 1.0
C      1  0.4907580000000  0.5593630000000  0.4808240000000 1.0
C      1  0.4157230000000  0.5030460000000  0.4372410000000 1.0
C      1  0.4026120000000  0.4775080000000  0.5656910000000 1.0
C      1  0.4802850000000  0.4957890000000  0.4388380000000 1.0
C      1  0.4807210000000  0.5681770000000  0.3676970000000 1.0
C      1  0.6051950000000  0.5465710000000  0.4839660000000 1.0
C      1  0.5512910000000  0.4820290000000  0.5702230000000 1.0
C      1  0.5949950000000  0.5325810000000  0.5682690000000 1.0
C      1  0.3881590000000  0.5013520000000  0.5254930000000 1.0
C      1  0.5462530000000  0.4756110000000  0.6217730000000 1.0
C      1  0.6315100000000  0.5121180000000  0.5134870000000 1.0
C      1  0.4680210000000  0.5756870000000  0.3928250000000 1.0
C      1  0.4623220000000  0.3991730000000  0.5219870000000 1.0
C      1  0.6582200000000  0.5000080000000  0.4340120000000 1.0
C      1  0.5702780000000  0.5839150000000  0.4523220000000 1.0
C      1  0.4448150000000  0.4633340000000  0.4039110000000 1.0
C      1  0.5994810000000  0.4671480000000  0.5695920000000 1.0
C      1  0.5890210000000  0.4971370000000  0.5344850000000 1.0
C      1  0.4765310000000  0.4883790000000  0.4888230000000 1.0
C      1  0.6104240000000  0.4846730000000  0.5493960000000 1.0
C      1  0.5407830000000  0.5539940000000  0.5431370000000 1.0
C      1  0.5139120000000  0.5927390000000  0.5289850000000 1.0
C      1  0.4528200000000  0.4455040000000  0.4494290000000 1.0
C      1  0.4882630000000  0.5665670000000  0.5972180000000 1.0
C      1  0.6011120000000  0.4392570000000  0.5658980000000 1.0
C      1  0.4275650000000  0.6050850000000  0.4595580000000 1.0
C      1  0.4456170000000  0.3932140000000  0.5696090000000 1.0
C      1  0.5631950000000  0.5794190000000  0.4802130000000 1.0
C      1  0.4895420000000  0.4501970000000  0.3821560000000 1.0
C      1  0.4527640000000  0.4458950000000  0.5412760000000 1.0
C      1  0.4751350000000  0.5423260000000  0.5909720000000 1.0
C      1  0.3970930000000  0.5243130000000  0.5103290000000 1.0
C      1  0.5725620000000  0.5157160000000  0.6085860000000 1.0
C      1  0.4439050000000  0.4720010000000  0.5296570000000 1.0
C      1  0.4077390000000  0.4586710000000  0.4980430000000 1.0
C      1  0.5417330000000  0.4700420000000  0.5464370000000 1.0
C      1  0.5022310000000  0.4986730000000  0.3811300000000 1.0
C      1  0.5137340000000  0.5346290000000  0.4164330000000 1.0
C      1  0.4979760000000  0.5994760000000  0.4328190000000 1.0
C      1  0.5565520000000  0.5179870000000  0.4455800000000 1.0
C      1  0.4250820000000  0.5804230000000  0.4497080000000 1.0
C      1  0.5403840000000  0.5177800000000  0.4932090000000 1.0
C      1  0.4642560000000  0.5503030000000  0.4821970000000 1.0
C      1  0.4264520000000  0.5168710000000  0.4142230000000 1.0
C      1  0.4932190000000  0.4891330000000  0.5597710000000 1.0
C      1  0.4181380000000  0.4192510000000  0.4648450000000 1.0
C      1  0.4504510000000  0.3865580000000  0.5441510000000 1.0
C      1  0.4300160000000  0.5269260000000  0.5943260000000 1.0
C      1  0.5361120000000  0.5055570000000  0.5801910000000 1.0
C      1  0.6381790000000  0.5000570000000  0.4506680000000 1.0
C      1  0.5586250000000  0.4247790000000  0.5478360000000 1.0
C      1  0.5962100000000  0.5751380000000  0.4449900000000 1.0
C      1  0.5204160000000  0.4698330000000  0.6151100000000 1.0
C      1  0.5857020000000  0.4191410000000  0.5535840000000 1.0
END
