TITL C-247200-3482-374 1.65549429478094e-06 125000 -215.994577111991 0 0 37 (C1) n - 1
REM
REM in /home/nfs/bkarasulu/CARBON/AIRSS/Generating-Clusters/LCBOP/Only-C1/SD-CG/FIRE-HFTN
REM
REM
REM
REM
REM
REM ./C.cell (11c1c37f851c82e70ff6c80c92926a4b)
REM AIRSS Version 0.9.1 bugfix July 2018 build 013d7b7c2542+ Fri, 06 Jul 2018 19:26:36 +0100
REM compiler GCC version 9.2.1 20190827 (Red Hat 9.2.1-1)
REM options -cpp -mtune=generic -march=x86-64 -g -O0 -fpre-include=/usr/include/finclude/math-vector-fortran.h
REM seed -929206688 -2038661591 -1427620748 311429640 2022039181 1748155642 -106192956 698166390 -516944770 -17000720 -29382710 718367992 -1874797374 -2038779834 -1499994109 334265196 692028696 1431851261 -1224007731 1513197306 542506092 -738453073 -1491867711 -553076965 -1146359948 -1431162800 2020436940 -1070014914 1310769359 1511385482 -1543852023 -919424215 1148316469
REM
CELL 1.54180   50.00000   50.00000   50.00000   90.00000   90.00000   90.00000
LATT -1
SFAC C  
C      1  0.5300880000000  0.4919230000000  0.4997600000000 1.0
C      1  0.4976360000000  0.4600810000000  0.4853100000000 1.0
C      1  0.4931280000000  0.5365380000000  0.5639210000000 1.0
C      1  0.5759230000000  0.3806040000000  0.5344920000000 1.0
C      1  0.4746820000000  0.5031500000000  0.4528670000000 1.0
C      1  0.5520030000000  0.4234550000000  0.5156650000000 1.0
C      1  0.5211940000000  0.4960160000000  0.4332700000000 1.0
C      1  0.5640550000000  0.4018530000000  0.5251490000000 1.0
C      1  0.4384660000000  0.5527150000000  0.5204150000000 1.0
C      1  0.5123280000000  0.4929910000000  0.5539600000000 1.0
C      1  0.4558190000000  0.4826520000000  0.5348750000000 1.0
C      1  0.5050380000000  0.5579600000000  0.4699790000000 1.0
C      1  0.5017740000000  0.4864120000000  0.4966780000000 1.0
C      1  0.4608660000000  0.4309430000000  0.4716930000000 1.0
C      1  0.4705240000000  0.5087600000000  0.5284470000000 1.0
C      1  0.5384220000000  0.4850960000000  0.4528920000000 1.0
C      1  0.4635760000000  0.4772950000000  0.4566950000000 1.0
C      1  0.4924780000000  0.5125860000000  0.5493370000000 1.0
C      1  0.5234730000000  0.4469820000000  0.4815800000000 1.0
C      1  0.4202220000000  0.5911510000000  0.4970130000000 1.0
C      1  0.5308270000000  0.5509850000000  0.4705450000000 1.0
C      1  0.4788790000000  0.5484620000000  0.4737800000000 1.0
C      1  0.4380280000000  0.5706280000000  0.4988190000000 1.0
C      1  0.4822160000000  0.5064630000000  0.5004640000000 1.0
C      1  0.4735380000000  0.4550500000000  0.4712030000000 1.0
C      1  0.5394400000000  0.4461470000000  0.5059510000000 1.0
C      1  0.4957060000000  0.5048360000000  0.4339640000000 1.0
C      1  0.5428060000000  0.5018580000000  0.4762250000000 1.0
C      1  0.4575050000000  0.5656230000000  0.4792160000000 1.0
C      1  0.5325720000000  0.4777990000000  0.5448020000000 1.0
C      1  0.4754480000000  0.5202720000000  0.4761240000000 1.0
C      1  0.4933480000000  0.5598500000000  0.5765060000000 1.0
C      1  0.4508290000000  0.5311250000000  0.5298070000000 1.0
C      1  0.5465550000000  0.5294960000000  0.4733420000000 1.0
C      1  0.5402950000000  0.4722380000000  0.5182990000000 1.0
C      1  0.4931040000000  0.5829900000000  0.5885090000000 1.0
C      1  0.5372100000000  0.4570150000000  0.4584480000000 1.0
END
