TITL C-247199-3331-302 0.000449148610985282 125000 -683.108602451861 0 0 112 (C1) n - 1
REM
REM in /home/nfs/bkarasulu/CARBON/AIRSS/Generating-Clusters/LCBOP/Only-C1/SD-CG/FIRE-HFTN
REM
REM
REM
REM
REM
REM ./C.cell (11c1c37f851c82e70ff6c80c92926a4b)
REM AIRSS Version 0.9.1 bugfix July 2018 build 013d7b7c2542+ Fri, 06 Jul 2018 19:26:36 +0100
REM compiler GCC version 9.2.1 20190827 (Red Hat 9.2.1-1)
REM options -cpp -mtune=generic -march=x86-64 -g -O0 -fpre-include=/usr/include/finclude/math-vector-fortran.h
REM seed -1201237719 565151435 859831031 2143555534 806862041 1556635504 -1737612089 -867839862 -1557500329 1180570062 -569776259 1370558243 -1035024081 -597711038 712715261 1427878078 992171648 2051398035 1500472043 965408087 2033714600 455715608 -1479842453 -1742574514 -1766584835 -482499969 -136970489 -92596107 816269643 -2118711752 -1463093742 780619621 885869330
REM
CELL 1.54180   50.00000   50.00000   50.00000   90.00000   90.00000   90.00000
LATT -1
SFAC C  
C      1  0.5785430000000  0.4745560000000  0.4999760000000 1.0
C      1  0.6617320000000  0.6360140000000  0.4575770000000 1.0
C      1  0.5322360000000  0.3965660000000  0.4769860000000 1.0
C      1  0.5688080000000  0.4931470000000  0.4163510000000 1.0
C      1  0.5483370000000  0.4190620000000  0.4699320000000 1.0
C      1  0.5416860000000  0.4931450000000  0.5217340000000 1.0
C      1  0.5453710000000  0.4769120000000  0.4212850000000 1.0
C      1  0.4815790000000  0.4910860000000  0.4876900000000 1.0
C      1  0.4528380000000  0.5913780000000  0.4748180000000 1.0
C      1  0.4554480000000  0.4181640000000  0.5226850000000 1.0
C      1  0.6596740000000  0.6304370000000  0.4847960000000 1.0
C      1  0.4272240000000  0.4860830000000  0.4822730000000 1.0
C      1  0.4445970000000  0.5068120000000  0.5613300000000 1.0
C      1  0.4039990000000  0.4673360000000  0.5271790000000 1.0
C      1  0.4192700000000  0.4502710000000  0.5445510000000 1.0
C      1  0.4766870000000  0.5755770000000  0.5620160000000 1.0
C      1  0.5729740000000  0.4179730000000  0.5113640000000 1.0
C      1  0.4474030000000  0.5342310000000  0.5704780000000 1.0
C      1  0.6302390000000  0.6013050000000  0.4623440000000 1.0
C      1  0.5600760000000  0.4141550000000  0.5343510000000 1.0
C      1  0.4750130000000  0.5454040000000  0.5646050000000 1.0
C      1  0.4341050000000  0.4916880000000  0.6066000000000 1.0
C      1  0.5543000000000  0.4558710000000  0.4389740000000 1.0
C      1  0.5895270000000  0.4860730000000  0.4360480000000 1.0
C      1  0.5424790000000  0.3713260000000  0.4786790000000 1.0
C      1  0.5646860000000  0.5469020000000  0.4439110000000 1.0
C      1  0.4663110000000  0.5818600000000  0.4538330000000 1.0
C      1  0.4362790000000  0.4865100000000  0.5792390000000 1.0
C      1  0.4312200000000  0.4985650000000  0.6315720000000 1.0
C      1  0.3994620000000  0.5154220000000  0.4534690000000 1.0
C      1  0.3849780000000  0.4408670000000  0.4165620000000 1.0
C      1  0.5293480000000  0.3973050000000  0.5672320000000 1.0
C      1  0.4263580000000  0.4333020000000  0.4480460000000 1.0
C      1  0.4321960000000  0.4266130000000  0.5359630000000 1.0
C      1  0.5569890000000  0.4940770000000  0.4977220000000 1.0
C      1  0.4154560000000  0.5113050000000  0.4757120000000 1.0
C      1  0.5794840000000  0.4635620000000  0.4519390000000 1.0
C      1  0.5179140000000  0.4853870000000  0.4237860000000 1.0
C      1  0.4127670000000  0.4702660000000  0.5005410000000 1.0
C      1  0.3987750000000  0.5321530000000  0.5617950000000 1.0
C      1  0.4940680000000  0.4263400000000  0.4691170000000 1.0
C      1  0.4788550000000  0.4576560000000  0.5949550000000 1.0
C      1  0.6101940000000  0.5040360000000  0.4420420000000 1.0
C      1  0.5322130000000  0.5781700000000  0.4555310000000 1.0
C      1  0.5241610000000  0.5896660000000  0.4799380000000 1.0
C      1  0.3845410000000  0.5157670000000  0.4315870000000 1.0
C      1  0.4465560000000  0.4345600000000  0.4651480000000 1.0
C      1  0.5384200000000  0.4684360000000  0.5621130000000 1.0
C      1  0.5809260000000  0.4551690000000  0.4793120000000 1.0
C      1  0.4868350000000  0.4562090000000  0.5234880000000 1.0
C      1  0.5160500000000  0.5921050000000  0.5323130000000 1.0
C      1  0.5061730000000  0.5219930000000  0.5333210000000 1.0
C      1  0.5559770000000  0.4793050000000  0.5428910000000 1.0
C      1  0.5169890000000  0.4840770000000  0.5763380000000 1.0
C      1  0.5354770000000  0.5175070000000  0.6054660000000 1.0
C      1  0.5211830000000  0.5149440000000  0.4727410000000 1.0
C      1  0.4675020000000  0.3930930000000  0.5171490000000 1.0
C      1  0.5228560000000  0.5393050000000  0.4236650000000 1.0
C      1  0.4958020000000  0.5300440000000  0.5815220000000 1.0
C      1  0.4209140000000  0.5448750000000  0.5714410000000 1.0
C      1  0.4274280000000  0.4621640000000  0.5686070000000 1.0
C      1  0.4447980000000  0.5959860000000  0.5265860000000 1.0
C      1  0.6444460000000  0.6190010000000  0.4436260000000 1.0
C      1  0.4418030000000  0.5279480000000  0.5144980000000 1.0
C      1  0.4945930000000  0.4805150000000  0.5109740000000 1.0
C      1  0.4407860000000  0.5066960000000  0.5333990000000 1.0
C      1  0.5018830000000  0.5861970000000  0.5542790000000 1.0
C      1  0.4937530000000  0.5153880000000  0.4783470000000 1.0
C      1  0.4553560000000  0.4844520000000  0.4799070000000 1.0
C      1  0.5260220000000  0.4431380000000  0.5529360000000 1.0
C      1  0.6113740000000  0.5815140000000  0.4568670000000 1.0
C      1  0.5515310000000  0.5385990000000  0.4203000000000 1.0
C      1  0.4864570000000  0.5707110000000  0.4402720000000 1.0
C      1  0.4698850000000  0.4356610000000  0.4804610000000 1.0
C      1  0.3698870000000  0.5142020000000  0.4095560000000 1.0
C      1  0.4672570000000  0.5402210000000  0.5126350000000 1.0
C      1  0.5701750000000  0.4289110000000  0.4856960000000 1.0
C      1  0.5383910000000  0.4179390000000  0.5517230000000 1.0
C      1  0.6196300000000  0.5548750000000  0.4520050000000 1.0
C      1  0.5667220000000  0.5281690000000  0.4645440000000 1.0
C      1  0.3835640000000  0.4847970000000  0.5378200000000 1.0
C      1  0.4880290000000  0.3884480000000  0.4998850000000 1.0
C      1  0.4621600000000  0.4301390000000  0.6365280000000 1.0
C      1  0.4977640000000  0.4504550000000  0.5492560000000 1.0
C      1  0.5646790000000  0.5186580000000  0.4055900000000 1.0
C      1  0.5015590000000  0.4652280000000  0.4359700000000 1.0
C      1  0.6197170000000  0.5285670000000  0.4470780000000 1.0
C      1  0.5134670000000  0.5628680000000  0.4385820000000 1.0
C      1  0.6410670000000  0.6098420000000  0.4883300000000 1.0
C      1  0.5374020000000  0.4370630000000  0.4509200000000 1.0
C      1  0.4707420000000  0.4438060000000  0.6160560000000 1.0
C      1  0.4055330000000  0.4362100000000  0.4319060000000 1.0
C      1  0.4543810000000  0.5888770000000  0.5505790000000 1.0
C      1  0.5142890000000  0.4976670000000  0.5227730000000 1.0
C      1  0.5045810000000  0.4021240000000  0.4811760000000 1.0
C      1  0.5837670000000  0.5879290000000  0.4561430000000 1.0
C      1  0.4932440000000  0.4669830000000  0.5730730000000 1.0
C      1  0.4807570000000  0.5386490000000  0.4877950000000 1.0
C      1  0.5111460000000  0.5131640000000  0.4211320000000 1.0
C      1  0.5486880000000  0.5116230000000  0.4777530000000 1.0
C      1  0.3887850000000  0.5102440000000  0.5495580000000 1.0
C      1  0.4695910000000  0.4389610000000  0.5089940000000 1.0
C      1  0.5092360000000  0.4420880000000  0.4509050000000 1.0
C      1  0.5214640000000  0.5934430000000  0.5062070000000 1.0
C      1  0.5800120000000  0.4702560000000  0.5290750000000 1.0
C      1  0.5158610000000  0.5104220000000  0.5875350000000 1.0
C      1  0.5601610000000  0.5737110000000  0.4513880000000 1.0
C      1  0.4453400000000  0.5965720000000  0.4998960000000 1.0
C      1  0.3574710000000  0.4762350000000  0.5365190000000 1.0
C      1  0.4834300000000  0.5376600000000  0.5359010000000 1.0
C      1  0.4223010000000  0.5310720000000  0.4945590000000 1.0
C      1  0.3555710000000  0.5120280000000  0.3878780000000 1.0
END
