TITL C-247199-3331-192 -1.45362694083716e-07 125000 -381.446943382629 0 0 63 (C1) n - 1
REM
REM in /home/nfs/bkarasulu/CARBON/AIRSS/Generating-Clusters/LCBOP/Only-C1/SD-CG/FIRE-HFTN
REM
REM
REM
REM
REM
REM ./C.cell (11c1c37f851c82e70ff6c80c92926a4b)
REM AIRSS Version 0.9.1 bugfix July 2018 build 013d7b7c2542+ Fri, 06 Jul 2018 19:26:36 +0100
REM compiler GCC version 9.2.1 20190827 (Red Hat 9.2.1-1)
REM options -cpp -mtune=generic -march=x86-64 -g -O0 -fpre-include=/usr/include/finclude/math-vector-fortran.h
REM seed -1833622614 -468361070 -1443259456 -793070531 1899953086 -292459244 46592493 -1745370242 -1476546427 1911616722 -1848003148 -1110447807 443198198 1767107329 43213099 1321265977 -789911747 -1721673664 973026166 -1357017503 -1129193824 1392886086 -344778976 -480765410 579200320 -1509289257 2103033912 -1835033473 234030762 396492659 1257453764 -1932714567 -103253446
REM
CELL 1.54180   50.00000   50.00000   50.00000   90.00000   90.00000   90.00000
LATT -1
SFAC C  
C      1  0.4592530000000  0.4975710000000  0.4368260000000 1.0
C      1  0.4336950000000  0.4707530000000  0.5031150000000 1.0
C      1  0.4498850000000  0.5098350000000  0.5186190000000 1.0
C      1  0.5692300000000  0.4726860000000  0.5671370000000 1.0
C      1  0.5930150000000  0.5036110000000  0.4991340000000 1.0
C      1  0.5940860000000  0.4931910000000  0.5236210000000 1.0
C      1  0.4828280000000  0.5450720000000  0.4115010000000 1.0
C      1  0.4868850000000  0.4959300000000  0.4271380000000 1.0
C      1  0.4445080000000  0.5556760000000  0.5101930000000 1.0
C      1  0.4800770000000  0.4269990000000  0.5360790000000 1.0
C      1  0.5019120000000  0.4746510000000  0.4406090000000 1.0
C      1  0.5512780000000  0.4221690000000  0.4950760000000 1.0
C      1  0.5749400000000  0.4789340000000  0.5937470000000 1.0
C      1  0.5302400000000  0.5504350000000  0.5197200000000 1.0
C      1  0.4934060000000  0.5239600000000  0.5333750000000 1.0
C      1  0.5576390000000  0.4200460000000  0.5223180000000 1.0
C      1  0.5523490000000  0.4328260000000  0.5453220000000 1.0
C      1  0.5284490000000  0.4678350000000  0.4515040000000 1.0
C      1  0.4478760000000  0.5172690000000  0.4539140000000 1.0
C      1  0.4784650000000  0.4712620000000  0.4838900000000 1.0
C      1  0.4743000000000  0.5528820000000  0.4756040000000 1.0
C      1  0.4382010000000  0.4858050000000  0.5284410000000 1.0
C      1  0.4561020000000  0.5709020000000  0.4883690000000 1.0
C      1  0.4600160000000  0.4576330000000  0.5010050000000 1.0
C      1  0.4483830000000  0.5904710000000  0.4680720000000 1.0
C      1  0.5344170000000  0.5019580000000  0.5210510000000 1.0
C      1  0.5310130000000  0.5148920000000  0.4631280000000 1.0
C      1  0.4936180000000  0.5197250000000  0.4125670000000 1.0
C      1  0.5853180000000  0.4828260000000  0.5464980000000 1.0
C      1  0.4562370000000  0.5839210000000  0.4403480000000 1.0
C      1  0.4888570000000  0.4981040000000  0.4902680000000 1.0
C      1  0.5299570000000  0.4651470000000  0.4810060000000 1.0
C      1  0.5214640000000  0.5254900000000  0.5299950000000 1.0
C      1  0.4673730000000  0.4503680000000  0.5284500000000 1.0
C      1  0.4345310000000  0.6137870000000  0.4743140000000 1.0
C      1  0.5489050000000  0.4527640000000  0.4386980000000 1.0
C      1  0.4970350000000  0.4746180000000  0.5727700000000 1.0
C      1  0.4737170000000  0.5358440000000  0.5512310000000 1.0
C      1  0.5001060000000  0.5452830000000  0.4818510000000 1.0
C      1  0.5647310000000  0.4328630000000  0.4482960000000 1.0
C      1  0.5803450000000  0.5119990000000  0.4772320000000 1.0
C      1  0.4902450000000  0.4040190000000  0.5429800000000 1.0
C      1  0.5577050000000  0.5159780000000  0.4636920000000 1.0
C      1  0.5796740000000  0.4847550000000  0.6187050000000 1.0
C      1  0.4783390000000  0.5089180000000  0.5144270000000 1.0
C      1  0.5285590000000  0.4383210000000  0.4900990000000 1.0
C      1  0.4564000000000  0.5549450000000  0.5372930000000 1.0
C      1  0.4222540000000  0.4864310000000  0.4823440000000 1.0
C      1  0.5671340000000  0.4192480000000  0.4717330000000 1.0
C      1  0.4839720000000  0.4607530000000  0.4584620000000 1.0
C      1  0.4564590000000  0.4712800000000  0.5461810000000 1.0
C      1  0.5470490000000  0.4556990000000  0.5609710000000 1.0
C      1  0.4657230000000  0.5582610000000  0.4301090000000 1.0
C      1  0.5186980000000  0.5600510000000  0.4971250000000 1.0
C      1  0.5062530000000  0.5175710000000  0.4763000000000 1.0
C      1  0.4308250000000  0.5133950000000  0.4767580000000 1.0
C      1  0.5210380000000  0.4632950000000  0.5690080000000 1.0
C      1  0.5362820000000  0.4836130000000  0.5015230000000 1.0
C      1  0.4621280000000  0.5414020000000  0.4529700000000 1.0
C      1  0.4363540000000  0.5286640000000  0.5016440000000 1.0
C      1  0.4718960000000  0.4857370000000  0.5657110000000 1.0
C      1  0.4669120000000  0.5141980000000  0.5694350000000 1.0
C      1  0.4214610000000  0.6354710000000  0.4804920000000 1.0
END
