TITL C-247198-3593-184 3365.05895884571 125000 -563.468588831855 0 0 94 (C1) n - 1
REM
REM in /home/nfs/bkarasulu/CARBON/AIRSS/Generating-Clusters/LCBOP/Only-C1/SD-CG/FIRE-HFTN
REM
REM
REM
REM
REM
REM ./C.cell (11c1c37f851c82e70ff6c80c92926a4b)
REM AIRSS Version 0.9.1 bugfix July 2018 build 013d7b7c2542+ Fri, 06 Jul 2018 19:26:36 +0100
REM compiler GCC version 9.2.1 20190827 (Red Hat 9.2.1-1)
REM options -cpp -mtune=generic -march=x86-64 -g -O0 -fpre-include=/usr/include/finclude/math-vector-fortran.h
REM seed 1388657483 -685007598 1415926013 -1754247911 328197021 744125033 -808615191 110348092 742390203 934524650 1464590973 -123935609 886692650 -1620355519 729000751 1583549027 1918082115 -1556749254 1178992199 -1546010436 275917011 -1077546798 -1394145664 30707745 74793803 1557392321 -253378217 -741115214 493958757 -1360412760 -83010802 -1508292493 1432665029
REM
CELL 1.54180   50.00000   50.00000   50.00000   90.00000   90.00000   90.00000
LATT -1
SFAC C  
C      1  0.4455670000000  0.4461850000000  0.5120910000000 1.0
C      1  0.5024150000000  0.5649010000000  0.5019960000000 1.0
C      1  0.4450100000000  0.5108600000000  0.4405220000000 1.0
C      1  0.5776790000000  0.5364360000000  0.4956640000000 1.0
C      1  0.3935490000000  0.4964400000000  0.4574540000000 1.0
C      1  0.5591220000000  0.5592780000000  0.4892350000000 1.0
C      1  0.5135860000000  0.5576620000000  0.4470250000000 1.0
C      1  0.5399630000000  0.4723790000000  0.5055250000000 1.0
C      1  0.4298420000000  0.4638890000000  0.4538610000000 1.0
C      1  0.5124030000000  0.4930600000000  0.4499480000000 1.0
C      1  0.5474970000000  0.4093990000000  0.4947770000000 1.0
C      1  0.4293990000000  0.5337770000000  0.5680090000000 1.0
C      1  0.5499400000000  0.5716040000000  0.5135300000000 1.0
C      1  0.4385030000000  0.5549220000000  0.4598980000000 1.0
C      1  0.4729800000000  0.4800960000000  0.5839060000000 1.0
C      1  0.4567900000000  0.4720620000000  0.5187100000000 1.0
C      1  0.4664480000000  0.4734000000000  0.4171270000000 1.0
C      1  0.4761650000000  0.4144710000000  0.4887180000000 1.0
C      1  0.5097700000000  0.5241740000000  0.5465420000000 1.0
C      1  0.5591650000000  0.4585170000000  0.5208210000000 1.0
C      1  0.4686770000000  0.4873250000000  0.5403900000000 1.0
C      1  0.5310180000000  0.5224310000000  0.4952020000000 1.0
C      1  0.4595610000000  0.5566200000000  0.4796120000000 1.0
C      1  0.4751860000000  0.5823370000000  0.5410600000000 1.0
C      1  0.4903860000000  0.4714000000000  0.4897980000000 1.0
C      1  0.5494970000000  0.4673200000000  0.4335270000000 1.0
C      1  0.4898400000000  0.5201310000000  0.4137290000000 1.0
C      1  0.5399700000000  0.5003600000000  0.5091110000000 1.0
C      1  0.5446920000000  0.5534330000000  0.4626170000000 1.0
C      1  0.5415560000000  0.5649900000000  0.5404810000000 1.0
C      1  0.6047660000000  0.5761070000000  0.6257400000000 1.0
C      1  0.4549670000000  0.5405100000000  0.5031720000000 1.0
C      1  0.5370550000000  0.5091060000000  0.4467040000000 1.0
C      1  0.4870870000000  0.5686170000000  0.4574750000000 1.0
C      1  0.5283030000000  0.4280480000000  0.4847720000000 1.0
C      1  0.5264440000000  0.4170340000000  0.5741820000000 1.0
C      1  0.4703100000000  0.5820830000000  0.4385290000000 1.0
C      1  0.4220260000000  0.5130270000000  0.5263170000000 1.0
C      1  0.4083260000000  0.5165800000000  0.4734320000000 1.0
C      1  0.4537410000000  0.4901360000000  0.5644260000000 1.0
C      1  0.4760630000000  0.4461450000000  0.4227050000000 1.0
C      1  0.5346990000000  0.5099090000000  0.5529960000000 1.0
C      1  0.5089720000000  0.5418120000000  0.4212500000000 1.0
C      1  0.5892700000000  0.5746630000000  0.6048240000000 1.0
C      1  0.5014340000000  0.4252390000000  0.4957010000000 1.0
C      1  0.4990550000000  0.4709830000000  0.5818650000000 1.0
C      1  0.4100950000000  0.5035730000000  0.5015860000000 1.0
C      1  0.5537590000000  0.5127250000000  0.5313810000000 1.0
C      1  0.4674880000000  0.4868420000000  0.4962340000000 1.0
C      1  0.4917220000000  0.4905090000000  0.4082850000000 1.0
C      1  0.4351580000000  0.5538670000000  0.5482410000000 1.0
C      1  0.4900110000000  0.5236880000000  0.4813220000000 1.0
C      1  0.4284650000000  0.5285010000000  0.4568900000000 1.0
C      1  0.5599570000000  0.3909320000000  0.4791440000000 1.0
C      1  0.4302080000000  0.5066080000000  0.5563690000000 1.0
C      1  0.4436660000000  0.4824270000000  0.4348590000000 1.0
C      1  0.5562870000000  0.5266670000000  0.4559930000000 1.0
C      1  0.5349850000000  0.4579410000000  0.4792580000000 1.0
C      1  0.4956980000000  0.4502770000000  0.5083870000000 1.0
C      1  0.4345740000000  0.5399730000000  0.5228070000000 1.0
C      1  0.4600390000000  0.4302180000000  0.4392890000000 1.0
C      1  0.5444630000000  0.4866910000000  0.5669210000000 1.0
C      1  0.5576620000000  0.5707270000000  0.5624860000000 1.0
C      1  0.4897260000000  0.5112980000000  0.4569230000000 1.0
C      1  0.3992910000000  0.4551900000000  0.5147200000000 1.0
C      1  0.5730780000000  0.4818310000000  0.5613730000000 1.0
C      1  0.5105300000000  0.4726150000000  0.4707550000000 1.0
C      1  0.4716910000000  0.5194910000000  0.4366840000000 1.0
C      1  0.5045250000000  0.4472400000000  0.4234780000000 1.0
C      1  0.5340940000000  0.4397330000000  0.5606330000000 1.0
C      1  0.4030470000000  0.4754210000000  0.4958270000000 1.0
C      1  0.4963540000000  0.5688910000000  0.5292240000000 1.0
C      1  0.4439240000000  0.5739780000000  0.4392050000000 1.0
C      1  0.4857140000000  0.5109690000000  0.5324310000000 1.0
C      1  0.5103310000000  0.5402890000000  0.4905360000000 1.0
C      1  0.4529310000000  0.4317500000000  0.4875940000000 1.0
C      1  0.5761170000000  0.5154310000000  0.4750920000000 1.0
C      1  0.5589460000000  0.4675190000000  0.4618510000000 1.0
C      1  0.5150600000000  0.5532700000000  0.5439450000000 1.0
C      1  0.5734570000000  0.5731180000000  0.5836090000000 1.0
C      1  0.5505610000000  0.4368270000000  0.5368600000000 1.0
C      1  0.4728980000000  0.5161360000000  0.5035670000000 1.0
C      1  0.5778880000000  0.4854420000000  0.4804210000000 1.0
C      1  0.4202400000000  0.4404240000000  0.5231550000000 1.0
C      1  0.4052010000000  0.4714110000000  0.4667070000000 1.0
C      1  0.5932800000000  0.4813700000000  0.5398630000000 1.0
C      1  0.5255750000000  0.4654320000000  0.5711500000000 1.0
C      1  0.4508070000000  0.5767200000000  0.5505610000000 1.0
C      1  0.5832890000000  0.4731160000000  0.5135150000000 1.0
C      1  0.4446830000000  0.4401700000000  0.4611440000000 1.0
C      1  0.5157780000000  0.4754120000000  0.4247930000000 1.0
C      1  0.5761710000000  0.5277370000000  0.5229270000000 1.0
C      1  0.5523420000000  0.4122390000000  0.5226690000000 1.0
C      1  0.6195410000000  0.4875050000000  0.5443630000000 1.0
END
