TITL C-247202-1916-54 55928.5132250467 125000 -719.05638681271 0 0 119 (C1) n - 1
REM
REM in /home/nfs/bkarasulu/CARBON/AIRSS/Generating-Clusters/LCBOP/Only-C1/SD-CG/FIRE-HFTN
REM
REM
REM
REM
REM
REM ./C.cell (11c1c37f851c82e70ff6c80c92926a4b)
REM AIRSS Version 0.9.1 bugfix July 2018 build 013d7b7c2542+ Fri, 06 Jul 2018 19:26:36 +0100
REM compiler GCC version 9.2.1 20190827 (Red Hat 9.2.1-1)
REM options -cpp -mtune=generic -march=x86-64 -g -O0 -fpre-include=/usr/include/finclude/math-vector-fortran.h
REM seed 1370329741 237188760 -2118118509 720386772 891555354 701281392 1653188539 1877663214 -1164260053 -122101586 -94421430 -1636497316 900839807 228357506 514854149 1083207115 1443632408 -897725433 -1626405168 -980906441 -2087264348 1374316634 -271983863 -1890468730 1712395553 -1509571588 1813818415 -932260422 -124862404 -829333926 1969208342 -645111167 -572841227
REM
CELL 1.54180   50.00000   50.00000   50.00000   90.00000   90.00000   90.00000
LATT -1
SFAC C  
C      1  0.5737470000000  0.4379030000000  0.5477650000000 1.0
C      1  0.5288220000000  0.4891510000000  0.4934900000000 1.0
C      1  0.4177960000000  0.4772360000000  0.5361590000000 1.0
C      1  0.4533740000000  0.5156900000000  0.4821770000000 1.0
C      1  0.5359440000000  0.4088990000000  0.4612430000000 1.0
C      1  0.4788440000000  0.4822900000000  0.4589960000000 1.0
C      1  0.5164410000000  0.4248860000000  0.4477350000000 1.0
C      1  0.5534770000000  0.5240930000000  0.5718060000000 1.0
C      1  0.5156210000000  0.5400060000000  0.4185470000000 1.0
C      1  0.5024340000000  0.4678540000000  0.4595820000000 1.0
C      1  0.5210120000000  0.4382570000000  0.4220870000000 1.0
C      1  0.5920300000000  0.5065310000000  0.4369080000000 1.0
C      1  0.4663720000000  0.5772520000000  0.5723650000000 1.0
C      1  0.5465100000000  0.4866490000000  0.4412890000000 1.0
C      1  0.5965640000000  0.5026780000000  0.5298270000000 1.0
C      1  0.5404530000000  0.5484460000000  0.5591260000000 1.0
C      1  0.4473210000000  0.4256110000000  0.5387640000000 1.0
C      1  0.5461720000000  0.4852050000000  0.5463450000000 1.0
C      1  0.5370260000000  0.4467400000000  0.5767320000000 1.0
C      1  0.5826550000000  0.5054350000000  0.5047270000000 1.0
C      1  0.4844690000000  0.4591660000000  0.5067800000000 1.0
C      1  0.5915090000000  0.4650630000000  0.4795500000000 1.0
C      1  0.4770030000000  0.5078320000000  0.4165730000000 1.0
C      1  0.4650160000000  0.4038020000000  0.5386860000000 1.0
C      1  0.5323310000000  0.4894420000000  0.4163120000000 1.0
C      1  0.5087080000000  0.6064370000000  0.4607440000000 1.0
C      1  0.4353250000000  0.4417130000000  0.4620630000000 1.0
C      1  0.4804360000000  0.5259560000000  0.5942320000000 1.0
C      1  0.4568260000000  0.4621660000000  0.4180940000000 1.0
C      1  0.5469220000000  0.4531560000000  0.4743180000000 1.0
C      1  0.5510320000000  0.5590100000000  0.5335060000000 1.0
C      1  0.5950820000000  0.4546580000000  0.5481270000000 1.0
C      1  0.4120160000000  0.4578140000000  0.4647180000000 1.0
C      1  0.5452300000000  0.4385900000000  0.5506200000000 1.0
C      1  0.5413670000000  0.5345660000000  0.4611940000000 1.0
C      1  0.5767610000000  0.5613450000000  0.5197790000000 1.0
C      1  0.4342450000000  0.4640510000000  0.5165930000000 1.0
C      1  0.5699310000000  0.4209360000000  0.4967210000000 1.0
C      1  0.5977110000000  0.4935320000000  0.4838970000000 1.0
C      1  0.5011230000000  0.5308190000000  0.5205170000000 1.0
C      1  0.4733910000000  0.5690630000000  0.5109150000000 1.0
C      1  0.5952000000000  0.5227140000000  0.4153510000000 1.0
C      1  0.5877250000000  0.4613930000000  0.4509970000000 1.0
C      1  0.4560970000000  0.4907650000000  0.4701980000000 1.0
C      1  0.4258250000000  0.5377400000000  0.4158600000000 1.0
C      1  0.4615940000000  0.4740380000000  0.5166940000000 1.0
C      1  0.4473390000000  0.4446470000000  0.5612790000000 1.0
C      1  0.4788420000000  0.4992310000000  0.6054800000000 1.0
C      1  0.5546250000000  0.4964640000000  0.5047250000000 1.0
C      1  0.5305230000000  0.4765970000000  0.4657380000000 1.0
C      1  0.4977100000000  0.4394440000000  0.4641020000000 1.0
C      1  0.4878640000000  0.5834860000000  0.5307230000000 1.0
C      1  0.5133440000000  0.5582560000000  0.5697650000000 1.0
C      1  0.4659530000000  0.5244760000000  0.5700860000000 1.0
C      1  0.6031940000000  0.4800710000000  0.5435120000000 1.0
C      1  0.5025800000000  0.5113500000000  0.5408740000000 1.0
C      1  0.5380110000000  0.5852960000000  0.4930520000000 1.0
C      1  0.4327670000000  0.4873740000000  0.5807340000000 1.0
C      1  0.5690820000000  0.4506630000000  0.4954270000000 1.0
C      1  0.5749070000000  0.4836270000000  0.4381640000000 1.0
C      1  0.4011240000000  0.5286820000000  0.4747030000000 1.0
C      1  0.5525670000000  0.4695270000000  0.5881800000000 1.0
C      1  0.4905970000000  0.4003410000000  0.5316870000000 1.0
C      1  0.4448500000000  0.5764170000000  0.4417000000000 1.0
C      1  0.5798750000000  0.5671050000000  0.4926180000000 1.0
C      1  0.4753990000000  0.5082750000000  0.5495800000000 1.0
C      1  0.4228750000000  0.5127380000000  0.5676140000000 1.0
C      1  0.5166280000000  0.5322870000000  0.4749450000000 1.0
C      1  0.4378910000000  0.4356810000000  0.5124830000000 1.0
C      1  0.5304960000000  0.5171630000000  0.4072440000000 1.0
C      1  0.5028900000000  0.5434040000000  0.5926230000000 1.0
C      1  0.4568890000000  0.5205180000000  0.5093470000000 1.0
C      1  0.5551220000000  0.4015040000000  0.4813530000000 1.0
C      1  0.4655840000000  0.4851370000000  0.4039470000000 1.0
C      1  0.4114760000000  0.5191870000000  0.4288330000000 1.0
C      1  0.4589830000000  0.4802890000000  0.5934650000000 1.0
C      1  0.4987550000000  0.4538290000000  0.5752090000000 1.0
C      1  0.4697260000000  0.4544220000000  0.5788750000000 1.0
C      1  0.5461230000000  0.5616610000000  0.4520270000000 1.0
C      1  0.4262820000000  0.4654850000000  0.5619240000000 1.0
C      1  0.4028470000000  0.5096150000000  0.4539440000000 1.0
C      1  0.5055550000000  0.4902610000000  0.6015810000000 1.0
C      1  0.5252740000000  0.4399440000000  0.5286250000000 1.0
C      1  0.4917390000000  0.5759160000000  0.5581530000000 1.0
C      1  0.4404440000000  0.5600900000000  0.4192500000000 1.0
C      1  0.4499820000000  0.4322810000000  0.4855860000000 1.0
C      1  0.5577020000000  0.4740050000000  0.5221980000000 1.0
C      1  0.4425420000000  0.5637360000000  0.5734190000000 1.0
C      1  0.5120250000000  0.4148790000000  0.5252450000000 1.0
C      1  0.4927910000000  0.5306900000000  0.4583460000000 1.0
C      1  0.4294300000000  0.5669370000000  0.4865830000000 1.0
C      1  0.4699240000000  0.5786600000000  0.4577220000000 1.0
C      1  0.5086990000000  0.4796660000000  0.5756530000000 1.0
C      1  0.5322830000000  0.5643160000000  0.5116500000000 1.0
C      1  0.4931780000000  0.5263880000000  0.4303330000000 1.0
C      1  0.4589300000000  0.5751890000000  0.4872710000000 1.0
C      1  0.4785030000000  0.4385650000000  0.4859260000000 1.0
C      1  0.5211280000000  0.5654760000000  0.4346290000000 1.0
C      1  0.4131630000000  0.5068120000000  0.5399230000000 1.0
C      1  0.4748790000000  0.5413050000000  0.5155320000000 1.0
C      1  0.5225450000000  0.6066780000000  0.4839040000000 1.0
C      1  0.5585500000000  0.5758010000000  0.4744130000000 1.0
C      1  0.4612860000000  0.4996160000000  0.5271970000000 1.0
C      1  0.4632660000000  0.4852760000000  0.3765990000000 1.0
C      1  0.4668730000000  0.5345800000000  0.4671780000000 1.0
C      1  0.5128100000000  0.4630740000000  0.5125210000000 1.0
C      1  0.5231980000000  0.4627150000000  0.4094250000000 1.0
C      1  0.5576390000000  0.4942550000000  0.5719590000000 1.0
C      1  0.4111480000000  0.5288790000000  0.5212520000000 1.0
C      1  0.4134450000000  0.5433660000000  0.4960700000000 1.0
C      1  0.5591020000000  0.3748590000000  0.4866150000000 1.0
C      1  0.4014980000000  0.4820180000000  0.4597130000000 1.0
C      1  0.5186150000000  0.4913770000000  0.5514470000000 1.0
C      1  0.4480450000000  0.4449240000000  0.4367690000000 1.0
C      1  0.4224030000000  0.5773560000000  0.4601800000000 1.0
C      1  0.4398800000000  0.5356970000000  0.5706920000000 1.0
C      1  0.4980540000000  0.5829690000000  0.4480120000000 1.0
C      1  0.6056150000000  0.5093460000000  0.4616830000000 1.0
C      1  0.5186420000000  0.5412680000000  0.5020730000000 1.0
END
