TITL C-247200-3482-216 5440.99881545333 125000 -1001.53147864184 0 0 164 (C1) n - 1
REM
REM in /home/nfs/bkarasulu/CARBON/AIRSS/Generating-Clusters/LCBOP/Only-C1/SD-CG/FIRE-HFTN
REM
REM
REM
REM
REM
REM ./C.cell (11c1c37f851c82e70ff6c80c92926a4b)
REM AIRSS Version 0.9.1 bugfix July 2018 build 013d7b7c2542+ Fri, 06 Jul 2018 19:26:36 +0100
REM compiler GCC version 9.2.1 20190827 (Red Hat 9.2.1-1)
REM options -cpp -mtune=generic -march=x86-64 -g -O0 -fpre-include=/usr/include/finclude/math-vector-fortran.h
REM seed 1026086429 -1799439793 -1708491993 -1184645847 1230537809 590416601 395451584 -599485990 -171135725 -1058933302 1306373007 -941502593 -295177236 -307495883 -131470227 -1886801322 -1259574169 -1559300992 -1351551668 1384549902 -1579972727 -1587264304 1283655112 -328366893 454674645 -1076462840 -612657660 -2062804516 -506133366 1370531378 2006186044 -784492886 1842129811
REM
CELL 1.54180   50.00000   50.00000   50.00000   90.00000   90.00000   90.00000
LATT -1
SFAC C  
C      1  0.3796030000000  0.4907020000000  0.4731060000000 1.0
C      1  0.5057270000000  0.5089290000000  0.4557620000000 1.0
C      1  0.5152600000000  0.5493500000000  0.5336580000000 1.0
C      1  0.4653540000000  0.5211220000000  0.4965960000000 1.0
C      1  0.4299930000000  0.5249120000000  0.5381070000000 1.0
C      1  0.5018470000000  0.4380240000000  0.5633480000000 1.0
C      1  0.5341140000000  0.5883590000000  0.5589320000000 1.0
C      1  0.4923820000000  0.5520070000000  0.4511070000000 1.0
C      1  0.5559660000000  0.5148370000000  0.4671730000000 1.0
C      1  0.5228840000000  0.3826370000000  0.5670420000000 1.0
C      1  0.5099610000000  0.4389900000000  0.4831190000000 1.0
C      1  0.5278200000000  0.4266190000000  0.5012650000000 1.0
C      1  0.5364560000000  0.3936180000000  0.4684540000000 1.0
C      1  0.4157150000000  0.5546920000000  0.4990710000000 1.0
C      1  0.5319770000000  0.3667230000000  0.5876400000000 1.0
C      1  0.4841680000000  0.5257380000000  0.4485210000000 1.0
C      1  0.5863190000000  0.4571890000000  0.5441630000000 1.0
C      1  0.5306580000000  0.5096030000000  0.4429310000000 1.0
C      1  0.5931490000000  0.5207690000000  0.5601810000000 1.0
C      1  0.4181310000000  0.4624640000000  0.5600530000000 1.0
C      1  0.4363380000000  0.5386410000000  0.4091040000000 1.0
C      1  0.4483130000000  0.4170500000000  0.5557050000000 1.0
C      1  0.5322450000000  0.3988030000000  0.4968410000000 1.0
C      1  0.4250180000000  0.5515030000000  0.5460350000000 1.0
C      1  0.6047730000000  0.5023150000000  0.4839240000000 1.0
C      1  0.5304680000000  0.6355880000000  0.4522950000000 1.0
C      1  0.5985080000000  0.4492030000000  0.4972880000000 1.0
C      1  0.5585250000000  0.4153680000000  0.5500740000000 1.0
C      1  0.5192890000000  0.6118510000000  0.4606310000000 1.0
C      1  0.5932120000000  0.5001340000000  0.4367790000000 1.0
C      1  0.3832780000000  0.4720090000000  0.5198040000000 1.0
C      1  0.4939870000000  0.5918500000000  0.5176540000000 1.0
C      1  0.5512520000000  0.4975960000000  0.5265500000000 1.0
C      1  0.3941190000000  0.4619310000000  0.4318670000000 1.0
C      1  0.4248380000000  0.5690280000000  0.5238350000000 1.0
C      1  0.4884410000000  0.5383380000000  0.4966950000000 1.0
C      1  0.4874250000000  0.3870010000000  0.4665020000000 1.0
C      1  0.5157090000000  0.5708800000000  0.6011080000000 1.0
C      1  0.5193030000000  0.5197200000000  0.5995830000000 1.0
C      1  0.4613030000000  0.4544440000000  0.4919400000000 1.0
C      1  0.5905600000000  0.6671650000000  0.5547700000000 1.0
C      1  0.3917820000000  0.5167440000000  0.4747710000000 1.0
C      1  0.4739460000000  0.5968310000000  0.4742590000000 1.0
C      1  0.5289990000000  0.4965380000000  0.4174770000000 1.0
C      1  0.5437650000000  0.5610630000000  0.5659240000000 1.0
C      1  0.4803190000000  0.4442890000000  0.3936750000000 1.0
C      1  0.4626370000000  0.4730830000000  0.4715130000000 1.0
C      1  0.4192760000000  0.4931950000000  0.3976070000000 1.0
C      1  0.4633750000000  0.5852560000000  0.4129980000000 1.0
C      1  0.5023840000000  0.5585780000000  0.4781760000000 1.0
C      1  0.6044590000000  0.4839270000000  0.4608810000000 1.0
C      1  0.5647530000000  0.4007710000000  0.4653210000000 1.0
C      1  0.5415370000000  0.4849890000000  0.5031130000000 1.0
C      1  0.4713880000000  0.3858300000000  0.4887510000000 1.0
C      1  0.5113280000000  0.3950670000000  0.4516560000000 1.0
C      1  0.4567540000000  0.5254500000000  0.4525980000000 1.0
C      1  0.3989180000000  0.4371710000000  0.4452420000000 1.0
C      1  0.4063400000000  0.4127640000000  0.4896490000000 1.0
C      1  0.5252260000000  0.4368610000000  0.5268560000000 1.0
C      1  0.3991100000000  0.4627040000000  0.5798310000000 1.0
C      1  0.5805880000000  0.4031250000000  0.4897450000000 1.0
C      1  0.5707670000000  0.5202100000000  0.5792120000000 1.0
C      1  0.3748080000000  0.4706550000000  0.4932310000000 1.0
C      1  0.4585330000000  0.5576930000000  0.4050380000000 1.0
C      1  0.5331560000000  0.5451920000000  0.6061700000000 1.0
C      1  0.5775150000000  0.5224930000000  0.4279820000000 1.0
C      1  0.5166990000000  0.5100300000000  0.3959950000000 1.0
C      1  0.5284920000000  0.4988050000000  0.5439400000000 1.0
C      1  0.5325180000000  0.5634310000000  0.4696780000000 1.0
C      1  0.4629140000000  0.4563960000000  0.5865980000000 1.0
C      1  0.5046400000000  0.5632930000000  0.4258390000000 1.0
C      1  0.4929270000000  0.4549630000000  0.5822650000000 1.0
C      1  0.4381040000000  0.5467340000000  0.4556430000000 1.0
C      1  0.5024790000000  0.5282070000000  0.5773930000000 1.0
C      1  0.4329230000000  0.5643910000000  0.4772330000000 1.0
C      1  0.5301650000000  0.4924220000000  0.5959250000000 1.0
C      1  0.4566590000000  0.5195860000000  0.5944930000000 1.0
C      1  0.5091000000000  0.4092440000000  0.4252280000000 1.0
C      1  0.6107710000000  0.6836650000000  0.5594520000000 1.0
C      1  0.5396870000000  0.4365840000000  0.5503350000000 1.0
C      1  0.5064810000000  0.5037170000000  0.5260680000000 1.0
C      1  0.4587010000000  0.4680180000000  0.4247420000000 1.0
C      1  0.5671790000000  0.5204190000000  0.5218860000000 1.0
C      1  0.4412270000000  0.4061180000000  0.5289010000000 1.0
C      1  0.4473470000000  0.4986220000000  0.6090120000000 1.0
C      1  0.5413610000000  0.6005040000000  0.5065760000000 1.0
C      1  0.4948310000000  0.3897450000000  0.5673160000000 1.0
C      1  0.4475070000000  0.5870750000000  0.5182850000000 1.0
C      1  0.5376780000000  0.3832840000000  0.5197930000000 1.0
C      1  0.4613480000000  0.4741020000000  0.6104630000000 1.0
C      1  0.4518390000000  0.5220280000000  0.5207590000000 1.0
C      1  0.5041350000000  0.4622730000000  0.4416270000000 1.0
C      1  0.4606380000000  0.5975680000000  0.5826250000000 1.0
C      1  0.4192920000000  0.5412170000000  0.4339620000000 1.0
C      1  0.4676100000000  0.5007480000000  0.3925180000000 1.0
C      1  0.4874560000000  0.4219330000000  0.4090360000000 1.0
C      1  0.4177590000000  0.4081540000000  0.5135190000000 1.0
C      1  0.4085370000000  0.5109090000000  0.5251360000000 1.0
C      1  0.5489670000000  0.4624850000000  0.4627340000000 1.0
C      1  0.4649700000000  0.3998050000000  0.5131150000000 1.0
C      1  0.5709520000000  0.5637470000000  0.4029750000000 1.0
C      1  0.5936300000000  0.5161270000000  0.5317070000000 1.0
C      1  0.4889930000000  0.5906360000000  0.4263560000000 1.0
C      1  0.4982930000000  0.4323190000000  0.5369520000000 1.0
C      1  0.5561550000000  0.5449180000000  0.5866650000000 1.0
C      1  0.5362600000000  0.5590180000000  0.4352520000000 1.0
C      1  0.3917200000000  0.4284760000000  0.4714550000000 1.0
C      1  0.4901560000000  0.5195960000000  0.3943970000000 1.0
C      1  0.4712180000000  0.4971750000000  0.5552490000000 1.0
C      1  0.5330090000000  0.4207650000000  0.4138580000000 1.0
C      1  0.5551570000000  0.5416330000000  0.5076040000000 1.0
C      1  0.5605030000000  0.5478580000000  0.4233730000000 1.0
C      1  0.5711770000000  0.4213370000000  0.4471250000000 1.0
C      1  0.4531300000000  0.4646180000000  0.5170830000000 1.0
C      1  0.5214560000000  0.4531600000000  0.4622670000000 1.0
C      1  0.4026780000000  0.5272790000000  0.4998270000000 1.0
C      1  0.4711250000000  0.4973380000000  0.4829040000000 1.0
C      1  0.5995940000000  0.4686920000000  0.5195780000000 1.0
C      1  0.4753880000000  0.4660850000000  0.4468400000000 1.0
C      1  0.4886070000000  0.4766880000000  0.6211690000000 1.0
C      1  0.4699550000000  0.4011680000000  0.5678580000000 1.0
C      1  0.5179070000000  0.5455560000000  0.5607770000000 1.0
C      1  0.4806070000000  0.5922410000000  0.5641370000000 1.0
C      1  0.4693000000000  0.4713190000000  0.3983300000000 1.0
C      1  0.5719240000000  0.6490860000000  0.5494590000000 1.0
C      1  0.5088060000000  0.4721440000000  0.6003500000000 1.0
C      1  0.5959690000000  0.4575960000000  0.4692230000000 1.0
C      1  0.4764420000000  0.5174810000000  0.5742410000000 1.0
C      1  0.4404880000000  0.5120290000000  0.3973340000000 1.0
C      1  0.5082510000000  0.5885180000000  0.5755060000000 1.0
C      1  0.5133910000000  0.4888050000000  0.5024630000000 1.0
C      1  0.5814450000000  0.4275920000000  0.5366990000000 1.0
C      1  0.4720590000000  0.5910450000000  0.5357080000000 1.0
C      1  0.5429480000000  0.6048760000000  0.5360000000000 1.0
C      1  0.4619180000000  0.4790800000000  0.5378850000000 1.0
C      1  0.5581030000000  0.4925880000000  0.5824070000000 1.0
C      1  0.5558800000000  0.6289180000000  0.5433370000000 1.0
C      1  0.5886220000000  0.4235590000000  0.5080560000000 1.0
C      1  0.3970580000000  0.5295610000000  0.4486480000000 1.0
C      1  0.3784770000000  0.4802180000000  0.4467510000000 1.0
C      1  0.4822920000000  0.4217940000000  0.5168550000000 1.0
C      1  0.4041680000000  0.4836370000000  0.5340000000000 1.0
C      1  0.3713970000000  0.4443290000000  0.4833670000000 1.0
C      1  0.4933390000000  0.5838070000000  0.4911530000000 1.0
C      1  0.5534630000000  0.4862190000000  0.4782400000000 1.0
C      1  0.5425500000000  0.3907390000000  0.5469830000000 1.0
C      1  0.5358050000000  0.4471640000000  0.4079840000000 1.0
C      1  0.4064670000000  0.4726220000000  0.4090580000000 1.0
C      1  0.6312330000000  0.6992250000000  0.5637900000000 1.0
C      1  0.5858400000000  0.5210600000000  0.4741950000000 1.0
C      1  0.5350700000000  0.5936180000000  0.4783200000000 1.0
C      1  0.5010140000000  0.5306750000000  0.5204030000000 1.0
C      1  0.5458770000000  0.5393130000000  0.4808800000000 1.0
C      1  0.5724550000000  0.4479920000000  0.4558150000000 1.0
C      1  0.4426740000000  0.4452680000000  0.5666410000000 1.0
C      1  0.4490750000000  0.5875260000000  0.4869260000000 1.0
C      1  0.5217530000000  0.4689970000000  0.4191920000000 1.0
C      1  0.6050460000000  0.4962660000000  0.5129070000000 1.0
C      1  0.4865500000000  0.5465570000000  0.4039370000000 1.0
C      1  0.4998360000000  0.4955070000000  0.4794770000000 1.0
C      1  0.5725640000000  0.4714950000000  0.5663850000000 1.0
C      1  0.4834510000000  0.4374340000000  0.4931320000000 1.0
C      1  0.4916030000000  0.6047640000000  0.4517190000000 1.0
C      1  0.5387350000000  0.5584930000000  0.5218570000000 1.0
END
