TITL C-247202-1916-145 1.23976935945918 125000 -296.440797895453 0 0 50 (C1) n - 1
REM
REM in /home/nfs/bkarasulu/CARBON/AIRSS/Generating-Clusters/LCBOP/Only-C1/SD-CG/FIRE-HFTN
REM
REM
REM
REM
REM
REM ./C.cell (11c1c37f851c82e70ff6c80c92926a4b)
REM AIRSS Version 0.9.1 bugfix July 2018 build 013d7b7c2542+ Fri, 06 Jul 2018 19:26:36 +0100
REM compiler GCC version 9.2.1 20190827 (Red Hat 9.2.1-1)
REM options -cpp -mtune=generic -march=x86-64 -g -O0 -fpre-include=/usr/include/finclude/math-vector-fortran.h
REM seed 143095949 1288345522 1692481483 1932451220 1202431608 -1451732353 690451144 1174319469 1934895130 246343475 616893305 2072534816 750626208 -178969292 1533415241 -2137704864 -1996240011 -261374233 788718608 1287950658 1704477495 337576192 -227604166 2118282550 1402277652 -281584982 -867387097 -48795131 215633882 1496587994 1504456991 593595397 -1837300191
REM
CELL 1.54180   50.00000   50.00000   50.00000   90.00000   90.00000   90.00000
LATT -1
SFAC C  
C      1  0.4959000000000  0.5027940000000  0.5522920000000 1.0
C      1  0.5861950000000  0.4761700000000  0.5061790000000 1.0
C      1  0.4916320000000  0.5279830000000  0.5633000000000 1.0
C      1  0.5407030000000  0.4575070000000  0.5065260000000 1.0
C      1  0.5329450000000  0.4999830000000  0.4652930000000 1.0
C      1  0.5748550000000  0.4334690000000  0.3530480000000 1.0
C      1  0.4267340000000  0.4941470000000  0.5307980000000 1.0
C      1  0.4359610000000  0.5655480000000  0.5110390000000 1.0
C      1  0.5570860000000  0.4550650000000  0.3975540000000 1.0
C      1  0.4543320000000  0.5506100000000  0.4991480000000 1.0
C      1  0.4669920000000  0.4776290000000  0.4576900000000 1.0
C      1  0.5552610000000  0.4828200000000  0.4681460000000 1.0
C      1  0.5469310000000  0.4664580000000  0.4207800000000 1.0
C      1  0.4079570000000  0.5077750000000  0.5436130000000 1.0
C      1  0.4805780000000  0.4346680000000  0.4765820000000 1.0
C      1  0.5629210000000  0.4704820000000  0.4438660000000 1.0
C      1  0.5611990000000  0.4717430000000  0.4935730000000 1.0
C      1  0.5133460000000  0.5448800000000  0.5722940000000 1.0
C      1  0.5057510000000  0.5697660000000  0.5838940000000 1.0
C      1  0.4654200000000  0.5385290000000  0.5669980000000 1.0
C      1  0.4726360000000  0.5347020000000  0.4885100000000 1.0
C      1  0.4801300000000  0.5784600000000  0.5868130000000 1.0
C      1  0.4918170000000  0.5182110000000  0.4773390000000 1.0
C      1  0.4181620000000  0.5792150000000  0.5251290000000 1.0
C      1  0.5036090000000  0.4299260000000  0.4902120000000 1.0
C      1  0.3841470000000  0.6030320000000  0.5573610000000 1.0
C      1  0.5197610000000  0.4751420000000  0.4231230000000 1.0
C      1  0.4871470000000  0.4976940000000  0.4574740000000 1.0
C      1  0.4676080000000  0.4598100000000  0.4798410000000 1.0
C      1  0.4467900000000  0.4816790000000  0.5188070000000 1.0
C      1  0.4986960000000  0.4663650000000  0.4066470000000 1.0
C      1  0.5203560000000  0.5190970000000  0.4826950000000 1.0
C      1  0.5660890000000  0.4441810000000  0.3751390000000 1.0
C      1  0.5031220000000  0.4580050000000  0.5677500000000 1.0
C      1  0.4977600000000  0.4753570000000  0.5472590000000 1.0
C      1  0.4688850000000  0.4696900000000  0.5068370000000 1.0
C      1  0.5130380000000  0.4909040000000  0.4457830000000 1.0
C      1  0.4596940000000  0.5626240000000  0.5782640000000 1.0
C      1  0.5786090000000  0.5107780000000  0.5464020000000 1.0
C      1  0.4937540000000  0.4654470000000  0.5210030000000 1.0
C      1  0.4721130000000  0.4640590000000  0.4104020000000 1.0
C      1  0.4009560000000  0.5915530000000  0.5410740000000 1.0
C      1  0.5621700000000  0.5257100000000  0.5608850000000 1.0
C      1  0.5399720000000  0.5373260000000  0.5695200000000 1.0
C      1  0.3902490000000  0.5216440000000  0.5567910000000 1.0
C      1  0.6086850000000  0.4631780000000  0.4976740000000 1.0
C      1  0.5328260000000  0.5353570000000  0.5004810000000 1.0
C      1  0.5870880000000  0.4940480000000  0.5276730000000 1.0
C      1  0.5139960000000  0.4494640000000  0.5080480000000 1.0
C      1  0.4574370000000  0.4693180000000  0.4324510000000 1.0
END
