TITL C-247196-3112-40 253.98822593588 125000 -781.126147550205 0 0 129 (C1) n - 1
REM
REM in /home/nfs/bkarasulu/CARBON/AIRSS/Generating-Clusters/LCBOP/Only-C1/SD-CG/FIRE-HFTN
REM
REM
REM
REM
REM
REM ./C.cell (11c1c37f851c82e70ff6c80c92926a4b)
REM AIRSS Version 0.9.1 bugfix July 2018 build 013d7b7c2542+ Fri, 06 Jul 2018 19:26:36 +0100
REM compiler GCC version 9.2.1 20190827 (Red Hat 9.2.1-1)
REM options -cpp -mtune=generic -march=x86-64 -g -O0 -fpre-include=/usr/include/finclude/math-vector-fortran.h
REM seed -95646485 1290657581 -245744395 -99549050 221857045 1555157005 376935951 1487776461 -156744111 -605811533 -1644668405 -2002742882 602976218 1622638232 20800609 -805655887 1935766725 1755471194 -415753370 -983342400 -939060210 -787917449 1583310542 249051008 330208631 597740443 455427717 -1336607645 -635943271 -669139735 -1805521047 -1961136465 1046063505
REM
CELL 1.54180   50.00000   50.00000   50.00000   90.00000   90.00000   90.00000
LATT -1
SFAC C  
C      1  0.4457370000000  0.4295890000000  0.4922090000000 1.0
C      1  0.4109580000000  0.4229270000000  0.5721630000000 1.0
C      1  0.4492560000000  0.5720570000000  0.4486660000000 1.0
C      1  0.5266770000000  0.5472860000000  0.4846710000000 1.0
C      1  0.4716720000000  0.5271620000000  0.5378350000000 1.0
C      1  0.4941730000000  0.4402040000000  0.4589600000000 1.0
C      1  0.5785800000000  0.5846120000000  0.5338790000000 1.0
C      1  0.4460450000000  0.5547600000000  0.4036840000000 1.0
C      1  0.4221630000000  0.5020280000000  0.4433760000000 1.0
C      1  0.5080380000000  0.6075590000000  0.4869920000000 1.0
C      1  0.4614460000000  0.4008890000000  0.5311410000000 1.0
C      1  0.5208500000000  0.5751060000000  0.5665000000000 1.0
C      1  0.5747690000000  0.5557760000000  0.4412330000000 1.0
C      1  0.4345050000000  0.4987180000000  0.5496190000000 1.0
C      1  0.4636620000000  0.5184130000000  0.4612370000000 1.0
C      1  0.5942390000000  0.4822410000000  0.4457000000000 1.0
C      1  0.4775630000000  0.5729440000000  0.4468730000000 1.0
C      1  0.5540680000000  0.5457890000000  0.6185880000000 1.0
C      1  0.5301330000000  0.5120470000000  0.5931920000000 1.0
C      1  0.4475010000000  0.5137830000000  0.5299970000000 1.0
C      1  0.4084870000000  0.5492950000000  0.4322360000000 1.0
C      1  0.5992260000000  0.5106590000000  0.4419410000000 1.0
C      1  0.5167450000000  0.5438040000000  0.5290510000000 1.0
C      1  0.5422570000000  0.5389250000000  0.5939060000000 1.0
C      1  0.3726570000000  0.4638530000000  0.5191890000000 1.0
C      1  0.4855350000000  0.5834470000000  0.5269520000000 1.0
C      1  0.4270290000000  0.4290710000000  0.5500850000000 1.0
C      1  0.4536550000000  0.4548430000000  0.4821740000000 1.0
C      1  0.5790420000000  0.5289610000000  0.4314370000000 1.0
C      1  0.3485840000000  0.4683880000000  0.5280810000000 1.0
C      1  0.5662620000000  0.5522880000000  0.6411900000000 1.0
C      1  0.4976260000000  0.5819890000000  0.5534310000000 1.0
C      1  0.5976500000000  0.4552290000000  0.5083570000000 1.0
C      1  0.4926670000000  0.5523520000000  0.3963870000000 1.0
C      1  0.6180250000000  0.5214990000000  0.4600430000000 1.0
C      1  0.4131650000000  0.4824340000000  0.4621300000000 1.0
C      1  0.4504800000000  0.5261410000000  0.4852480000000 1.0
C      1  0.5513440000000  0.5302630000000  0.4852500000000 1.0
C      1  0.5617330000000  0.5426660000000  0.5293000000000 1.0
C      1  0.4510000000000  0.4805430000000  0.5629990000000 1.0
C      1  0.5322360000000  0.4506840000000  0.4347420000000 1.0
C      1  0.4844530000000  0.4484700000000  0.3556260000000 1.0
C      1  0.5609550000000  0.4843860000000  0.4792370000000 1.0
C      1  0.4059020000000  0.4695400000000  0.4848050000000 1.0
C      1  0.5968870000000  0.5213170000000  0.5061580000000 1.0
C      1  0.4652520000000  0.5113150000000  0.4132510000000 1.0
C      1  0.5600400000000  0.4295840000000  0.4929800000000 1.0
C      1  0.5220270000000  0.4421240000000  0.4597020000000 1.0
C      1  0.5348160000000  0.4417230000000  0.4850160000000 1.0
C      1  0.5388920000000  0.5295670000000  0.5385660000000 1.0
C      1  0.4671880000000  0.4634130000000  0.5465800000000 1.0
C      1  0.5451810000000  0.5063490000000  0.5529430000000 1.0
C      1  0.4481650000000  0.5041380000000  0.5034830000000 1.0
C      1  0.3989080000000  0.4588790000000  0.5104600000000 1.0
C      1  0.5041460000000  0.5687610000000  0.4486220000000 1.0
C      1  0.4753770000000  0.5306760000000  0.5659130000000 1.0
C      1  0.4655230000000  0.3882160000000  0.4339030000000 1.0
C      1  0.5518940000000  0.4224240000000  0.5480880000000 1.0
C      1  0.4756560000000  0.4221520000000  0.3950160000000 1.0
C      1  0.4694640000000  0.4027510000000  0.4120320000000 1.0
C      1  0.5948140000000  0.5410120000000  0.5604630000000 1.0
C      1  0.4497260000000  0.5547570000000  0.4938380000000 1.0
C      1  0.4914160000000  0.5174910000000  0.4641080000000 1.0
C      1  0.5547960000000  0.5163210000000  0.4231540000000 1.0
C      1  0.4706380000000  0.4525780000000  0.4601350000000 1.0
C      1  0.4550350000000  0.4054180000000  0.5025990000000 1.0
C      1  0.5297580000000  0.4623920000000  0.5054130000000 1.0
C      1  0.5717350000000  0.5346550000000  0.5044360000000 1.0
C      1  0.5729860000000  0.5600500000000  0.5504710000000 1.0
C      1  0.5578470000000  0.5719570000000  0.4580850000000 1.0
C      1  0.5054760000000  0.4723880000000  0.5161700000000 1.0
C      1  0.4631930000000  0.4880410000000  0.5879590000000 1.0
C      1  0.3966640000000  0.6048100000000  0.4875240000000 1.0
C      1  0.4378490000000  0.5725260000000  0.4746900000000 1.0
C      1  0.5842950000000  0.4447810000000  0.4846980000000 1.0
C      1  0.4636410000000  0.3806760000000  0.4592890000000 1.0
C      1  0.4635980000000  0.3821930000000  0.4869010000000 1.0
C      1  0.5046780000000  0.5764910000000  0.3990180000000 1.0
C      1  0.4582920000000  0.4764050000000  0.5004500000000 1.0
C      1  0.3959520000000  0.4187230000000  0.5935770000000 1.0
C      1  0.5608530000000  0.4021810000000  0.5644940000000 1.0
C      1  0.5101970000000  0.5994820000000  0.4121950000000 1.0
C      1  0.5103680000000  0.6168830000000  0.4617360000000 1.0
C      1  0.5690880000000  0.5003670000000  0.5646630000000 1.0
C      1  0.5498930000000  0.5073770000000  0.4690010000000 1.0
C      1  0.4687440000000  0.5379360000000  0.4018690000000 1.0
C      1  0.4714230000000  0.5151540000000  0.5878290000000 1.0
C      1  0.3809430000000  0.4148230000000  0.6150730000000 1.0
C      1  0.3661860000000  0.4110210000000  0.6362250000000 1.0
C      1  0.5783700000000  0.5587020000000  0.6633680000000 1.0
C      1  0.4772360000000  0.4663870000000  0.5998660000000 1.0
C      1  0.5198550000000  0.4609700000000  0.4130800000000 1.0
C      1  0.4154870000000  0.4439040000000  0.5283850000000 1.0
C      1  0.4549110000000  0.4201320000000  0.5505010000000 1.0
C      1  0.5692760000000  0.5858650000000  0.4809280000000 1.0
C      1  0.4043320000000  0.5229990000000  0.4365280000000 1.0
C      1  0.5758890000000  0.5902190000000  0.5070490000000 1.0
C      1  0.4327490000000  0.5628560000000  0.4271050000000 1.0
C      1  0.5802930000000  0.4676120000000  0.4658550000000 1.0
C      1  0.5064800000000  0.5880600000000  0.5072430000000 1.0
C      1  0.4746450000000  0.4390160000000  0.5603900000000 1.0
C      1  0.5294580000000  0.5643130000000  0.4604300000000 1.0
C      1  0.5557070000000  0.4777540000000  0.5072410000000 1.0
C      1  0.4744030000000  0.3638020000000  0.5064100000000 1.0
C      1  0.5224610000000  0.5644280000000  0.5090770000000 1.0
C      1  0.5927200000000  0.5123650000000  0.5541310000000 1.0
C      1  0.5441930000000  0.5596500000000  0.5731910000000 1.0
C      1  0.5077670000000  0.4990830000000  0.5235940000000 1.0
C      1  0.5829590000000  0.4770810000000  0.5201470000000 1.0
C      1  0.4733210000000  0.3746810000000  0.5318320000000 1.0
C      1  0.4919760000000  0.4488460000000  0.5821970000000 1.0
C      1  0.4501590000000  0.5084860000000  0.4382640000000 1.0
C      1  0.5193110000000  0.4584740000000  0.5775240000000 1.0
C      1  0.4851060000000  0.4455340000000  0.3828070000000 1.0
C      1  0.5015520000000  0.5291770000000  0.4878570000000 1.0
C      1  0.4630730000000  0.5688640000000  0.5157080000000 1.0
C      1  0.4956880000000  0.4662470000000  0.3993550000000 1.0
C      1  0.4167360000000  0.5893460000000  0.4814410000000 1.0
C      1  0.6165170000000  0.5245220000000  0.4866570000000 1.0
C      1  0.5116950000000  0.6142940000000  0.4348220000000 1.0
C      1  0.4954530000000  0.5255770000000  0.5189110000000 1.0
C      1  0.5367520000000  0.4433030000000  0.5606210000000 1.0
C      1  0.4802170000000  0.4894700000000  0.4034520000000 1.0
C      1  0.5967010000000  0.5018420000000  0.5272430000000 1.0
C      1  0.5587120000000  0.4203590000000  0.5203320000000 1.0
C      1  0.5372170000000  0.5083600000000  0.4436080000000 1.0
C      1  0.5094700000000  0.5087760000000  0.4446700000000 1.0
C      1  0.5255980000000  0.4851280000000  0.5885300000000 1.0
C      1  0.4773060000000  0.4676210000000  0.5205620000000 1.0
END
