TITL C-247201-3759-28 0.00611082499389652 125000 -729.867458850479 0 0 121 (C1) n - 1
REM
REM in /home/nfs/bkarasulu/CARBON/AIRSS/Generating-Clusters/LCBOP/Only-C1/SD-CG/FIRE-HFTN
REM
REM
REM
REM
REM
REM ./C.cell (11c1c37f851c82e70ff6c80c92926a4b)
REM AIRSS Version 0.9.1 bugfix July 2018 build 013d7b7c2542+ Fri, 06 Jul 2018 19:26:36 +0100
REM compiler GCC version 9.2.1 20190827 (Red Hat 9.2.1-1)
REM options -cpp -mtune=generic -march=x86-64 -g -O0 -fpre-include=/usr/include/finclude/math-vector-fortran.h
REM seed -175675769 507842890 1043628716 1190683576 -1616724976 -2018784159 801105079 -1148213681 -933616441 1631964888 1883063881 -579246760 -1409804518 1175855038 738550310 1378929174 519721482 1582440172 -1210118438 -1506468935 1145193938 1575856469 -999267033 -115668318 -1682222303 -418807 1484482840 -1591547599 420606453 882162207 -534489269 119310910 -10320004
REM
CELL 1.54180   50.00000   50.00000   50.00000   90.00000   90.00000   90.00000
LATT -1
SFAC C  
C      1  0.4632790000000  0.5264660000000  0.5192180000000 1.0
C      1  0.4817200000000  0.4704100000000  0.5407040000000 1.0
C      1  0.5235260000000  0.4748850000000  0.5807880000000 1.0
C      1  0.4485220000000  0.5200040000000  0.5422340000000 1.0
C      1  0.5890680000000  0.5284160000000  0.5738920000000 1.0
C      1  0.4511740000000  0.5487590000000  0.5783780000000 1.0
C      1  0.4926000000000  0.5300720000000  0.6018510000000 1.0
C      1  0.4872230000000  0.5342060000000  0.4116910000000 1.0
C      1  0.5536900000000  0.4023350000000  0.4628450000000 1.0
C      1  0.5356510000000  0.5315200000000  0.5295050000000 1.0
C      1  0.4523380000000  0.4706810000000  0.5494210000000 1.0
C      1  0.5221570000000  0.4905390000000  0.5547410000000 1.0
C      1  0.4442230000000  0.4112630000000  0.5093610000000 1.0
C      1  0.4901960000000  0.4603840000000  0.4086530000000 1.0
C      1  0.3969260000000  0.4811760000000  0.4853040000000 1.0
C      1  0.6216220000000  0.4969510000000  0.4147480000000 1.0
C      1  0.4424300000000  0.5224890000000  0.4472790000000 1.0
C      1  0.5439550000000  0.5017890000000  0.4893170000000 1.0
C      1  0.5553040000000  0.5634160000000  0.5669820000000 1.0
C      1  0.4024930000000  0.5257380000000  0.5077920000000 1.0
C      1  0.4516260000000  0.5627650000000  0.4693420000000 1.0
C      1  0.4533120000000  0.5483760000000  0.4447290000000 1.0
C      1  0.5297270000000  0.5621740000000  0.4300850000000 1.0
C      1  0.3739330000000  0.4909840000000  0.5273210000000 1.0
C      1  0.4574720000000  0.4991710000000  0.4456020000000 1.0
C      1  0.4693560000000  0.4798030000000  0.4077020000000 1.0
C      1  0.5965510000000  0.5316250000000  0.5000000000000 1.0
C      1  0.5623530000000  0.3803320000000  0.4489340000000 1.0
C      1  0.5142280000000  0.5378160000000  0.4222870000000 1.0
C      1  0.4703080000000  0.4030400000000  0.5249780000000 1.0
C      1  0.5514140000000  0.5003170000000  0.4058620000000 1.0
C      1  0.3594620000000  0.4825690000000  0.5472930000000 1.0
C      1  0.6082130000000  0.5264920000000  0.5934230000000 1.0
C      1  0.4267380000000  0.5766660000000  0.5086910000000 1.0
C      1  0.5466740000000  0.4173800000000  0.5157210000000 1.0
C      1  0.5505820000000  0.4789200000000  0.4744350000000 1.0
C      1  0.6068500000000  0.5098210000000  0.4319460000000 1.0
C      1  0.3910170000000  0.4992200000000  0.5067980000000 1.0
C      1  0.5186920000000  0.5501340000000  0.4727730000000 1.0
C      1  0.5119450000000  0.5231530000000  0.4665710000000 1.0
C      1  0.4263950000000  0.4663160000000  0.4467660000000 1.0
C      1  0.4699250000000  0.4850120000000  0.4658900000000 1.0
C      1  0.4825440000000  0.5033730000000  0.5982850000000 1.0
C      1  0.5126300000000  0.4503400000000  0.4196350000000 1.0
C      1  0.4751750000000  0.4322330000000  0.5713400000000 1.0
C      1  0.5846190000000  0.4572070000000  0.5238340000000 1.0
C      1  0.5392190000000  0.4975090000000  0.4308310000000 1.0
C      1  0.4744290000000  0.5808790000000  0.4137060000000 1.0
C      1  0.5203780000000  0.5163540000000  0.4400030000000 1.0
C      1  0.4124970000000  0.5364570000000  0.4828160000000 1.0
C      1  0.5705380000000  0.4339890000000  0.5258310000000 1.0
C      1  0.5435930000000  0.5738030000000  0.5426340000000 1.0
C      1  0.5509440000000  0.5216350000000  0.5079810000000 1.0
C      1  0.4004670000000  0.4527810000000  0.4846010000000 1.0
C      1  0.4780610000000  0.5078880000000  0.4023740000000 1.0
C      1  0.4727830000000  0.5040750000000  0.5062160000000 1.0
C      1  0.4996630000000  0.4034620000000  0.5177010000000 1.0
C      1  0.5658030000000  0.5602480000000  0.4734420000000 1.0
C      1  0.5537020000000  0.4013080000000  0.4913460000000 1.0
C      1  0.5203790000000  0.5334780000000  0.6058590000000 1.0
C      1  0.5001760000000  0.4321300000000  0.5027340000000 1.0
C      1  0.5731530000000  0.5739660000000  0.4997030000000 1.0
C      1  0.4767070000000  0.5525070000000  0.5931590000000 1.0
C      1  0.4365920000000  0.4573430000000  0.5283800000000 1.0
C      1  0.5348420000000  0.4494090000000  0.4374420000000 1.0
C      1  0.4773600000000  0.5506870000000  0.5121690000000 1.0
C      1  0.5964510000000  0.5107370000000  0.5205210000000 1.0
C      1  0.4948320000000  0.6230630000000  0.4006570000000 1.0
C      1  0.4807190000000  0.4475340000000  0.5217210000000 1.0
C      1  0.5263520000000  0.4218460000000  0.5601500000000 1.0
C      1  0.5003820000000  0.4997890000000  0.5102950000000 1.0
C      1  0.5032950000000  0.4865850000000  0.5351690000000 1.0
C      1  0.4938850000000  0.5631120000000  0.5316920000000 1.0
C      1  0.4228890000000  0.4425850000000  0.4677340000000 1.0
C      1  0.5631390000000  0.5389930000000  0.5806800000000 1.0
C      1  0.4488380000000  0.5675150000000  0.5547310000000 1.0
C      1  0.4277590000000  0.4297410000000  0.5268470000000 1.0
C      1  0.5577990000000  0.5853800000000  0.5207110000000 1.0
C      1  0.5252120000000  0.4068330000000  0.5351260000000 1.0
C      1  0.4519550000000  0.4739700000000  0.5777640000000 1.0
C      1  0.5155770000000  0.5054290000000  0.4877870000000 1.0
C      1  0.4619140000000  0.4827330000000  0.4920590000000 1.0
C      1  0.5929300000000  0.4823780000000  0.5179150000000 1.0
C      1  0.5603800000000  0.5030910000000  0.3810890000000 1.0
C      1  0.4373130000000  0.4203650000000  0.4812000000000 1.0
C      1  0.4564820000000  0.4588220000000  0.5059500000000 1.0
C      1  0.4744270000000  0.4564410000000  0.5868270000000 1.0
C      1  0.4720150000000  0.4258120000000  0.5436550000000 1.0
C      1  0.5408410000000  0.5616340000000  0.4581570000000 1.0
C      1  0.5926380000000  0.5224090000000  0.4504320000000 1.0
C      1  0.4968810000000  0.5977000000000  0.4104000000000 1.0
C      1  0.4103540000000  0.4903620000000  0.4612280000000 1.0
C      1  0.4689510000000  0.5544340000000  0.4216640000000 1.0
C      1  0.4886280000000  0.5746650000000  0.5789900000000 1.0
C      1  0.4558070000000  0.5008070000000  0.5865410000000 1.0
C      1  0.4835450000000  0.4150230000000  0.4531620000000 1.0
C      1  0.5219860000000  0.5568320000000  0.5333360000000 1.0
C      1  0.4467480000000  0.5219810000000  0.5702680000000 1.0
C      1  0.4271760000000  0.5644030000000  0.5348670000000 1.0
C      1  0.4478480000000  0.4779810000000  0.4280690000000 1.0
C      1  0.4902230000000  0.4284600000000  0.4750530000000 1.0
C      1  0.5452050000000  0.4565170000000  0.4891420000000 1.0
C      1  0.4780540000000  0.5761490000000  0.5520010000000 1.0
C      1  0.5438810000000  0.4929260000000  0.5960040000000 1.0
C      1  0.5293270000000  0.4392530000000  0.5028630000000 1.0
C      1  0.5696640000000  0.5061250000000  0.3569210000000 1.0
C      1  0.5449870000000  0.4251620000000  0.4481880000000 1.0
C      1  0.5216280000000  0.5863190000000  0.4179410000000 1.0
C      1  0.5358790000000  0.5141720000000  0.5512470000000 1.0
C      1  0.5295510000000  0.4452690000000  0.5739920000000 1.0
C      1  0.5447310000000  0.5222440000000  0.5964850000000 1.0
C      1  0.4181000000000  0.5181090000000  0.4612140000000 1.0
C      1  0.5839780000000  0.5357490000000  0.4732410000000 1.0
C      1  0.4087310000000  0.5414780000000  0.5314160000000 1.0
C      1  0.4735150000000  0.5628430000000  0.4870320000000 1.0
C      1  0.5963230000000  0.5590830000000  0.5096120000000 1.0
C      1  0.5951750000000  0.5202390000000  0.5475130000000 1.0
C      1  0.4770920000000  0.3986880000000  0.4338880000000 1.0
C      1  0.4267550000000  0.5619120000000  0.4839410000000 1.0
C      1  0.5446560000000  0.4750420000000  0.4467980000000 1.0
C      1  0.4954680000000  0.4766300000000  0.5942410000000 1.0
END
