TITL C-247200-3482-288 39.6936485185221 125000 -1226.86841636559 0 0 199 (C1) n - 1
REM
REM in /home/nfs/bkarasulu/CARBON/AIRSS/Generating-Clusters/LCBOP/Only-C1/SD-CG/FIRE-HFTN
REM
REM
REM
REM
REM
REM ./C.cell (11c1c37f851c82e70ff6c80c92926a4b)
REM AIRSS Version 0.9.1 bugfix July 2018 build 013d7b7c2542+ Fri, 06 Jul 2018 19:26:36 +0100
REM compiler GCC version 9.2.1 20190827 (Red Hat 9.2.1-1)
REM options -cpp -mtune=generic -march=x86-64 -g -O0 -fpre-include=/usr/include/finclude/math-vector-fortran.h
REM seed -1626725006 1381553249 1422406415 -1033380951 1019759862 1176173399 417685620 1997757288 -1001720891 1752097469 -608294400 1204295699 -67185176 -717349578 1871238342 -2039551439 468567043 2113725543 2112924846 28210718 -1340132096 1737541017 -992353206 -839195441 764725249 1568142304 -497566731 -1988015536 -68555239 2126364330 245469694 -1333292143 1997620312
REM
CELL 1.54180   50.00000   50.00000   50.00000   90.00000   90.00000   90.00000
LATT -1
SFAC C  
C      1  0.5069560000000  0.5750950000000  0.5020170000000 1.0
C      1  0.5525580000000  0.6028050000000  0.5394970000000 1.0
C      1  0.4779590000000  0.5092780000000  0.4860520000000 1.0
C      1  0.4408210000000  0.4013910000000  0.4687290000000 1.0
C      1  0.4898960000000  0.5631560000000  0.5948690000000 1.0
C      1  0.5925250000000  0.4901830000000  0.4438350000000 1.0
C      1  0.4949660000000  0.3813500000000  0.5463540000000 1.0
C      1  0.5182840000000  0.3711280000000  0.5325910000000 1.0
C      1  0.4025950000000  0.5367060000000  0.4333620000000 1.0
C      1  0.6183840000000  0.4948550000000  0.5496220000000 1.0
C      1  0.4113300000000  0.5719790000000  0.4825820000000 1.0
C      1  0.4863190000000  0.4114710000000  0.4804550000000 1.0
C      1  0.3866990000000  0.4938590000000  0.5426200000000 1.0
C      1  0.5289570000000  0.4962650000000  0.5690930000000 1.0
C      1  0.4145490000000  0.5160790000000  0.5089370000000 1.0
C      1  0.4720420000000  0.6086120000000  0.4749710000000 1.0
C      1  0.6072250000000  0.5984420000000  0.4567510000000 1.0
C      1  0.4716510000000  0.5645960000000  0.5327420000000 1.0
C      1  0.3791030000000  0.5498290000000  0.5124660000000 1.0
C      1  0.5506960000000  0.5117760000000  0.5599300000000 1.0
C      1  0.3896410000000  0.4998990000000  0.5150140000000 1.0
C      1  0.4603140000000  0.3970780000000  0.4901400000000 1.0
C      1  0.5233220000000  0.5963670000000  0.4205590000000 1.0
C      1  0.4536230000000  0.4533660000000  0.5825520000000 1.0
C      1  0.4880710000000  0.5854220000000  0.5208520000000 1.0
C      1  0.5509880000000  0.4556340000000  0.6093410000000 1.0
C      1  0.4721800000000  0.5537650000000  0.3810620000000 1.0
C      1  0.5510750000000  0.4339700000000  0.5915910000000 1.0
C      1  0.4640470000000  0.4878980000000  0.5024840000000 1.0
C      1  0.5207470000000  0.4061290000000  0.4166320000000 1.0
C      1  0.5232690000000  0.4863820000000  0.4281730000000 1.0
C      1  0.4102400000000  0.6054140000000  0.4462190000000 1.0
C      1  0.5784610000000  0.4698130000000  0.4271880000000 1.0
C      1  0.5000120000000  0.4574660000000  0.6105460000000 1.0
C      1  0.3945690000000  0.5051360000000  0.4691820000000 1.0
C      1  0.5255980000000  0.4694320000000  0.6094260000000 1.0
C      1  0.5932020000000  0.4689940000000  0.5189990000000 1.0
C      1  0.5347240000000  0.4313260000000  0.5707050000000 1.0
C      1  0.4438790000000  0.5584270000000  0.5223430000000 1.0
C      1  0.4573190000000  0.4410320000000  0.3919900000000 1.0
C      1  0.5153180000000  0.5397990000000  0.5410280000000 1.0
C      1  0.5084210000000  0.4955060000000  0.3843040000000 1.0
C      1  0.5347290000000  0.4822350000000  0.3177880000000 1.0
C      1  0.4393290000000  0.4853030000000  0.4860200000000 1.0
C      1  0.3977810000000  0.5227730000000  0.6565260000000 1.0
C      1  0.3945810000000  0.5197230000000  0.5540460000000 1.0
C      1  0.5412320000000  0.6161190000000  0.5166980000000 1.0
C      1  0.4789980000000  0.5106000000000  0.4378790000000 1.0
C      1  0.4364900000000  0.5142040000000  0.3946850000000 1.0
C      1  0.6191770000000  0.5989990000000  0.4809120000000 1.0
C      1  0.4228770000000  0.4363140000000  0.4417560000000 1.0
C      1  0.5214350000000  0.5378130000000  0.4673370000000 1.0
C      1  0.5829230000000  0.5366530000000  0.5232110000000 1.0
C      1  0.4929230000000  0.3960130000000  0.4537950000000 1.0
C      1  0.5271990000000  0.4948240000000  0.5969920000000 1.0
C      1  0.5603300000000  0.4526550000000  0.4110770000000 1.0
C      1  0.4886160000000  0.5481230000000  0.5497860000000 1.0
C      1  0.5804780000000  0.5923070000000  0.4503440000000 1.0
C      1  0.4737270000000  0.4450060000000  0.5260640000000 1.0
C      1  0.5627660000000  0.5179420000000  0.4829800000000 1.0
C      1  0.4650670000000  0.5215970000000  0.5848560000000 1.0
C      1  0.5719050000000  0.4946020000000  0.5522470000000 1.0
C      1  0.6024280000000  0.4519700000000  0.4773820000000 1.0
C      1  0.5627210000000  0.5943740000000  0.4732000000000 1.0
C      1  0.4796280000000  0.4921970000000  0.3818400000000 1.0
C      1  0.4206020000000  0.5051610000000  0.4828770000000 1.0
C      1  0.5359080000000  0.5178140000000  0.6121610000000 1.0
C      1  0.5246010000000  0.5036760000000  0.5052840000000 1.0
C      1  0.5964190000000  0.5888970000000  0.5262070000000 1.0
C      1  0.4504080000000  0.6380940000000  0.5534450000000 1.0
C      1  0.5327470000000  0.4812710000000  0.3437540000000 1.0
C      1  0.5261100000000  0.4801720000000  0.5215780000000 1.0
C      1  0.5073970000000  0.5472650000000  0.4929230000000 1.0
C      1  0.3773850000000  0.4941590000000  0.4897580000000 1.0
C      1  0.4932270000000  0.5660070000000  0.4351810000000 1.0
C      1  0.4756180000000  0.4526930000000  0.6003970000000 1.0
C      1  0.4466090000000  0.5046820000000  0.5649100000000 1.0
C      1  0.4746970000000  0.4588830000000  0.5011090000000 1.0
C      1  0.4121460000000  0.5194640000000  0.4111110000000 1.0
C      1  0.4543770000000  0.4037580000000  0.5620470000000 1.0
C      1  0.4901940000000  0.5166370000000  0.6296930000000 1.0
C      1  0.4648520000000  0.4537690000000  0.4533970000000 1.0
C      1  0.5889850000000  0.5189200000000  0.4354650000000 1.0
C      1  0.5020950000000  0.3982730000000  0.5680850000000 1.0
C      1  0.4702990000000  0.6266190000000  0.5411260000000 1.0
C      1  0.5344690000000  0.5097400000000  0.4763940000000 1.0
C      1  0.5008790000000  0.5236770000000  0.4246340000000 1.0
C      1  0.5685680000000  0.5438500000000  0.4743840000000 1.0
C      1  0.4660770000000  0.5169590000000  0.6135320000000 1.0
C      1  0.4740100000000  0.3967710000000  0.4316500000000 1.0
C      1  0.6052410000000  0.5315570000000  0.5811230000000 1.0
C      1  0.6093810000000  0.5383420000000  0.5331600000000 1.0
C      1  0.5495670000000  0.4265040000000  0.4214850000000 1.0
C      1  0.5435860000000  0.3856860000000  0.5322540000000 1.0
C      1  0.4209890000000  0.5583540000000  0.4372180000000 1.0
C      1  0.4903400000000  0.6128020000000  0.5277250000000 1.0
C      1  0.5488400000000  0.4651320000000  0.3874500000000 1.0
C      1  0.5000450000000  0.5807150000000  0.4122150000000 1.0
C      1  0.4536260000000  0.5215160000000  0.4352850000000 1.0
C      1  0.5644830000000  0.4021200000000  0.5256020000000 1.0
C      1  0.6074630000000  0.4798790000000  0.4686020000000 1.0
C      1  0.4905950000000  0.5021810000000  0.6530820000000 1.0
C      1  0.4576080000000  0.5860130000000  0.4852810000000 1.0
C      1  0.4474600000000  0.5491500000000  0.4350030000000 1.0
C      1  0.6138080000000  0.5952540000000  0.5069040000000 1.0
C      1  0.5029320000000  0.4497650000000  0.3977590000000 1.0
C      1  0.5954900000000  0.4842280000000  0.5657070000000 1.0
C      1  0.5135280000000  0.4598490000000  0.4212510000000 1.0
C      1  0.5844880000000  0.5322790000000  0.5989040000000 1.0
C      1  0.5480590000000  0.5824630000000  0.4136190000000 1.0
C      1  0.4508460000000  0.5371380000000  0.3837160000000 1.0
C      1  0.4874550000000  0.4856780000000  0.5485590000000 1.0
C      1  0.4199580000000  0.5200410000000  0.6422720000000 1.0
C      1  0.5150260000000  0.5288210000000  0.5149730000000 1.0
C      1  0.5121270000000  0.4114490000000  0.4967560000000 1.0
C      1  0.5738100000000  0.4893060000000  0.5242470000000 1.0
C      1  0.5715410000000  0.5736700000000  0.4302260000000 1.0
C      1  0.5218570000000  0.4623580000000  0.4668430000000 1.0
C      1  0.3989040000000  0.4423650000000  0.5382780000000 1.0
C      1  0.4675140000000  0.5615440000000  0.4741310000000 1.0
C      1  0.5460030000000  0.6110200000000  0.5653790000000 1.0
C      1  0.5332820000000  0.4546040000000  0.5101320000000 1.0
C      1  0.3893010000000  0.5306430000000  0.4585990000000 1.0
C      1  0.4240420000000  0.3828620000000  0.5201020000000 1.0
C      1  0.4967230000000  0.5670550000000  0.3872430000000 1.0
C      1  0.5638960000000  0.5535580000000  0.5369960000000 1.0
C      1  0.5737110000000  0.5131070000000  0.5087110000000 1.0
C      1  0.5171940000000  0.4319350000000  0.5158710000000 1.0
C      1  0.6225260000000  0.4920520000000  0.4919520000000 1.0
C      1  0.4476890000000  0.4636160000000  0.4071830000000 1.0
C      1  0.5810930000000  0.4209640000000  0.5148150000000 1.0
C      1  0.5753720000000  0.4705380000000  0.6120520000000 1.0
C      1  0.5093240000000  0.4246230000000  0.5614570000000 1.0
C      1  0.5123720000000  0.4462530000000  0.4459060000000 1.0
C      1  0.5651910000000  0.5414990000000  0.3972590000000 1.0
C      1  0.5610990000000  0.4385940000000  0.4690680000000 1.0
C      1  0.5707100000000  0.5814240000000  0.5357620000000 1.0
C      1  0.5191010000000  0.4905730000000  0.4588070000000 1.0
C      1  0.4640100000000  0.4943230000000  0.5375340000000 1.0
C      1  0.3758940000000  0.5253880000000  0.6704460000000 1.0
C      1  0.4831750000000  0.4301330000000  0.3947960000000 1.0
C      1  0.5648770000000  0.5189460000000  0.6153290000000 1.0
C      1  0.3901880000000  0.5529040000000  0.4858760000000 1.0
C      1  0.5161830000000  0.5062780000000  0.4094650000000 1.0
C      1  0.4681880000000  0.5634340000000  0.4463280000000 1.0
C      1  0.4529280000000  0.4895200000000  0.3944750000000 1.0
C      1  0.5386480000000  0.6179210000000  0.5894070000000 1.0
C      1  0.5146300000000  0.6132600000000  0.4423940000000 1.0
C      1  0.5430860000000  0.5385100000000  0.5505680000000 1.0
C      1  0.4266460000000  0.4117200000000  0.4263420000000 1.0
C      1  0.4239960000000  0.5225380000000  0.5538300000000 1.0
C      1  0.5338630000000  0.3965180000000  0.4860970000000 1.0
C      1  0.5079430000000  0.5584070000000  0.6143210000000 1.0
C      1  0.4787560000000  0.5382820000000  0.4870470000000 1.0
C      1  0.5414220000000  0.3968420000000  0.4591110000000 1.0
C      1  0.5933480000000  0.4705570000000  0.5899970000000 1.0
C      1  0.4379390000000  0.4779790000000  0.5804050000000 1.0
C      1  0.5570330000000  0.4189210000000  0.4492000000000 1.0
C      1  0.4521190000000  0.3867920000000  0.5159220000000 1.0
C      1  0.4345170000000  0.5761840000000  0.5001800000000 1.0
C      1  0.5927940000000  0.4449160000000  0.5039960000000 1.0
C      1  0.5223340000000  0.5607300000000  0.3764610000000 1.0
C      1  0.4241360000000  0.4259990000000  0.4700400000000 1.0
C      1  0.4230870000000  0.4438280000000  0.5225050000000 1.0
C      1  0.5594530000000  0.5677940000000  0.4814020000000 1.0
C      1  0.6186330000000  0.4847020000000  0.5208300000000 1.0
C      1  0.5787930000000  0.5440780000000  0.4233770000000 1.0
C      1  0.5136700000000  0.5321450000000  0.6226010000000 1.0
C      1  0.5149590000000  0.4837750000000  0.5479840000000 1.0
C      1  0.5462710000000  0.5623540000000  0.3915910000000 1.0
C      1  0.3810960000000  0.5415640000000  0.5388510000000 1.0
C      1  0.4984970000000  0.4346930000000  0.5367880000000 1.0
C      1  0.4760550000000  0.4425340000000  0.4771430000000 1.0
C      1  0.4416700000000  0.5168390000000  0.6274360000000 1.0
C      1  0.4671210000000  0.3874980000000  0.5405830000000 1.0
C      1  0.4797320000000  0.5445840000000  0.5760720000000 1.0
C      1  0.4144410000000  0.4790140000000  0.5946630000000 1.0
C      1  0.5531950000000  0.6138400000000  0.4910520000000 1.0
C      1  0.4429640000000  0.4561450000000  0.4350780000000 1.0
C      1  0.5300130000000  0.4805400000000  0.3715370000000 1.0
C      1  0.4478220000000  0.4418880000000  0.5366950000000 1.0
C      1  0.3900750000000  0.4155380000000  0.5404900000000 1.0
C      1  0.3877270000000  0.4663290000000  0.5484110000000 1.0
C      1  0.4297650000000  0.5334130000000  0.5269540000000 1.0
C      1  0.4937870000000  0.6160280000000  0.4600210000000 1.0
C      1  0.4467920000000  0.3957410000000  0.4397410000000 1.0
C      1  0.4143320000000  0.5798540000000  0.4548240000000 1.0
C      1  0.4016270000000  0.3928720000000  0.5312050000000 1.0
C      1  0.4909930000000  0.4068560000000  0.4091110000000 1.0
C      1  0.5146870000000  0.6249780000000  0.5201660000000 1.0
C      1  0.6173390000000  0.5235090000000  0.5559020000000 1.0
C      1  0.4201830000000  0.4388110000000  0.4947160000000 1.0
C      1  0.4490360000000  0.4320220000000  0.5634740000000 1.0
C      1  0.5167770000000  0.3467700000000  0.5199880000000 1.0
C      1  0.5423950000000  0.4540000000000  0.4834150000000 1.0
C      1  0.4894310000000  0.4990730000000  0.4617130000000 1.0
C      1  0.5748420000000  0.4946780000000  0.6268940000000 1.0
C      1  0.5192730000000  0.3924740000000  0.4425730000000 1.0
C      1  0.5110630000000  0.5444960000000  0.4414000000000 1.0
END
