TITL C-247197-3123-504 -8.37155863983522e-07 125000 -590.556796844506 0 0 96 (C1) n - 1
REM
REM in /home/nfs/bkarasulu/CARBON/AIRSS/Generating-Clusters/LCBOP/Only-C1/SD-CG/FIRE-HFTN
REM
REM
REM
REM
REM
REM ./C.cell (11c1c37f851c82e70ff6c80c92926a4b)
REM AIRSS Version 0.9.1 bugfix July 2018 build 013d7b7c2542+ Fri, 06 Jul 2018 19:26:36 +0100
REM compiler GCC version 9.2.1 20190827 (Red Hat 9.2.1-1)
REM options -cpp -mtune=generic -march=x86-64 -g -O0 -fpre-include=/usr/include/finclude/math-vector-fortran.h
REM seed 1188861489 -7525458 -1440271314 -1492153510 -792926155 1239303870 -1500352752 1119207285 1108500363 1041871507 -1104683194 921703292 1227210260 153815570 27487479 -1389774017 -1753595525 916878467 -1562771995 -1345513200 -1817520202 -1533893162 2106691975 -2036651844 604906953 -817413328 -280534102 724978752 -231738224 405460864 1763991309 489250320 370961207
REM
CELL 1.54180   50.00000   50.00000   50.00000   90.00000   90.00000   90.00000
LATT -1
SFAC C  
C      1  0.4588110000000  0.5558290000000  0.5429950000000 1.0
C      1  0.4454730000000  0.4409110000000  0.4650400000000 1.0
C      1  0.5169190000000  0.4753500000000  0.4307230000000 1.0
C      1  0.5191230000000  0.5842050000000  0.5078830000000 1.0
C      1  0.5840180000000  0.4873460000000  0.5647200000000 1.0
C      1  0.5499090000000  0.5277310000000  0.4879320000000 1.0
C      1  0.4490040000000  0.4782430000000  0.4249950000000 1.0
C      1  0.6010260000000  0.5852360000000  0.5431780000000 1.0
C      1  0.5648010000000  0.4037660000000  0.5504690000000 1.0
C      1  0.4588380000000  0.4902610000000  0.5863860000000 1.0
C      1  0.4978460000000  0.4967800000000  0.4993250000000 1.0
C      1  0.5395770000000  0.5218930000000  0.5136170000000 1.0
C      1  0.5799950000000  0.3689030000000  0.5206840000000 1.0
C      1  0.4940750000000  0.4815380000000  0.3891320000000 1.0
C      1  0.5390340000000  0.4815820000000  0.5959910000000 1.0
C      1  0.4950680000000  0.4688030000000  0.4142310000000 1.0
C      1  0.4181950000000  0.4707940000000  0.4941230000000 1.0
C      1  0.5837110000000  0.5650410000000  0.5362210000000 1.0
C      1  0.5111610000000  0.5204970000000  0.5916630000000 1.0
C      1  0.4420400000000  0.5672210000000  0.5229280000000 1.0
C      1  0.4493570000000  0.4962680000000  0.4462410000000 1.0
C      1  0.5510760000000  0.4841260000000  0.4657830000000 1.0
C      1  0.4399270000000  0.5545220000000  0.4059920000000 1.0
C      1  0.4382690000000  0.5151840000000  0.4885780000000 1.0
C      1  0.4858160000000  0.5648150000000  0.5395820000000 1.0
C      1  0.5652400000000  0.5701920000000  0.5149630000000 1.0
C      1  0.4886690000000  0.4509460000000  0.5891380000000 1.0
C      1  0.4174470000000  0.5970090000000  0.3805080000000 1.0
C      1  0.5379360000000  0.5512270000000  0.4777660000000 1.0
C      1  0.5424410000000  0.5722790000000  0.4975590000000 1.0
C      1  0.4591070000000  0.5049030000000  0.4709330000000 1.0
C      1  0.5504260000000  0.4226020000000  0.5652550000000 1.0
C      1  0.5624350000000  0.4576000000000  0.4770200000000 1.0
C      1  0.5270070000000  0.4922830000000  0.4509220000000 1.0
C      1  0.5046470000000  0.5570430000000  0.5587200000000 1.0
C      1  0.4993610000000  0.4855830000000  0.5492590000000 1.0
C      1  0.5809880000000  0.4832500000000  0.5105410000000 1.0
C      1  0.4341050000000  0.5429980000000  0.4816580000000 1.0
C      1  0.4299250000000  0.4818100000000  0.4044240000000 1.0
C      1  0.5228790000000  0.4191700000000  0.5714490000000 1.0
C      1  0.5932930000000  0.4590120000000  0.5184330000000 1.0
C      1  0.5995790000000  0.4666160000000  0.5468210000000 1.0
C      1  0.5886180000000  0.5007310000000  0.4901670000000 1.0
C      1  0.5094200000000  0.5154090000000  0.4585460000000 1.0
C      1  0.4066930000000  0.6173950000000  0.3683260000000 1.0
C      1  0.5414910000000  0.4626880000000  0.5403390000000 1.0
C      1  0.4188390000000  0.4795580000000  0.5562140000000 1.0
C      1  0.5765830000000  0.4144430000000  0.5049360000000 1.0
C      1  0.4774200000000  0.5666800000000  0.4903190000000 1.0
C      1  0.4663950000000  0.4685680000000  0.5221470000000 1.0
C      1  0.4353200000000  0.4485880000000  0.4907270000000 1.0
C      1  0.5107320000000  0.5306980000000  0.5655220000000 1.0
C      1  0.4901720000000  0.4698970000000  0.5041180000000 1.0
C      1  0.4530090000000  0.4441360000000  0.5130770000000 1.0
C      1  0.4147720000000  0.4613250000000  0.3947600000000 1.0
C      1  0.4447750000000  0.5303780000000  0.3918360000000 1.0
C      1  0.4864880000000  0.5043480000000  0.3774120000000 1.0
C      1  0.4706290000000  0.4597190000000  0.4263960000000 1.0
C      1  0.5758400000000  0.5140050000000  0.5528650000000 1.0
C      1  0.4276630000000  0.5081730000000  0.3947080000000 1.0
C      1  0.4851030000000  0.4786580000000  0.5961500000000 1.0
C      1  0.4692940000000  0.5247910000000  0.3791830000000 1.0
C      1  0.5054850000000  0.4413690000000  0.5684590000000 1.0
C      1  0.4289810000000  0.5496840000000  0.4545080000000 1.0
C      1  0.5563310000000  0.4502040000000  0.5625370000000 1.0
C      1  0.5139810000000  0.5445670000000  0.4627830000000 1.0
C      1  0.4698130000000  0.4431010000000  0.4496820000000 1.0
C      1  0.5739280000000  0.3951320000000  0.5252620000000 1.0
C      1  0.4935540000000  0.5738690000000  0.5132110000000 1.0
C      1  0.4227060000000  0.4965270000000  0.5056080000000 1.0
C      1  0.4873610000000  0.5067230000000  0.4751150000000 1.0
C      1  0.4331300000000  0.4770130000000  0.5801840000000 1.0
C      1  0.5125320000000  0.5146790000000  0.5167080000000 1.0
C      1  0.5621700000000  0.4729920000000  0.5801880000000 1.0
C      1  0.5140330000000  0.4618070000000  0.5493990000000 1.0
C      1  0.4895880000000  0.5603300000000  0.4646770000000 1.0
C      1  0.4490310000000  0.5308670000000  0.5533690000000 1.0
C      1  0.5797630000000  0.4414350000000  0.4983460000000 1.0
C      1  0.5556970000000  0.4824620000000  0.5253480000000 1.0
C      1  0.4730340000000  0.5629840000000  0.4418910000000 1.0
C      1  0.4948540000000  0.4432970000000  0.4926900000000 1.0
C      1  0.4173470000000  0.4991630000000  0.5344240000000 1.0
C      1  0.4616600000000  0.5065560000000  0.5619020000000 1.0
C      1  0.5548240000000  0.5096920000000  0.5339410000000 1.0
C      1  0.4757060000000  0.4265000000000  0.5075350000000 1.0
C      1  0.4935830000000  0.4392590000000  0.4648430000000 1.0
C      1  0.5117280000000  0.4928740000000  0.5986580000000 1.0
C      1  0.6136200000000  0.5099290000000  0.4852100000000 1.0
C      1  0.4493560000000  0.5620830000000  0.4961560000000 1.0
C      1  0.5086390000000  0.5114750000000  0.5447250000000 1.0
C      1  0.4713460000000  0.4858720000000  0.5435410000000 1.0
C      1  0.4223290000000  0.5252110000000  0.5446840000000 1.0
C      1  0.4468140000000  0.5565020000000  0.4334740000000 1.0
C      1  0.5653540000000  0.5075410000000  0.4757340000000 1.0
C      1  0.5855320000000  0.5404480000000  0.5507860000000 1.0
C      1  0.4283790000000  0.5762970000000  0.3928920000000 1.0
END
