TITL C-247200-3482-119 -1399.48456788331 125000 -655.084062676066 0 0 105 (C1) n - 1
REM
REM in /home/nfs/bkarasulu/CARBON/AIRSS/Generating-Clusters/LCBOP/Only-C1/SD-CG/FIRE-HFTN
REM
REM
REM
REM
REM
REM ./C.cell (11c1c37f851c82e70ff6c80c92926a4b)
REM AIRSS Version 0.9.1 bugfix July 2018 build 013d7b7c2542+ Fri, 06 Jul 2018 19:26:36 +0100
REM compiler GCC version 9.2.1 20190827 (Red Hat 9.2.1-1)
REM options -cpp -mtune=generic -march=x86-64 -g -O0 -fpre-include=/usr/include/finclude/math-vector-fortran.h
REM seed -1866332084 -576360675 -1737752743 1326024455 -779883752 -946933375 297258678 -1300804857 1996026816 -1372013624 -1777060871 1421862315 1652558826 1345732124 1940802532 132102633 -1599492503 -687304270 2133693918 1431876292 362864063 -79861742 2137657690 -690164296 1559330404 -1744766965 -1547993092 -1836145550 -998347781 -737049103 1441410795 -1966713445 -1393501635
REM
CELL 1.54180   50.00000   50.00000   50.00000   90.00000   90.00000   90.00000
LATT -1
SFAC C  
C      1  0.4570720000000  0.5013980000000  0.4892710000000 1.0
C      1  0.5074650000000  0.5851850000000  0.4381780000000 1.0
C      1  0.5666960000000  0.4619770000000  0.4570200000000 1.0
C      1  0.5534890000000  0.5019360000000  0.5707000000000 1.0
C      1  0.4930610000000  0.5004870000000  0.5499190000000 1.0
C      1  0.5355310000000  0.5450540000000  0.5538400000000 1.0
C      1  0.5931440000000  0.5099740000000  0.5429570000000 1.0
C      1  0.4682260000000  0.4963940000000  0.4617090000000 1.0
C      1  0.4669990000000  0.4532840000000  0.4980170000000 1.0
C      1  0.4507750000000  0.5367420000000  0.5810140000000 1.0
C      1  0.5573180000000  0.4544700000000  0.5400710000000 1.0
C      1  0.5074160000000  0.5073910000000  0.5733980000000 1.0
C      1  0.5187620000000  0.5814490000000  0.4637060000000 1.0
C      1  0.5333420000000  0.4845310000000  0.5103210000000 1.0
C      1  0.4375790000000  0.5169690000000  0.5675090000000 1.0
C      1  0.5212380000000  0.4326150000000  0.5697070000000 1.0
C      1  0.4821860000000  0.5685160000000  0.4945620000000 1.0
C      1  0.5982400000000  0.5266660000000  0.4881440000000 1.0
C      1  0.5812780000000  0.4748940000000  0.4783210000000 1.0
C      1  0.4483080000000  0.4768130000000  0.5009130000000 1.0
C      1  0.4491190000000  0.5655140000000  0.5293320000000 1.0
C      1  0.5186730000000  0.4916910000000  0.4638790000000 1.0
C      1  0.4645490000000  0.5641040000000  0.4493920000000 1.0
C      1  0.4720340000000  0.4510860000000  0.5732900000000 1.0
C      1  0.4979280000000  0.4387550000000  0.4369020000000 1.0
C      1  0.5676320000000  0.4997920000000  0.5462630000000 1.0
C      1  0.6136220000000  0.6187570000000  0.5261640000000 1.0
C      1  0.4961180000000  0.4032110000000  0.4821070000000 1.0
C      1  0.4593070000000  0.5620210000000  0.4773820000000 1.0
C      1  0.5358830000000  0.4223530000000  0.4614000000000 1.0
C      1  0.6423210000000  0.5280690000000  0.5469020000000 1.0
C      1  0.5344680000000  0.4985850000000  0.4856840000000 1.0
C      1  0.5420890000000  0.4762830000000  0.5814850000000 1.0
C      1  0.4225930000000  0.4878710000000  0.5386040000000 1.0
C      1  0.4220510000000  0.5248710000000  0.4169260000000 1.0
C      1  0.5186640000000  0.3991790000000  0.5280250000000 1.0
C      1  0.4180230000000  0.5366080000000  0.4407850000000 1.0
C      1  0.5213720000000  0.5506620000000  0.4030750000000 1.0
C      1  0.4334850000000  0.5069830000000  0.4003520000000 1.0
C      1  0.4252440000000  0.4210530000000  0.5119820000000 1.0
C      1  0.4759410000000  0.5717540000000  0.5221880000000 1.0
C      1  0.5830730000000  0.5500110000000  0.4971690000000 1.0
C      1  0.4325800000000  0.5456480000000  0.5168420000000 1.0
C      1  0.4930830000000  0.4651510000000  0.4930070000000 1.0
C      1  0.6328740000000  0.6636130000000  0.5456990000000 1.0
C      1  0.4790570000000  0.5858920000000  0.4387440000000 1.0
C      1  0.4491530000000  0.4848610000000  0.3992060000000 1.0
C      1  0.5062470000000  0.4181120000000  0.4571310000000 1.0
C      1  0.5538610000000  0.4816410000000  0.5294480000000 1.0
C      1  0.6038190000000  0.5962890000000  0.5161010000000 1.0
C      1  0.5190610000000  0.3997420000000  0.5001230000000 1.0
C      1  0.4798050000000  0.5146070000000  0.4392330000000 1.0
C      1  0.4618060000000  0.4314480000000  0.4772430000000 1.0
C      1  0.5304130000000  0.5574300000000  0.5055210000000 1.0
C      1  0.4091950000000  0.4548580000000  0.4753570000000 1.0
C      1  0.4497560000000  0.4681840000000  0.5791730000000 1.0
C      1  0.3870570000000  0.4721330000000  0.4722860000000 1.0
C      1  0.4697790000000  0.5555000000000  0.5821980000000 1.0
C      1  0.4467120000000  0.4804570000000  0.4465320000000 1.0
C      1  0.5226970000000  0.5594520000000  0.5334870000000 1.0
C      1  0.4582800000000  0.4696190000000  0.4210370000000 1.0
C      1  0.5325910000000  0.5222390000000  0.5695100000000 1.0
C      1  0.4963750000000  0.4391050000000  0.5839270000000 1.0
C      1  0.4712250000000  0.5179610000000  0.5070720000000 1.0
C      1  0.4150790000000  0.5375530000000  0.4690640000000 1.0
C      1  0.5141600000000  0.5249930000000  0.4053650000000 1.0
C      1  0.4821900000000  0.5184330000000  0.5314570000000 1.0
C      1  0.4969200000000  0.5701570000000  0.5412640000000 1.0
C      1  0.4348900000000  0.4884760000000  0.5655000000000 1.0
C      1  0.4932940000000  0.4819330000000  0.4708910000000 1.0
C      1  0.4952560000000  0.4740500000000  0.5392060000000 1.0
C      1  0.4683390000000  0.5397760000000  0.4361940000000 1.0
C      1  0.5429710000000  0.4517610000000  0.5656040000000 1.0
C      1  0.6233460000000  0.6413480000000  0.5360480000000 1.0
C      1  0.5813330000000  0.5042850000000  0.4810400000000 1.0
C      1  0.4507540000000  0.4367660000000  0.4524930000000 1.0
C      1  0.4147600000000  0.4468930000000  0.5033490000000 1.0
C      1  0.5206210000000  0.4103240000000  0.5522320000000 1.0
C      1  0.5031820000000  0.5065590000000  0.4234550000000 1.0
C      1  0.5191630000000  0.4860770000000  0.4355090000000 1.0
C      1  0.4253510000000  0.4709410000000  0.5168180000000 1.0
C      1  0.5423760000000  0.4084520000000  0.4854570000000 1.0
C      1  0.5543660000000  0.5437730000000  0.4956820000000 1.0
C      1  0.5091340000000  0.4714300000000  0.5150150000000 1.0
C      1  0.4534450000000  0.4126810000000  0.5161360000000 1.0
C      1  0.5771870000000  0.4440080000000  0.5222350000000 1.0
C      1  0.4883330000000  0.5688880000000  0.5681880000000 1.0
C      1  0.4701410000000  0.4443700000000  0.4310900000000 1.0
C      1  0.3820980000000  0.4980960000000  0.4765470000000 1.0
C      1  0.5215530000000  0.4574100000000  0.4330170000000 1.0
C      1  0.5447170000000  0.4462370000000  0.4480250000000 1.0
C      1  0.5158800000000  0.4854080000000  0.5904090000000 1.0
C      1  0.6181230000000  0.5184980000000  0.5453650000000 1.0
C      1  0.5871750000000  0.4571210000000  0.5002780000000 1.0
C      1  0.4344470000000  0.5487420000000  0.4873590000000 1.0
C      1  0.4687830000000  0.4071070000000  0.4910130000000 1.0
C      1  0.5547710000000  0.5169080000000  0.4839000000000 1.0
C      1  0.4248200000000  0.5234550000000  0.5330110000000 1.0
C      1  0.4777240000000  0.4527200000000  0.5455170000000 1.0
C      1  0.5105900000000  0.5685910000000  0.4874080000000 1.0
C      1  0.4308710000000  0.4577140000000  0.4564680000000 1.0
C      1  0.3934960000000  0.5221710000000  0.4786870000000 1.0
C      1  0.5198990000000  0.5744050000000  0.4154110000000 1.0
C      1  0.4667890000000  0.4377110000000  0.5248210000000 1.0
C      1  0.5939320000000  0.5738780000000  0.5060300000000 1.0
END
