TITL C-247199-3331-622 46702.5218686263 125000 -788.788348938054 0 0 131 (C1) n - 1
REM
REM in /home/nfs/bkarasulu/CARBON/AIRSS/Generating-Clusters/LCBOP/Only-C1/SD-CG/FIRE-HFTN
REM
REM
REM
REM
REM
REM ./C.cell (11c1c37f851c82e70ff6c80c92926a4b)
REM AIRSS Version 0.9.1 bugfix July 2018 build 013d7b7c2542+ Fri, 06 Jul 2018 19:26:36 +0100
REM compiler GCC version 9.2.1 20190827 (Red Hat 9.2.1-1)
REM options -cpp -mtune=generic -march=x86-64 -g -O0 -fpre-include=/usr/include/finclude/math-vector-fortran.h
REM seed -1941007125 88769335 2125801590 1689385863 -1505582610 1985829654 1911376830 2139827981 1064124391 673449981 -1583038753 -538732841 -1279979676 -53584694 -595474051 -1159848875 1172978032 559226672 683951828 -815893183 -422896373 237491570 1796230220 -1700978174 1774071478 203869222 131740470 -1184802226 -103079203 -848494710 -306760713 209302013 -1441133093
REM
CELL 1.54180   50.00000   50.00000   50.00000   90.00000   90.00000   90.00000
LATT -1
SFAC C  
C      1  0.5790280000000  0.5055690000000  0.5541840000000 1.0
C      1  0.4923860000000  0.4894980000000  0.5103050000000 1.0
C      1  0.5785600000000  0.4045110000000  0.5716920000000 1.0
C      1  0.4503240000000  0.5142810000000  0.6020480000000 1.0
C      1  0.4324760000000  0.4979760000000  0.5853330000000 1.0
C      1  0.5581240000000  0.4003130000000  0.5541580000000 1.0
C      1  0.4475220000000  0.5634610000000  0.4308840000000 1.0
C      1  0.4302870000000  0.5945390000000  0.4994230000000 1.0
C      1  0.4982800000000  0.5150260000000  0.5267900000000 1.0
C      1  0.4415890000000  0.3863570000000  0.4933160000000 1.0
C      1  0.4535650000000  0.5377820000000  0.5033520000000 1.0
C      1  0.4694160000000  0.4769150000000  0.4092960000000 1.0
C      1  0.4453500000000  0.4549200000000  0.5578100000000 1.0
C      1  0.4445880000000  0.5976320000000  0.5444410000000 1.0
C      1  0.5914740000000  0.4843540000000  0.5097240000000 1.0
C      1  0.5097510000000  0.4176070000000  0.5170570000000 1.0
C      1  0.4743450000000  0.5475040000000  0.4864660000000 1.0
C      1  0.5748470000000  0.5280680000000  0.5365630000000 1.0
C      1  0.5615570000000  0.5996700000000  0.4219100000000 1.0
C      1  0.5117030000000  0.4002710000000  0.5398410000000 1.0
C      1  0.5311660000000  0.4059920000000  0.5604300000000 1.0
C      1  0.4981220000000  0.4333200000000  0.4314310000000 1.0
C      1  0.5964150000000  0.5310130000000  0.5185440000000 1.0
C      1  0.5078070000000  0.4606530000000  0.4396130000000 1.0
C      1  0.5349270000000  0.4049830000000  0.4913610000000 1.0
C      1  0.4479300000000  0.4927550000000  0.4828600000000 1.0
C      1  0.4057000000000  0.5310130000000  0.4667630000000 1.0
C      1  0.5745510000000  0.5605680000000  0.4849250000000 1.0
C      1  0.5680910000000  0.4987420000000  0.4697980000000 1.0
C      1  0.5160310000000  0.5247320000000  0.4441090000000 1.0
C      1  0.5561820000000  0.4352350000000  0.4471100000000 1.0
C      1  0.4170770000000  0.5684790000000  0.5006560000000 1.0
C      1  0.4853950000000  0.5301020000000  0.4096010000000 1.0
C      1  0.4732770000000  0.4108710000000  0.5672350000000 1.0
C      1  0.5440420000000  0.4548520000000  0.5132150000000 1.0
C      1  0.4733110000000  0.4794810000000  0.4899880000000 1.0
C      1  0.4552360000000  0.4996830000000  0.5321050000000 1.0
C      1  0.5491100000000  0.5809220000000  0.4387000000000 1.0
C      1  0.4917120000000  0.4188430000000  0.5877600000000 1.0
C      1  0.4701340000000  0.5322760000000  0.4627130000000 1.0
C      1  0.5762200000000  0.4771170000000  0.4859700000000 1.0
C      1  0.4772820000000  0.5538440000000  0.5902710000000 1.0
C      1  0.4261750000000  0.4569160000000  0.4545530000000 1.0
C      1  0.4240490000000  0.4750870000000  0.4762600000000 1.0
C      1  0.5705490000000  0.6166750000000  0.4043270000000 1.0
C      1  0.6069220000000  0.5083770000000  0.5073730000000 1.0
C      1  0.4305780000000  0.5685090000000  0.4518070000000 1.0
C      1  0.5770250000000  0.5369260000000  0.4425210000000 1.0
C      1  0.4538660000000  0.5404640000000  0.5519050000000 1.0
C      1  0.4194130000000  0.5829900000000  0.5474220000000 1.0
C      1  0.4730720000000  0.5221310000000  0.5407820000000 1.0
C      1  0.5012200000000  0.5219180000000  0.6098130000000 1.0
C      1  0.4915600000000  0.4834590000000  0.4274910000000 1.0
C      1  0.4453130000000  0.6076530000000  0.5179410000000 1.0
C      1  0.5175530000000  0.6035940000000  0.4813310000000 1.0
C      1  0.5509400000000  0.3848990000000  0.5029950000000 1.0
C      1  0.4868770000000  0.3907760000000  0.5509600000000 1.0
C      1  0.5043230000000  0.5874130000000  0.5016200000000 1.0
C      1  0.4665310000000  0.5858590000000  0.5579850000000 1.0
C      1  0.4414460000000  0.4686160000000  0.5845190000000 1.0
C      1  0.4947850000000  0.5116620000000  0.4308510000000 1.0
C      1  0.5541540000000  0.5860840000000  0.5531080000000 1.0
C      1  0.5545630000000  0.5528670000000  0.4331840000000 1.0
C      1  0.5323420000000  0.5226350000000  0.3999570000000 1.0
C      1  0.5216100000000  0.5375690000000  0.5907490000000 1.0
C      1  0.5784280000000  0.4822190000000  0.5362060000000 1.0
C      1  0.5047310000000  0.5604120000000  0.5786800000000 1.0
C      1  0.5234850000000  0.5251170000000  0.4708350000000 1.0
C      1  0.4658190000000  0.4871200000000  0.3833790000000 1.0
C      1  0.5447700000000  0.5631750000000  0.5446620000000 1.0
C      1  0.4985760000000  0.5610390000000  0.4923020000000 1.0
C      1  0.5521860000000  0.4717420000000  0.5351080000000 1.0
C      1  0.5261770000000  0.5158190000000  0.5375420000000 1.0
C      1  0.4767400000000  0.4998280000000  0.3624440000000 1.0
C      1  0.4653120000000  0.5495530000000  0.4155220000000 1.0
C      1  0.5160420000000  0.4449360000000  0.5124950000000 1.0
C      1  0.4743880000000  0.5292750000000  0.6046210000000 1.0
C      1  0.4252350000000  0.5359850000000  0.5467490000000 1.0
C      1  0.5892590000000  0.5495710000000  0.4649400000000 1.0
C      1  0.4966230000000  0.5180390000000  0.3636120000000 1.0
C      1  0.4447980000000  0.5103970000000  0.5075250000000 1.0
C      1  0.4595370000000  0.4295750000000  0.5498510000000 1.0
C      1  0.5472720000000  0.5362970000000  0.5373320000000 1.0
C      1  0.5188500000000  0.4162070000000  0.5841300000000 1.0
C      1  0.4764690000000  0.4318400000000  0.4128940000000 1.0
C      1  0.5430130000000  0.5075190000000  0.4784570000000 1.0
C      1  0.5624190000000  0.3902230000000  0.5281820000000 1.0
C      1  0.5018430000000  0.4666470000000  0.5262700000000 1.0
C      1  0.4612850000000  0.4763300000000  0.5460530000000 1.0
C      1  0.5083870000000  0.4741020000000  0.5532770000000 1.0
C      1  0.5549080000000  0.3609150000000  0.4905390000000 1.0
C      1  0.4770680000000  0.4517640000000  0.4846620000000 1.0
C      1  0.4574300000000  0.4523750000000  0.4143520000000 1.0
C      1  0.5486420000000  0.5593030000000  0.4921880000000 1.0
C      1  0.5167560000000  0.6309590000000  0.4832790000000 1.0
C      1  0.3989900000000  0.4861320000000  0.4843690000000 1.0
C      1  0.5056450000000  0.5901300000000  0.5300800000000 1.0
C      1  0.5227760000000  0.4601990000000  0.4656600000000 1.0
C      1  0.4963150000000  0.5821040000000  0.5559330000000 1.0
C      1  0.5475800000000  0.5217560000000  0.5957750000000 1.0
C      1  0.4593390000000  0.5609160000000  0.5701110000000 1.0
C      1  0.4842320000000  0.4771110000000  0.5666000000000 1.0
C      1  0.5490890000000  0.4990920000000  0.4014640000000 1.0
C      1  0.5432370000000  0.5073930000000  0.6208410000000 1.0
C      1  0.4708360000000  0.4710480000000  0.5918710000000 1.0
C      1  0.5166930000000  0.5063650000000  0.6276620000000 1.0
C      1  0.5453390000000  0.4181050000000  0.4668070000000 1.0
C      1  0.3906750000000  0.5118380000000  0.4810080000000 1.0
C      1  0.4566600000000  0.4064200000000  0.4826520000000 1.0
C      1  0.4480040000000  0.4160360000000  0.4372370000000 1.0
C      1  0.5639540000000  0.4873620000000  0.4235840000000 1.0
C      1  0.4247720000000  0.5187780000000  0.4488000000000 1.0
C      1  0.4717670000000  0.4257790000000  0.5233140000000 1.0
C      1  0.5334730000000  0.5367690000000  0.4249180000000 1.0
C      1  0.5618870000000  0.4586110000000  0.4324390000000 1.0
C      1  0.5524910000000  0.4609320000000  0.4869960000000 1.0
C      1  0.4502910000000  0.5120940000000  0.4595210000000 1.0
C      1  0.4640200000000  0.4296500000000  0.4972040000000 1.0
C      1  0.5323190000000  0.4886330000000  0.5483000000000 1.0
C      1  0.5054070000000  0.4488640000000  0.4844140000000 1.0
C      1  0.4147880000000  0.5591400000000  0.5301510000000 1.0
C      1  0.4658800000000  0.4059150000000  0.4560270000000 1.0
C      1  0.5230720000000  0.5482320000000  0.4862590000000 1.0
C      1  0.5684490000000  0.5110620000000  0.5797900000000 1.0
C      1  0.4383830000000  0.4422580000000  0.4340530000000 1.0
C      1  0.5061130000000  0.5272630000000  0.3883650000000 1.0
C      1  0.4933400000000  0.4114760000000  0.4497420000000 1.0
C      1  0.5742130000000  0.5072040000000  0.4432830000000 1.0
C      1  0.5314290000000  0.5914010000000  0.4590080000000 1.0
C      1  0.4178960000000  0.5135840000000  0.5647260000000 1.0
C      1  0.4144400000000  0.5572570000000  0.4737480000000 1.0
END
