TITL C-247198-3593-161 9.96043910445951 125000 -399.513948379795 0 0 69 (C1) n - 1
REM
REM in /home/nfs/bkarasulu/CARBON/AIRSS/Generating-Clusters/LCBOP/Only-C1/SD-CG/FIRE-HFTN
REM
REM
REM
REM
REM
REM ./C.cell (11c1c37f851c82e70ff6c80c92926a4b)
REM AIRSS Version 0.9.1 bugfix July 2018 build 013d7b7c2542+ Fri, 06 Jul 2018 19:26:36 +0100
REM compiler GCC version 9.2.1 20190827 (Red Hat 9.2.1-1)
REM options -cpp -mtune=generic -march=x86-64 -g -O0 -fpre-include=/usr/include/finclude/math-vector-fortran.h
REM seed 389391630 1512694999 1570055506 -1114226684 373601556 1675312778 -494813191 -12313530 2096184159 2093267387 1037008131 -343990685 1484953807 -923369411 1932663289 -1077333216 -1895695275 -366245149 -361157531 -1658350242 -614782648 -727822144 -365600178 -1830770366 214975129 -839078781 -1054376935 -1937997075 930269378 440021540 -195183039 581438413 2049036788
REM
CELL 1.54180   50.00000   50.00000   50.00000   90.00000   90.00000   90.00000
LATT -1
SFAC C  
C      1  0.5319100000000  0.5222420000000  0.4889250000000 1.0
C      1  0.5097160000000  0.4356280000000  0.5529280000000 1.0
C      1  0.5458850000000  0.5497390000000  0.5424940000000 1.0
C      1  0.4548260000000  0.4572810000000  0.5098160000000 1.0
C      1  0.4828930000000  0.5275390000000  0.4658360000000 1.0
C      1  0.4808420000000  0.5567980000000  0.4087760000000 1.0
C      1  0.5016160000000  0.5459070000000  0.4569860000000 1.0
C      1  0.5526930000000  0.5536800000000  0.5698540000000 1.0
C      1  0.5570890000000  0.5198220000000  0.5029340000000 1.0
C      1  0.5022580000000  0.4659850000000  0.5869060000000 1.0
C      1  0.4745770000000  0.4978270000000  0.4034790000000 1.0
C      1  0.4884560000000  0.4401220000000  0.4765400000000 1.0
C      1  0.5036820000000  0.4445260000000  0.4520130000000 1.0
C      1  0.5752780000000  0.5026630000000  0.4899080000000 1.0
C      1  0.4398320000000  0.5326190000000  0.4315460000000 1.0
C      1  0.5076790000000  0.5582260000000  0.4128420000000 1.0
C      1  0.4816970000000  0.4999520000000  0.4713500000000 1.0
C      1  0.4647160000000  0.4368810000000  0.5274540000000 1.0
C      1  0.5573910000000  0.5058790000000  0.4364710000000 1.0
C      1  0.5103210000000  0.4722160000000  0.5008220000000 1.0
C      1  0.5031310000000  0.5840030000000  0.5362390000000 1.0
C      1  0.4569360000000  0.5478590000000  0.4174250000000 1.0
C      1  0.5251420000000  0.4647580000000  0.4564300000000 1.0
C      1  0.5069980000000  0.4440620000000  0.4984060000000 1.0
C      1  0.5258160000000  0.5686990000000  0.5329250000000 1.0
C      1  0.5054000000000  0.4647460000000  0.4096350000000 1.0
C      1  0.5236630000000  0.4239110000000  0.5059490000000 1.0
C      1  0.5224730000000  0.5492210000000  0.4358690000000 1.0
C      1  0.5213320000000  0.4579400000000  0.5669240000000 1.0
C      1  0.4950600000000  0.4888400000000  0.5452230000000 1.0
C      1  0.4661600000000  0.5678520000000  0.5661260000000 1.0
C      1  0.5240300000000  0.5094520000000  0.4638750000000 1.0
C      1  0.4858500000000  0.4289940000000  0.5421400000000 1.0
C      1  0.4424260000000  0.4855370000000  0.5534480000000 1.0
C      1  0.5625450000000  0.4543170000000  0.5408590000000 1.0
C      1  0.4334260000000  0.4872770000000  0.4572840000000 1.0
C      1  0.4422390000000  0.5489680000000  0.5312240000000 1.0
C      1  0.5123700000000  0.5178070000000  0.5097620000000 1.0
C      1  0.5492530000000  0.4997080000000  0.5486570000000 1.0
C      1  0.4498360000000  0.4639240000000  0.4570000000000 1.0
C      1  0.4477870000000  0.4825460000000  0.5237180000000 1.0
C      1  0.5707770000000  0.4780310000000  0.4759210000000 1.0
C      1  0.5139410000000  0.5066840000000  0.4337530000000 1.0
C      1  0.5073100000000  0.4917370000000  0.5204910000000 1.0
C      1  0.4518090000000  0.4661370000000  0.5727590000000 1.0
C      1  0.4621510000000  0.4592130000000  0.4308170000000 1.0
C      1  0.5482300000000  0.5330840000000  0.4342350000000 1.0
C      1  0.5731650000000  0.4479890000000  0.5171190000000 1.0
C      1  0.4781530000000  0.5878650000000  0.5482000000000 1.0
C      1  0.5445530000000  0.4715440000000  0.5546900000000 1.0
C      1  0.4443620000000  0.5475440000000  0.5600840000000 1.0
C      1  0.4892710000000  0.5507150000000  0.5692340000000 1.0
C      1  0.4517670000000  0.5120480000000  0.5634770000000 1.0
C      1  0.5086100000000  0.5512340000000  0.5891090000000 1.0
C      1  0.4653740000000  0.5335260000000  0.5225820000000 1.0
C      1  0.5087570000000  0.4855100000000  0.4739610000000 1.0
C      1  0.4560100000000  0.4788640000000  0.4105770000000 1.0
C      1  0.5531230000000  0.4793540000000  0.4522670000000 1.0
C      1  0.4862680000000  0.5339000000000  0.5454040000000 1.0
C      1  0.4749670000000  0.4638460000000  0.5870990000000 1.0
C      1  0.5017210000000  0.4933950000000  0.4117120000000 1.0
C      1  0.5353260000000  0.5533790000000  0.5904730000000 1.0
C      1  0.4806590000000  0.5087250000000  0.5580610000000 1.0
C      1  0.4312010000000  0.5118960000000  0.4464070000000 1.0
C      1  0.5536190000000  0.5234780000000  0.5318480000000 1.0
C      1  0.4895110000000  0.4492930000000  0.4280880000000 1.0
C      1  0.4617430000000  0.4524350000000  0.4809670000000 1.0
C      1  0.5754530000000  0.4549670000000  0.4913140000000 1.0
C      1  0.4569370000000  0.5076530000000  0.5123560000000 1.0
END
