TITL C-247201-3759-19 4.16599604307401 125000 -213.83699928502 0 0 37 (C1) n - 1
REM
REM in /home/nfs/bkarasulu/CARBON/AIRSS/Generating-Clusters/LCBOP/Only-C1/SD-CG/FIRE-HFTN
REM
REM
REM
REM
REM
REM ./C.cell (11c1c37f851c82e70ff6c80c92926a4b)
REM AIRSS Version 0.9.1 bugfix July 2018 build 013d7b7c2542+ Fri, 06 Jul 2018 19:26:36 +0100
REM compiler GCC version 9.2.1 20190827 (Red Hat 9.2.1-1)
REM options -cpp -mtune=generic -march=x86-64 -g -O0 -fpre-include=/usr/include/finclude/math-vector-fortran.h
REM seed -1360105866 -1885526738 -1004106863 -467756143 -723563115 -1593528478 -1680177746 -1326537685 1878340356 -145703361 -435170394 -512595598 1253206639 -1910447349 -1028636367 -565852194 624777404 1260990802 -247915361 1618083109 1221634921 -1448274505 -795878992 233461868 -422367264 1841613174 -962586465 -738426954 -865921124 222143185 1234385641 1272133864 388522666
REM
CELL 1.54180   50.00000   50.00000   50.00000   90.00000   90.00000   90.00000
LATT -1
SFAC C  
C      1  0.4632450000000  0.5268030000000  0.4469580000000 1.0
C      1  0.4954470000000  0.4227640000000  0.4433550000000 1.0
C      1  0.4167750000000  0.5488670000000  0.6056170000000 1.0
C      1  0.4257880000000  0.5409730000000  0.5590620000000 1.0
C      1  0.4888460000000  0.5198800000000  0.4386660000000 1.0
C      1  0.5264450000000  0.4548480000000  0.4246270000000 1.0
C      1  0.5372900000000  0.4525620000000  0.3989930000000 1.0
C      1  0.5356940000000  0.5234520000000  0.4503450000000 1.0
C      1  0.5539140000000  0.4832800000000  0.4718130000000 1.0
C      1  0.4455200000000  0.6005690000000  0.5803660000000 1.0
C      1  0.5118400000000  0.5353530000000  0.4450020000000 1.0
C      1  0.4516760000000  0.5740950000000  0.5835510000000 1.0
C      1  0.4606110000000  0.4649970000000  0.5194560000000 1.0
C      1  0.4335570000000  0.5216560000000  0.4890880000000 1.0
C      1  0.5538210000000  0.4743100000000  0.4983320000000 1.0
C      1  0.5476160000000  0.4504780000000  0.3751570000000 1.0
C      1  0.4836590000000  0.4520360000000  0.5171180000000 1.0
C      1  0.5277530000000  0.5485020000000  0.5824340000000 1.0
C      1  0.5630660000000  0.4059590000000  0.4624610000000 1.0
C      1  0.5343260000000  0.4557890000000  0.5061730000000 1.0
C      1  0.4440380000000  0.5271490000000  0.4653130000000 1.0
C      1  0.4258570000000  0.5266150000000  0.5367960000000 1.0
C      1  0.5095750000000  0.4485690000000  0.5125140000000 1.0
C      1  0.5211520000000  0.4314920000000  0.4399420000000 1.0
C      1  0.5035240000000  0.5582220000000  0.5871010000000 1.0
C      1  0.4333690000000  0.5109550000000  0.5149420000000 1.0
C      1  0.5425510000000  0.4176250000000  0.4514060000000 1.0
C      1  0.5646240000000  0.5206280000000  0.5576570000000 1.0
C      1  0.5719900000000  0.5037080000000  0.5385810000000 1.0
C      1  0.4432920000000  0.4850940000000  0.5189770000000 1.0
C      1  0.5689170000000  0.4873990000000  0.5178620000000 1.0
C      1  0.4781880000000  0.5660020000000  0.5872840000000 1.0
C      1  0.5206580000000  0.4802860000000  0.4353390000000 1.0
C      1  0.5395370000000  0.4952680000000  0.4511600000000 1.0
C      1  0.4957920000000  0.4934020000000  0.4309450000000 1.0
C      1  0.5489610000000  0.5359420000000  0.5726290000000 1.0
C      1  0.4310840000000  0.5544710000000  0.5829780000000 1.0
END
