TITL C-247197-3123-715 -6.22201358122075e-07 125000 -324.375873717976 0 0 54 (C1) n - 1
REM
REM in /home/nfs/bkarasulu/CARBON/AIRSS/Generating-Clusters/LCBOP/Only-C1/SD-CG/FIRE-HFTN
REM
REM
REM
REM
REM
REM ./C.cell (11c1c37f851c82e70ff6c80c92926a4b)
REM AIRSS Version 0.9.1 bugfix July 2018 build 013d7b7c2542+ Fri, 06 Jul 2018 19:26:36 +0100
REM compiler GCC version 9.2.1 20190827 (Red Hat 9.2.1-1)
REM options -cpp -mtune=generic -march=x86-64 -g -O0 -fpre-include=/usr/include/finclude/math-vector-fortran.h
REM seed -180535544 1021131109 -357026778 -1369516539 -1360961367 1646482586 -1418707177 -1707419599 -153358573 -454869818 -1950127465 732684260 -1346000102 -1823624661 -804822941 1235758396 -1987842330 -1953351215 641751983 635816635 -1809195235 56928333 -1097910791 -1815196481 -1206474072 1272892147 -231395495 -1163732041 -1681432383 29286647 1042051604 -477373179 1835584907
REM
CELL 1.54180   50.00000   50.00000   50.00000   90.00000   90.00000   90.00000
LATT -1
SFAC C  
C      1  0.4310870000000  0.4705120000000  0.4503810000000 1.0
C      1  0.4409700000000  0.4966040000000  0.4486370000000 1.0
C      1  0.4868700000000  0.4743000000000  0.4899310000000 1.0
C      1  0.5073870000000  0.4886880000000  0.5798080000000 1.0
C      1  0.5708610000000  0.4749300000000  0.4568440000000 1.0
C      1  0.5519030000000  0.5118350000000  0.4976440000000 1.0
C      1  0.4565840000000  0.5140800000000  0.5218190000000 1.0
C      1  0.5292430000000  0.5554980000000  0.5530640000000 1.0
C      1  0.5609690000000  0.4656370000000  0.5546910000000 1.0
C      1  0.4556260000000  0.4377880000000  0.4780680000000 1.0
C      1  0.4469380000000  0.5351380000000  0.4760430000000 1.0
C      1  0.4281240000000  0.5200110000000  0.4596950000000 1.0
C      1  0.5576300000000  0.4939830000000  0.4434180000000 1.0
C      1  0.5059310000000  0.5155020000000  0.5717230000000 1.0
C      1  0.4677400000000  0.4130300000000  0.4735980000000 1.0
C      1  0.4108520000000  0.4277590000000  0.4611000000000 1.0
C      1  0.4619340000000  0.5180360000000  0.4941720000000 1.0
C      1  0.5555900000000  0.5184810000000  0.5609040000000 1.0
C      1  0.5661120000000  0.5328690000000  0.5378740000000 1.0
C      1  0.5112180000000  0.5555180000000  0.4546400000000 1.0
C      1  0.4324640000000  0.4453690000000  0.4629420000000 1.0
C      1  0.5426870000000  0.5162940000000  0.4428860000000 1.0
C      1  0.4619340000000  0.5559240000000  0.4628450000000 1.0
C      1  0.5289180000000  0.5818100000000  0.4917220000000 1.0
C      1  0.4518770000000  0.4633820000000  0.5201770000000 1.0
C      1  0.4631810000000  0.5330190000000  0.5418830000000 1.0
C      1  0.4542630000000  0.5821050000000  0.4635680000000 1.0
C      1  0.4665390000000  0.4556100000000  0.4973110000000 1.0
C      1  0.5736550000000  0.4572890000000  0.5309820000000 1.0
C      1  0.4851030000000  0.5466190000000  0.4481740000000 1.0
C      1  0.4767470000000  0.4981760000000  0.4788420000000 1.0
C      1  0.5787310000000  0.4617890000000  0.4788220000000 1.0
C      1  0.4818800000000  0.5256760000000  0.5614900000000 1.0
C      1  0.5405170000000  0.4500780000000  0.5671720000000 1.0
C      1  0.5186590000000  0.4646590000000  0.5772480000000 1.0
C      1  0.5480200000000  0.5554810000000  0.5310990000000 1.0
C      1  0.4789410000000  0.3899010000000  0.4692720000000 1.0
C      1  0.5318950000000  0.5361290000000  0.4596750000000 1.0
C      1  0.5358720000000  0.4889450000000  0.4985540000000 1.0
C      1  0.4021960000000  0.5271190000000  0.4555310000000 1.0
C      1  0.5638780000000  0.4920130000000  0.5643460000000 1.0
C      1  0.5729320000000  0.5165810000000  0.5158550000000 1.0
C      1  0.5408320000000  0.5592440000000  0.5038690000000 1.0
C      1  0.5155760000000  0.5802240000000  0.4680800000000 1.0
C      1  0.3910430000000  0.4108890000000  0.4596320000000 1.0
C      1  0.5296900000000  0.5303720000000  0.5677090000000 1.0
C      1  0.5421870000000  0.4229470000000  0.5694420000000 1.0
C      1  0.4476210000000  0.4883290000000  0.5293800000000 1.0
C      1  0.5416900000000  0.5359010000000  0.4865480000000 1.0
C      1  0.4821050000000  0.5206960000000  0.4366610000000 1.0
C      1  0.4515820000000  0.5577690000000  0.5421400000000 1.0
C      1  0.5795620000000  0.4558620000000  0.5049250000000 1.0
C      1  0.5139630000000  0.4739920000000  0.4963430000000 1.0
C      1  0.4696910000000  0.4996060000000  0.4508210000000 1.0
END
