TITL C-247202-1916-105 0.207209378350559 125000 -197.8720422971 0 0 34 (C1) n - 1
REM
REM in /home/nfs/bkarasulu/CARBON/AIRSS/Generating-Clusters/LCBOP/Only-C1/SD-CG/FIRE-HFTN
REM
REM
REM
REM
REM
REM ./C.cell (11c1c37f851c82e70ff6c80c92926a4b)
REM AIRSS Version 0.9.1 bugfix July 2018 build 013d7b7c2542+ Fri, 06 Jul 2018 19:26:36 +0100
REM compiler GCC version 9.2.1 20190827 (Red Hat 9.2.1-1)
REM options -cpp -mtune=generic -march=x86-64 -g -O0 -fpre-include=/usr/include/finclude/math-vector-fortran.h
REM seed 891716900 -1741953892 -2046419242 -508692883 1273464328 615356179 933863189 954851501 -287895317 916237681 1904158181 1987803194 1052064696 -1989969969 -1642118654 -748809133 1821803232 235170772 1528285354 1206792780 1709068410 -891060266 1779243084 1148108771 1112608404 125509762 1431174929 2086899511 -2103227951 -1843758956 1092385105 -213271038 -1366213441
REM
CELL 1.54180   50.00000   50.00000   50.00000   90.00000   90.00000   90.00000
LATT -1
SFAC C  
C      1  0.5455240000000  0.5616780000000  0.4307850000000 1.0
C      1  0.5181280000000  0.4627280000000  0.4196940000000 1.0
C      1  0.5327120000000  0.5581790000000  0.4537430000000 1.0
C      1  0.5587730000000  0.5372930000000  0.3873820000000 1.0
C      1  0.5449830000000  0.4883690000000  0.3816780000000 1.0
C      1  0.4991630000000  0.5429860000000  0.5560660000000 1.0
C      1  0.4530270000000  0.5015400000000  0.6002110000000 1.0
C      1  0.4443770000000  0.5151130000000  0.6207080000000 1.0
C      1  0.5140830000000  0.4837920000000  0.5721600000000 1.0
C      1  0.5022300000000  0.5634820000000  0.4910040000000 1.0
C      1  0.4074360000000  0.4069200000000  0.5340750000000 1.0
C      1  0.5175280000000  0.5057820000000  0.5326500000000 1.0
C      1  0.4210000000000  0.4268750000000  0.5450470000000 1.0
C      1  0.5550390000000  0.5127010000000  0.3779680000000 1.0
C      1  0.5550930000000  0.5548990000000  0.4069560000000 1.0
C      1  0.5074300000000  0.4370260000000  0.4215210000000 1.0
C      1  0.4932030000000  0.5160420000000  0.5470530000000 1.0
C      1  0.3940950000000  0.3872920000000  0.5232850000000 1.0
C      1  0.4345610000000  0.4468260000000  0.5560140000000 1.0
C      1  0.5153480000000  0.4808350000000  0.4408730000000 1.0
C      1  0.5318150000000  0.4708460000000  0.3966780000000 1.0
C      1  0.4974270000000  0.4130230000000  0.4232560000000 1.0
C      1  0.5340730000000  0.4986630000000  0.5565490000000 1.0
C      1  0.4629260000000  0.4877060000000  0.5780460000000 1.0
C      1  0.4901900000000  0.5642610000000  0.5403120000000 1.0
C      1  0.4481670000000  0.4667570000000  0.5669310000000 1.0
C      1  0.4875560000000  0.4948720000000  0.5669870000000 1.0
C      1  0.5242460000000  0.5438520000000  0.5702850000000 1.0
C      1  0.5178310000000  0.5469800000000  0.4745850000000 1.0
C      1  0.5423880000000  0.5230780000000  0.5693440000000 1.0
C      1  0.4921290000000  0.5709070000000  0.5144940000000 1.0
C      1  0.5223120000000  0.5091870000000  0.5056490000000 1.0
C      1  0.5162180000000  0.5006510000000  0.4584710000000 1.0
C      1  0.5189900000000  0.5188590000000  0.4795410000000 1.0
END
