TITL C-247199-3331-573 6226.36038458807 125000 -891.410623030379 0 0 148 (C1) n - 1
REM
REM in /home/nfs/bkarasulu/CARBON/AIRSS/Generating-Clusters/LCBOP/Only-C1/SD-CG/FIRE-HFTN
REM
REM
REM
REM
REM
REM ./C.cell (11c1c37f851c82e70ff6c80c92926a4b)
REM AIRSS Version 0.9.1 bugfix July 2018 build 013d7b7c2542+ Fri, 06 Jul 2018 19:26:36 +0100
REM compiler GCC version 9.2.1 20190827 (Red Hat 9.2.1-1)
REM options -cpp -mtune=generic -march=x86-64 -g -O0 -fpre-include=/usr/include/finclude/math-vector-fortran.h
REM seed -1676433746 947849665 1500574146 -160983145 -148807038 -1661104890 2050032319 -1487089396 -227929310 -1021914723 -829787220 447011653 824589934 -1842223259 339857223 -1200717161 -837633281 -741811239 -210909417 -944109409 -1014762833 251757417 -965199059 744473235 1729276769 875100559 -427352244 994954272 1105407555 -1148699214 -188478451 -1112816796 -2140043457
REM
CELL 1.54180   50.00000   50.00000   50.00000   90.00000   90.00000   90.00000
LATT -1
SFAC C  
C      1  0.4662500000000  0.3668610000000  0.4052110000000 1.0
C      1  0.5119630000000  0.3918980000000  0.4602860000000 1.0
C      1  0.4245870000000  0.4314800000000  0.4888440000000 1.0
C      1  0.4729060000000  0.4908250000000  0.5495080000000 1.0
C      1  0.4426510000000  0.3295590000000  0.4171440000000 1.0
C      1  0.4068060000000  0.5900580000000  0.4249790000000 1.0
C      1  0.5200390000000  0.4685350000000  0.5101720000000 1.0
C      1  0.5501240000000  0.5236220000000  0.4791860000000 1.0
C      1  0.5093310000000  0.5250070000000  0.5052470000000 1.0
C      1  0.5737610000000  0.5140440000000  0.4693920000000 1.0
C      1  0.6061810000000  0.5446570000000  0.4558400000000 1.0
C      1  0.4394330000000  0.5273320000000  0.4713410000000 1.0
C      1  0.4213690000000  0.5010120000000  0.4225080000000 1.0
C      1  0.5943230000000  0.4548220000000  0.4516340000000 1.0
C      1  0.4126820000000  0.5445340000000  0.5061130000000 1.0
C      1  0.5863690000000  0.4924330000000  0.4809590000000 1.0
C      1  0.5617890000000  0.5666830000000  0.5645830000000 1.0
C      1  0.4438830000000  0.4222580000000  0.5333010000000 1.0
C      1  0.5710320000000  0.5945860000000  0.4538020000000 1.0
C      1  0.4209360000000  0.4709660000000  0.5691650000000 1.0
C      1  0.5198990000000  0.4046960000000  0.4380320000000 1.0
C      1  0.4686380000000  0.4919490000000  0.4070940000000 1.0
C      1  0.4073560000000  0.4920480000000  0.5591530000000 1.0
C      1  0.4360320000000  0.5933440000000  0.4881900000000 1.0
C      1  0.5069350000000  0.3923060000000  0.4864670000000 1.0
C      1  0.4349590000000  0.6250810000000  0.5544380000000 1.0
C      1  0.4939460000000  0.4800010000000  0.5085090000000 1.0
C      1  0.4564540000000  0.3241860000000  0.3934090000000 1.0
C      1  0.5690350000000  0.5562900000000  0.5394840000000 1.0
C      1  0.5288050000000  0.5502770000000  0.5988580000000 1.0
C      1  0.5044080000000  0.5869270000000  0.5467980000000 1.0
C      1  0.5708280000000  0.5820970000000  0.4300020000000 1.0
C      1  0.4894740000000  0.5063150000000  0.5010820000000 1.0
C      1  0.6293420000000  0.5310060000000  0.5465840000000 1.0
C      1  0.4864030000000  0.4463470000000  0.4518800000000 1.0
C      1  0.5138820000000  0.4502810000000  0.4474200000000 1.0
C      1  0.5805990000000  0.4459490000000  0.4766400000000 1.0
C      1  0.4727510000000  0.3850080000000  0.5197700000000 1.0
C      1  0.4758460000000  0.5647840000000  0.4787350000000 1.0
C      1  0.5305390000000  0.5848460000000  0.5023180000000 1.0
C      1  0.4386960000000  0.3702360000000  0.4484100000000 1.0
C      1  0.4563160000000  0.5359380000000  0.4231900000000 1.0
C      1  0.5718460000000  0.5361220000000  0.4053700000000 1.0
C      1  0.5696410000000  0.4125620000000  0.4460200000000 1.0
C      1  0.4757630000000  0.5090140000000  0.6071360000000 1.0
C      1  0.5207230000000  0.4831400000000  0.5587140000000 1.0
C      1  0.4537480000000  0.5111370000000  0.5114210000000 1.0
C      1  0.5400260000000  0.5045870000000  0.5612410000000 1.0
C      1  0.5067870000000  0.4348310000000  0.5454790000000 1.0
C      1  0.4042560000000  0.5533440000000  0.4783390000000 1.0
C      1  0.5745120000000  0.4185040000000  0.4724670000000 1.0
C      1  0.4127130000000  0.4863190000000  0.4930450000000 1.0
C      1  0.4926200000000  0.5183370000000  0.5859680000000 1.0
C      1  0.5595700000000  0.5894030000000  0.5021310000000 1.0
C      1  0.4887630000000  0.6091990000000  0.4754960000000 1.0
C      1  0.5698170000000  0.4773080000000  0.5202710000000 1.0
C      1  0.4345390000000  0.4421740000000  0.5145730000000 1.0
C      1  0.4992700000000  0.5695360000000  0.5676590000000 1.0
C      1  0.5143900000000  0.4106490000000  0.5318280000000 1.0
C      1  0.4603730000000  0.5118940000000  0.4616200000000 1.0
C      1  0.4078130000000  0.5019440000000  0.4480290000000 1.0
C      1  0.4500130000000  0.4649390000000  0.5156460000000 1.0
C      1  0.5581130000000  0.4712170000000  0.6501430000000 1.0
C      1  0.5723180000000  0.5037550000000  0.5263930000000 1.0
C      1  0.5508330000000  0.5620670000000  0.5886170000000 1.0
C      1  0.4602570000000  0.5802640000000  0.4063910000000 1.0
C      1  0.4349240000000  0.4039550000000  0.4901460000000 1.0
C      1  0.5239020000000  0.4755090000000  0.4579650000000 1.0
C      1  0.5247610000000  0.5672260000000  0.4541420000000 1.0
C      1  0.6562280000000  0.5337910000000  0.5438890000000 1.0
C      1  0.4751540000000  0.5593980000000  0.5051930000000 1.0
C      1  0.4001140000000  0.5338250000000  0.5292240000000 1.0
C      1  0.4122940000000  0.4486660000000  0.4683420000000 1.0
C      1  0.4978750000000  0.3968450000000  0.5127450000000 1.0
C      1  0.5291660000000  0.5279360000000  0.5483250000000 1.0
C      1  0.5074470000000  0.5954120000000  0.5189170000000 1.0
C      1  0.4551960000000  0.4330040000000  0.5570520000000 1.0
C      1  0.4465690000000  0.5102090000000  0.4121140000000 1.0
C      1  0.6140970000000  0.4878740000000  0.4759370000000 1.0
C      1  0.5681060000000  0.4696650000000  0.4912790000000 1.0
C      1  0.4824080000000  0.5499290000000  0.5310490000000 1.0
C      1  0.5057430000000  0.4394170000000  0.6085500000000 1.0
C      1  0.4661350000000  0.4614430000000  0.4601530000000 1.0
C      1  0.4756750000000  0.5264590000000  0.4429530000000 1.0
C      1  0.5793070000000  0.5144900000000  0.4221540000000 1.0
C      1  0.5752600000000  0.4585560000000  0.4297740000000 1.0
C      1  0.3943820000000  0.4900250000000  0.5136320000000 1.0
C      1  0.3886530000000  0.6027090000000  0.4112140000000 1.0
C      1  0.4635860000000  0.4848700000000  0.6093630000000 1.0
C      1  0.4308800000000  0.5640790000000  0.5849740000000 1.0
C      1  0.4841970000000  0.6077270000000  0.5038890000000 1.0
C      1  0.5389970000000  0.3998520000000  0.5377620000000 1.0
C      1  0.4490310000000  0.3997800000000  0.5156950000000 1.0
C      1  0.4858040000000  0.4443010000000  0.5907300000000 1.0
C      1  0.4575910000000  0.4853330000000  0.4713750000000 1.0
C      1  0.4718620000000  0.3593120000000  0.5305720000000 1.0
C      1  0.6182170000000  0.4688910000000  0.4569010000000 1.0
C      1  0.4480470000000  0.3570270000000  0.4261060000000 1.0
C      1  0.4261580000000  0.5760160000000  0.4400840000000 1.0
C      1  0.6020040000000  0.5580600000000  0.5066390000000 1.0
C      1  0.5578350000000  0.4343090000000  0.4300650000000 1.0
C      1  0.4708340000000  0.3469140000000  0.3861370000000 1.0
C      1  0.4423450000000  0.4533890000000  0.5749820000000 1.0
C      1  0.5040890000000  0.5460390000000  0.5850670000000 1.0
C      1  0.5259690000000  0.5644400000000  0.4822010000000 1.0
C      1  0.5284000000000  0.5370610000000  0.4892590000000 1.0
C      1  0.6102740000000  0.5566460000000  0.4797400000000 1.0
C      1  0.5037450000000  0.5234350000000  0.4408440000000 1.0
C      1  0.5208420000000  0.4603860000000  0.5392870000000 1.0
C      1  0.3977390000000  0.5062350000000  0.5365460000000 1.0
C      1  0.5614980000000  0.4818100000000  0.6265670000000 1.0
C      1  0.5872070000000  0.5183510000000  0.5674590000000 1.0
C      1  0.4471860000000  0.5632240000000  0.4239550000000 1.0
C      1  0.5877810000000  0.5247720000000  0.4476770000000 1.0
C      1  0.5744580000000  0.4857870000000  0.4195270000000 1.0
C      1  0.5790450000000  0.6304220000000  0.4851130000000 1.0
C      1  0.4817140000000  0.5861060000000  0.4628240000000 1.0
C      1  0.5699580000000  0.5624790000000  0.4115680000000 1.0
C      1  0.4619690000000  0.5396570000000  0.5481280000000 1.0
C      1  0.4465020000000  0.5537910000000  0.5662180000000 1.0
C      1  0.4211630000000  0.5764060000000  0.4690620000000 1.0
C      1  0.5769440000000  0.5711280000000  0.5157210000000 1.0
C      1  0.4153240000000  0.5737190000000  0.6035360000000 1.0
C      1  0.4744300000000  0.4715130000000  0.5279070000000 1.0
C      1  0.5639570000000  0.5049400000000  0.5775360000000 1.0
C      1  0.5116050000000  0.4957030000000  0.4388130000000 1.0
C      1  0.4936190000000  0.4859220000000  0.4170050000000 1.0
C      1  0.4572580000000  0.5128480000000  0.5406490000000 1.0
C      1  0.6158150000000  0.5208540000000  0.5700470000000 1.0
C      1  0.6097060000000  0.5376630000000  0.5263780000000 1.0
C      1  0.4118250000000  0.5285860000000  0.4619170000000 1.0
C      1  0.5641760000000  0.4926750000000  0.6025560000000 1.0
C      1  0.5294170000000  0.4312160000000  0.4338150000000 1.0
C      1  0.4620220000000  0.4602310000000  0.5957250000000 1.0
C      1  0.4338330000000  0.3855390000000  0.4694600000000 1.0
C      1  0.4953120000000  0.4962130000000  0.5661770000000 1.0
C      1  0.4420950000000  0.4863390000000  0.4977630000000 1.0
C      1  0.4547040000000  0.6050680000000  0.5082270000000 1.0
C      1  0.5187770000000  0.5468100000000  0.4375370000000 1.0
C      1  0.4068050000000  0.4779810000000  0.4661130000000 1.0
C      1  0.4439360000000  0.6146440000000  0.5323140000000 1.0
C      1  0.5700040000000  0.6050050000000  0.4802290000000 1.0
C      1  0.4712950000000  0.3353100000000  0.5407030000000 1.0
C      1  0.5824370000000  0.5287560000000  0.5390270000000 1.0
C      1  0.4385940000000  0.5328090000000  0.4995000000000 1.0
C      1  0.5082760000000  0.5364090000000  0.5314000000000 1.0
C      1  0.4843390000000  0.4336880000000  0.5636420000000 1.0
C      1  0.5369100000000  0.4718490000000  0.4855650000000 1.0
END
