TITL C-247200-3482-38 6.05983244582252e-07 125000 -828.742184406727 0 0 138 (C1) n - 1
REM
REM in /home/nfs/bkarasulu/CARBON/AIRSS/Generating-Clusters/LCBOP/Only-C1/SD-CG/FIRE-HFTN
REM
REM
REM
REM
REM
REM ./C.cell (11c1c37f851c82e70ff6c80c92926a4b)
REM AIRSS Version 0.9.1 bugfix July 2018 build 013d7b7c2542+ Fri, 06 Jul 2018 19:26:36 +0100
REM compiler GCC version 9.2.1 20190827 (Red Hat 9.2.1-1)
REM options -cpp -mtune=generic -march=x86-64 -g -O0 -fpre-include=/usr/include/finclude/math-vector-fortran.h
REM seed -1549241619 1580643355 -2094572091 2109136893 1441147391 -1551058422 -2017295847 579277801 -183797237 -411829771 -2082876973 1183160136 1962650502 -1791981800 980062692 -1979282560 -245302614 2057421683 610711835 1965883154 259569040 -216547527 1411008534 1619220124 391872682 -1256133843 -1270508592 -703628707 1828481565 1002435294 -1597393974 1129551012 786328610
REM
CELL 1.54180   50.00000   50.00000   50.00000   90.00000   90.00000   90.00000
LATT -1
SFAC C  
C      1  0.5311260000000  0.3971780000000  0.4795450000000 1.0
C      1  0.4458280000000  0.5480070000000  0.5392030000000 1.0
C      1  0.4296070000000  0.4565860000000  0.5152110000000 1.0
C      1  0.5530380000000  0.5508820000000  0.4853460000000 1.0
C      1  0.3976860000000  0.4825970000000  0.5454060000000 1.0
C      1  0.5662640000000  0.5613310000000  0.4625150000000 1.0
C      1  0.4846330000000  0.3882600000000  0.4682850000000 1.0
C      1  0.4829600000000  0.4619710000000  0.5585880000000 1.0
C      1  0.4943760000000  0.4483310000000  0.5021640000000 1.0
C      1  0.4131980000000  0.4563440000000  0.4541570000000 1.0
C      1  0.5431890000000  0.4964810000000  0.3904840000000 1.0
C      1  0.5173150000000  0.4629920000000  0.4504810000000 1.0
C      1  0.4697480000000  0.4668280000000  0.6019960000000 1.0
C      1  0.5017420000000  0.4855380000000  0.4552410000000 1.0
C      1  0.5677560000000  0.4326960000000  0.5254460000000 1.0
C      1  0.5798130000000  0.4029620000000  0.4366570000000 1.0
C      1  0.4376530000000  0.5231620000000  0.5248010000000 1.0
C      1  0.4139140000000  0.6052440000000  0.4651380000000 1.0
C      1  0.4798400000000  0.4903120000000  0.5517340000000 1.0
C      1  0.3918210000000  0.4889390000000  0.4929910000000 1.0
C      1  0.6081430000000  0.5068780000000  0.5670030000000 1.0
C      1  0.5310990000000  0.5657790000000  0.6003020000000 1.0
C      1  0.3800510000000  0.5642290000000  0.5149300000000 1.0
C      1  0.5129170000000  0.4895470000000  0.5088830000000 1.0
C      1  0.3994740000000  0.4651030000000  0.4781350000000 1.0
C      1  0.4296390000000  0.5995140000000  0.4422510000000 1.0
C      1  0.5748870000000  0.5427570000000  0.4428950000000 1.0
C      1  0.4328990000000  0.5721320000000  0.4341930000000 1.0
C      1  0.4810300000000  0.4985940000000  0.4065470000000 1.0
C      1  0.5757540000000  0.5305620000000  0.3874160000000 1.0
C      1  0.4679740000000  0.4420290000000  0.4983790000000 1.0
C      1  0.5502980000000  0.4424990000000  0.4266740000000 1.0
C      1  0.5185710000000  0.4439690000000  0.4929130000000 1.0
C      1  0.5675190000000  0.4667480000000  0.4275260000000 1.0
C      1  0.4494350000000  0.4645340000000  0.4960920000000 1.0
C      1  0.5458860000000  0.5216590000000  0.5610890000000 1.0
C      1  0.4243130000000  0.5926230000000  0.5354670000000 1.0
C      1  0.5144610000000  0.4973750000000  0.6191770000000 1.0
C      1  0.5626230000000  0.5438550000000  0.5695520000000 1.0
C      1  0.5676980000000  0.4868960000000  0.4754080000000 1.0
C      1  0.4635890000000  0.4135460000000  0.5020410000000 1.0
C      1  0.6146860000000  0.4886350000000  0.5172710000000 1.0
C      1  0.4808890000000  0.4081550000000  0.4469580000000 1.0
C      1  0.4838740000000  0.5548400000000  0.5092980000000 1.0
C      1  0.5497940000000  0.5880520000000  0.5600380000000 1.0
C      1  0.4171110000000  0.5486780000000  0.4805550000000 1.0
C      1  0.4607220000000  0.4547240000000  0.5765600000000 1.0
C      1  0.5679080000000  0.5066740000000  0.4007140000000 1.0
C      1  0.5384520000000  0.4763400000000  0.5177980000000 1.0
C      1  0.5860830000000  0.4676810000000  0.4738800000000 1.0
C      1  0.5544140000000  0.5811890000000  0.5324150000000 1.0
C      1  0.5104310000000  0.4534350000000  0.5611140000000 1.0
C      1  0.4352150000000  0.5034580000000  0.5697220000000 1.0
C      1  0.4904230000000  0.5117950000000  0.6142090000000 1.0
C      1  0.4884040000000  0.5393700000000  0.6200890000000 1.0
C      1  0.4635320000000  0.5037070000000  0.5723250000000 1.0
C      1  0.4035100000000  0.6020720000000  0.4910800000000 1.0
C      1  0.4339170000000  0.4371590000000  0.4486010000000 1.0
C      1  0.3992560000000  0.5497070000000  0.5297340000000 1.0
C      1  0.5320430000000  0.4053120000000  0.4518510000000 1.0
C      1  0.5521130000000  0.5195470000000  0.5314200000000 1.0
C      1  0.5295470000000  0.5774750000000  0.5176360000000 1.0
C      1  0.4867780000000  0.3969480000000  0.4957880000000 1.0
C      1  0.5560230000000  0.4160980000000  0.4385850000000 1.0
C      1  0.4447070000000  0.5550250000000  0.4770500000000 1.0
C      1  0.5590920000000  0.4918450000000  0.5294950000000 1.0
C      1  0.5247360000000  0.5191200000000  0.4741210000000 1.0
C      1  0.5165340000000  0.4716840000000  0.6070920000000 1.0
C      1  0.3964770000000  0.4969720000000  0.5208300000000 1.0
C      1  0.5555510000000  0.4063030000000  0.5284310000000 1.0
C      1  0.3931830000000  0.5434070000000  0.4393380000000 1.0
C      1  0.6072120000000  0.4631350000000  0.5207040000000 1.0
C      1  0.5141970000000  0.3986000000000  0.5037580000000 1.0
C      1  0.4511340000000  0.4926630000000  0.4835230000000 1.0
C      1  0.5070290000000  0.4981570000000  0.4811930000000 1.0
C      1  0.4511230000000  0.4142380000000  0.4485570000000 1.0
C      1  0.4084960000000  0.5227350000000  0.5239900000000 1.0
C      1  0.4644690000000  0.5414200000000  0.4925910000000 1.0
C      1  0.4537670000000  0.4914890000000  0.4075000000000 1.0
C      1  0.5318920000000  0.4541340000000  0.4726140000000 1.0
C      1  0.5244340000000  0.5460980000000  0.4822870000000 1.0
C      1  0.5107380000000  0.5611230000000  0.5024220000000 1.0
C      1  0.4722640000000  0.5575580000000  0.5352380000000 1.0
C      1  0.5330390000000  0.5354510000000  0.3659200000000 1.0
C      1  0.6042420000000  0.5208230000000  0.4703220000000 1.0
C      1  0.5698420000000  0.5881870000000  0.4590580000000 1.0
C      1  0.4379820000000  0.4899170000000  0.4308550000000 1.0
C      1  0.4662960000000  0.5494240000000  0.6326380000000 1.0
C      1  0.5494240000000  0.5672620000000  0.5793750000000 1.0
C      1  0.4192490000000  0.4806680000000  0.5643440000000 1.0
C      1  0.5259230000000  0.4081530000000  0.5286420000000 1.0
C      1  0.4418210000000  0.6199910000000  0.4277900000000 1.0
C      1  0.6054690000000  0.4517210000000  0.4666800000000 1.0
C      1  0.4961360000000  0.5061260000000  0.3842730000000 1.0
C      1  0.6127390000000  0.4164290000000  0.5283140000000 1.0
C      1  0.4943670000000  0.4324730000000  0.6281500000000 1.0
C      1  0.4096690000000  0.5589180000000  0.4244940000000 1.0
C      1  0.5227030000000  0.5116550000000  0.3776740000000 1.0
C      1  0.5969880000000  0.5599630000000  0.5056960000000 1.0
C      1  0.3857390000000  0.5112740000000  0.4763250000000 1.0
C      1  0.5443170000000  0.4500080000000  0.5272370000000 1.0
C      1  0.6113960000000  0.5166260000000  0.5199210000000 1.0
C      1  0.4533760000000  0.6389760000000  0.4141800000000 1.0
C      1  0.5198710000000  0.4438870000000  0.4295640000000 1.0
C      1  0.4495580000000  0.5021460000000  0.4544850000000 1.0
C      1  0.4394670000000  0.4010320000000  0.4935900000000 1.0
C      1  0.5096930000000  0.5562130000000  0.6128460000000 1.0
C      1  0.6052850000000  0.5266910000000  0.5468240000000 1.0
C      1  0.5225290000000  0.4359310000000  0.5414120000000 1.0
C      1  0.4369210000000  0.3961220000000  0.4667590000000 1.0
C      1  0.4936890000000  0.4985000000000  0.4317870000000 1.0
C      1  0.5498730000000  0.5060060000000  0.4695530000000 1.0
C      1  0.4191470000000  0.6081570000000  0.5139830000000 1.0
C      1  0.4714840000000  0.4964350000000  0.5991910000000 1.0
C      1  0.4935700000000  0.4553050000000  0.6134120000000 1.0
C      1  0.5672330000000  0.4822050000000  0.5562680000000 1.0
C      1  0.3965970000000  0.5349750000000  0.4661070000000 1.0
C      1  0.4587130000000  0.5284130000000  0.4449780000000 1.0
C      1  0.4223640000000  0.5649420000000  0.5402440000000 1.0
C      1  0.4949400000000  0.4979410000000  0.5293980000000 1.0
C      1  0.5259210000000  0.4715220000000  0.5797440000000 1.0
C      1  0.4345580000000  0.4558370000000  0.5641960000000 1.0
C      1  0.5075930000000  0.4180020000000  0.4383310000000 1.0
C      1  0.4536070000000  0.5155980000000  0.5020270000000 1.0
C      1  0.5956290000000  0.4376510000000  0.5247440000000 1.0
C      1  0.4507270000000  0.5553840000000  0.4489890000000 1.0
C      1  0.4139730000000  0.4762400000000  0.4340010000000 1.0
C      1  0.5860120000000  0.5480520000000  0.5515870000000 1.0
C      1  0.5883070000000  0.5169630000000  0.4450980000000 1.0
C      1  0.5924840000000  0.4848190000000  0.5682360000000 1.0
C      1  0.5582470000000  0.5357570000000  0.5093780000000 1.0
C      1  0.6063660000000  0.5334710000000  0.4969650000000 1.0
C      1  0.5808490000000  0.5669820000000  0.5291110000000 1.0
C      1  0.3817080000000  0.5847950000000  0.4972890000000 1.0
C      1  0.5444470000000  0.4927940000000  0.5715620000000 1.0
C      1  0.5585050000000  0.5439910000000  0.3710050000000 1.0
C      1  0.5773670000000  0.4954070000000  0.4257880000000 1.0
C      1  0.4301220000000  0.4435680000000  0.5390190000000 1.0
END
