TITL C-247201-3759-587 1.42827613490163e-06 125000 -962.868261114426 0 0 158 (C1) n - 1
REM
REM in /home/nfs/bkarasulu/CARBON/AIRSS/Generating-Clusters/LCBOP/Only-C1/SD-CG/FIRE-HFTN
REM
REM
REM
REM
REM
REM ./C.cell (11c1c37f851c82e70ff6c80c92926a4b)
REM AIRSS Version 0.9.1 bugfix July 2018 build 013d7b7c2542+ Fri, 06 Jul 2018 19:26:36 +0100
REM compiler GCC version 9.2.1 20190827 (Red Hat 9.2.1-1)
REM options -cpp -mtune=generic -march=x86-64 -g -O0 -fpre-include=/usr/include/finclude/math-vector-fortran.h
REM seed -1386017914 -397658856 656475032 -1043241567 -721336377 -942380787 1181195917 -346504702 2033843772 -1533973030 -1078048598 -1535868101 185619141 -1009207374 -205881069 382842817 -256440624 799448840 -585238897 1991924481 1754145669 -84697071 323564814 -1734711778 502805882 -1329326688 -1520571888 1684410892 -1264996480 1713551713 -925437314 -1129801912 -1012661304
REM
CELL 1.54180   50.00000   50.00000   50.00000   90.00000   90.00000   90.00000
LATT -1
SFAC C  
C      1  0.5115360000000  0.5273370000000  0.5994240000000 1.0
C      1  0.5228840000000  0.4924550000000  0.3916720000000 1.0
C      1  0.3704510000000  0.5398020000000  0.5339640000000 1.0
C      1  0.4867630000000  0.6193630000000  0.5645150000000 1.0
C      1  0.5713460000000  0.4425470000000  0.4239740000000 1.0
C      1  0.5569440000000  0.6110710000000  0.5500120000000 1.0
C      1  0.4771690000000  0.4288560000000  0.4693700000000 1.0
C      1  0.4550770000000  0.4858800000000  0.5998460000000 1.0
C      1  0.5495260000000  0.4257030000000  0.5438500000000 1.0
C      1  0.5977780000000  0.4957930000000  0.5353490000000 1.0
C      1  0.3877940000000  0.5197980000000  0.4945900000000 1.0
C      1  0.6134630000000  0.4966820000000  0.4426770000000 1.0
C      1  0.5763090000000  0.4915200000000  0.5765880000000 1.0
C      1  0.4617110000000  0.3863970000000  0.5100990000000 1.0
C      1  0.4629320000000  0.5984210000000  0.5026130000000 1.0
C      1  0.5727470000000  0.5386730000000  0.4860720000000 1.0
C      1  0.4151980000000  0.4878540000000  0.5490540000000 1.0
C      1  0.4894400000000  0.4074650000000  0.5789890000000 1.0
C      1  0.5582550000000  0.6097970000000  0.5209860000000 1.0
C      1  0.5227310000000  0.4476920000000  0.5824120000000 1.0
C      1  0.3926900000000  0.4617650000000  0.4804840000000 1.0
C      1  0.3977540000000  0.5595300000000  0.5679820000000 1.0
C      1  0.4680450000000  0.5512650000000  0.5301500000000 1.0
C      1  0.4589050000000  0.5234690000000  0.5645230000000 1.0
C      1  0.5485490000000  0.4865090000000  0.5798810000000 1.0
C      1  0.4962750000000  0.5020510000000  0.3955890000000 1.0
C      1  0.5676220000000  0.5616940000000  0.5280580000000 1.0
C      1  0.6639290000000  0.4645370000000  0.4563840000000 1.0
C      1  0.4479600000000  0.5968890000000  0.5565840000000 1.0
C      1  0.4470330000000  0.5463290000000  0.4888890000000 1.0
C      1  0.4169050000000  0.4987590000000  0.4475930000000 1.0
C      1  0.5339260000000  0.4461370000000  0.5556070000000 1.0
C      1  0.5329410000000  0.4953850000000  0.5561040000000 1.0
C      1  0.4630830000000  0.3851310000000  0.4829750000000 1.0
C      1  0.4428810000000  0.5522500000000  0.5160810000000 1.0
C      1  0.4105310000000  0.5268860000000  0.4518410000000 1.0
C      1  0.5105920000000  0.4775640000000  0.4673180000000 1.0
C      1  0.4183870000000  0.5399870000000  0.5257480000000 1.0
C      1  0.4763660000000  0.4815470000000  0.3920320000000 1.0
C      1  0.4340180000000  0.4696080000000  0.5893970000000 1.0
C      1  0.5440560000000  0.4758940000000  0.3926940000000 1.0
C      1  0.5995840000000  0.4275870000000  0.4633110000000 1.0
C      1  0.5669850000000  0.4356570000000  0.4991400000000 1.0
C      1  0.4022830000000  0.4781950000000  0.4611590000000 1.0
C      1  0.6883530000000  0.4736260000000  0.4565630000000 1.0
C      1  0.4494840000000  0.6007910000000  0.5279320000000 1.0
C      1  0.4205370000000  0.4431950000000  0.5450570000000 1.0
C      1  0.4013290000000  0.4007740000000  0.4523910000000 1.0
C      1  0.5351280000000  0.5579030000000  0.4093060000000 1.0
C      1  0.5918440000000  0.4752580000000  0.5562460000000 1.0
C      1  0.4870800000000  0.5084000000000  0.5231050000000 1.0
C      1  0.4971300000000  0.4261680000000  0.4904560000000 1.0
C      1  0.4278620000000  0.5487420000000  0.4438360000000 1.0
C      1  0.4574520000000  0.4520790000000  0.4603760000000 1.0
C      1  0.5086300000000  0.6093880000000  0.5491180000000 1.0
C      1  0.4202240000000  0.4646590000000  0.5651120000000 1.0
C      1  0.4759910000000  0.3964930000000  0.5584490000000 1.0
C      1  0.3897280000000  0.4478840000000  0.5036140000000 1.0
C      1  0.5872940000000  0.5403860000000  0.4615640000000 1.0
C      1  0.5301080000000  0.5335730000000  0.5146470000000 1.0
C      1  0.4435380000000  0.4464040000000  0.5278440000000 1.0
C      1  0.5580650000000  0.4974770000000  0.4420750000000 1.0
C      1  0.5569260000000  0.5422130000000  0.5094480000000 1.0
C      1  0.5101130000000  0.6089070000000  0.5206590000000 1.0
C      1  0.4662150000000  0.5371490000000  0.4176180000000 1.0
C      1  0.3963880000000  0.5473440000000  0.5431160000000 1.0
C      1  0.5620050000000  0.5633930000000  0.5571040000000 1.0
C      1  0.5749840000000  0.5559270000000  0.4409940000000 1.0
C      1  0.4891190000000  0.5467000000000  0.5941040000000 1.0
C      1  0.4196010000000  0.4185320000000  0.4469110000000 1.0
C      1  0.4916970000000  0.4398460000000  0.5147610000000 1.0
C      1  0.4400940000000  0.4358080000000  0.4398600000000 1.0
C      1  0.5738450000000  0.5866510000000  0.5151550000000 1.0
C      1  0.4718770000000  0.5952580000000  0.5727230000000 1.0
C      1  0.3466200000000  0.5605640000000  0.4501750000000 1.0
C      1  0.5222950000000  0.4674160000000  0.4920220000000 1.0
C      1  0.3664520000000  0.5462060000000  0.4591020000000 1.0
C      1  0.5075720000000  0.5188520000000  0.5039810000000 1.0
C      1  0.5353940000000  0.4052130000000  0.4259900000000 1.0
C      1  0.3880240000000  0.5311790000000  0.4684830000000 1.0
C      1  0.5116760000000  0.3699970000000  0.4036320000000 1.0
C      1  0.4510300000000  0.4701180000000  0.4853320000000 1.0
C      1  0.5821490000000  0.5208690000000  0.5729000000000 1.0
C      1  0.5053320000000  0.4927850000000  0.5995100000000 1.0
C      1  0.4690910000000  0.5240790000000  0.5387620000000 1.0
C      1  0.4657010000000  0.5827630000000  0.4503510000000 1.0
C      1  0.5386930000000  0.3910540000000  0.4846130000000 1.0
C      1  0.3656090000000  0.5257540000000  0.5113180000000 1.0
C      1  0.5127540000000  0.6089870000000  0.4565710000000 1.0
C      1  0.5295760000000  0.6158470000000  0.4771860000000 1.0
C      1  0.4116940000000  0.5153950000000  0.5103500000000 1.0
C      1  0.4586200000000  0.4971420000000  0.4803100000000 1.0
C      1  0.5474790000000  0.5873620000000  0.5640850000000 1.0
C      1  0.5941120000000  0.4469410000000  0.4408580000000 1.0
C      1  0.4888250000000  0.4823260000000  0.5330180000000 1.0
C      1  0.5342920000000  0.6149230000000  0.5057930000000 1.0
C      1  0.5162780000000  0.4050420000000  0.4897270000000 1.0
C      1  0.5809550000000  0.4897100000000  0.5132740000000 1.0
C      1  0.5051300000000  0.4267880000000  0.5890910000000 1.0
C      1  0.4615820000000  0.4760690000000  0.4411710000000 1.0
C      1  0.5698760000000  0.4884070000000  0.4639800000000 1.0
C      1  0.5257640000000  0.5226600000000  0.5578630000000 1.0
C      1  0.4912630000000  0.5945780000000  0.5046920000000 1.0
C      1  0.4385300000000  0.4687070000000  0.5103960000000 1.0
C      1  0.5085660000000  0.4649100000000  0.5194700000000 1.0
C      1  0.5047730000000  0.5035730000000  0.4600480000000 1.0
C      1  0.4219130000000  0.4909280000000  0.5213020000000 1.0
C      1  0.4524100000000  0.5130710000000  0.6090100000000 1.0
C      1  0.4672820000000  0.4312390000000  0.5271490000000 1.0
C      1  0.4665050000000  0.4029870000000  0.5327340000000 1.0
C      1  0.5848720000000  0.4892570000000  0.4859940000000 1.0
C      1  0.6276120000000  0.4319500000000  0.4688540000000 1.0
C      1  0.6065730000000  0.5209430000000  0.4527770000000 1.0
C      1  0.5620990000000  0.5414680000000  0.5762740000000 1.0
C      1  0.5502460000000  0.4269830000000  0.4359100000000 1.0
C      1  0.5348540000000  0.5331960000000  0.5834720000000 1.0
C      1  0.5902280000000  0.4491470000000  0.5445570000000 1.0
C      1  0.5188520000000  0.5873200000000  0.5672050000000 1.0
C      1  0.5652280000000  0.3932910000000  0.4793060000000 1.0
C      1  0.4910360000000  0.5963840000000  0.4453730000000 1.0
C      1  0.6152030000000  0.4682860000000  0.4422510000000 1.0
C      1  0.4814900000000  0.4765780000000  0.5597990000000 1.0
C      1  0.5538920000000  0.5174070000000  0.4250800000000 1.0
C      1  0.4730670000000  0.4008930000000  0.4612490000000 1.0
C      1  0.5277140000000  0.4738840000000  0.5951680000000 1.0
C      1  0.5121690000000  0.3891290000000  0.4232850000000 1.0
C      1  0.5718390000000  0.4340520000000  0.5281190000000 1.0
C      1  0.4933210000000  0.5745520000000  0.5812100000000 1.0
C      1  0.4480760000000  0.5151900000000  0.4154380000000 1.0
C      1  0.5561680000000  0.4786940000000  0.5209180000000 1.0
C      1  0.5108160000000  0.5498250000000  0.4016040000000 1.0
C      1  0.5039170000000  0.5527210000000  0.4722720000000 1.0
C      1  0.4637340000000  0.5324040000000  0.5910030000000 1.0
C      1  0.4479300000000  0.4419480000000  0.4125820000000 1.0
C      1  0.5017930000000  0.5741000000000  0.4881550000000 1.0
C      1  0.4411270000000  0.4945160000000  0.4329700000000 1.0
C      1  0.4910080000000  0.5300900000000  0.4043690000000 1.0
C      1  0.5328030000000  0.4711590000000  0.5377620000000 1.0
C      1  0.4894340000000  0.3919770000000  0.4400270000000 1.0
C      1  0.4618600000000  0.4591170000000  0.3967390000000 1.0
C      1  0.5038700000000  0.5253270000000  0.4768000000000 1.0
C      1  0.5442230000000  0.4478130000000  0.4852600000000 1.0
C      1  0.5628300000000  0.4594960000000  0.4028840000000 1.0
C      1  0.5557340000000  0.5454080000000  0.4233350000000 1.0
C      1  0.4050230000000  0.5826830000000  0.5788330000000 1.0
C      1  0.5806210000000  0.4170770000000  0.4816060000000 1.0
C      1  0.4809110000000  0.4826970000000  0.5875850000000 1.0
C      1  0.4240750000000  0.5994220000000  0.5707640000000 1.0
C      1  0.4535530000000  0.5926550000000  0.4755590000000 1.0
C      1  0.4550910000000  0.5232720000000  0.4782540000000 1.0
C      1  0.5167330000000  0.4580940000000  0.4478970000000 1.0
C      1  0.4549280000000  0.5582640000000  0.4359450000000 1.0
C      1  0.3971160000000  0.4393060000000  0.5284870000000 1.0
C      1  0.5992580000000  0.5207210000000  0.5493360000000 1.0
C      1  0.5379420000000  0.4411500000000  0.4568200000000 1.0
C      1  0.5184210000000  0.5425150000000  0.5391740000000 1.0
C      1  0.4951070000000  0.5590070000000  0.5356970000000 1.0
C      1  0.6377940000000  0.4555310000000  0.4560700000000 1.0
END
