TITL C-247199-3331-687 -7.5216895059489e-07 125000 -1014.26239283272 0 0 165 (C1) n - 1
REM
REM in /home/nfs/bkarasulu/CARBON/AIRSS/Generating-Clusters/LCBOP/Only-C1/SD-CG/FIRE-HFTN
REM
REM
REM
REM
REM
REM ./C.cell (11c1c37f851c82e70ff6c80c92926a4b)
REM AIRSS Version 0.9.1 bugfix July 2018 build 013d7b7c2542+ Fri, 06 Jul 2018 19:26:36 +0100
REM compiler GCC version 9.2.1 20190827 (Red Hat 9.2.1-1)
REM options -cpp -mtune=generic -march=x86-64 -g -O0 -fpre-include=/usr/include/finclude/math-vector-fortran.h
REM seed 1666078334 829793985 -769862808 172735558 1660737084 -1163500435 1587422927 -1523804366 -1414043045 -990550140 -810008206 -271366144 635166865 -1614300829 -633294513 1079249304 589208880 -2136619636 1956466601 -970712739 2081695432 -1825516143 -13420672 -1440114930 554961038 1086271028 1708559640 783628949 -429358202 1106060318 434580349 -1691923045 340223323
REM
CELL 1.54180   50.00000   50.00000   50.00000   90.00000   90.00000   90.00000
LATT -1
SFAC C  
C      1  0.3937150000000  0.4856230000000  0.5143070000000 1.0
C      1  0.5491460000000  0.5644430000000  0.4953020000000 1.0
C      1  0.5009300000000  0.3928400000000  0.4815450000000 1.0
C      1  0.4634090000000  0.4144480000000  0.4973390000000 1.0
C      1  0.4049300000000  0.4919450000000  0.6069560000000 1.0
C      1  0.4376820000000  0.5931940000000  0.5633420000000 1.0
C      1  0.5018780000000  0.5076030000000  0.4946440000000 1.0
C      1  0.5756460000000  0.4464750000000  0.5065030000000 1.0
C      1  0.5511080000000  0.5296850000000  0.3762200000000 1.0
C      1  0.4404190000000  0.5259320000000  0.5991060000000 1.0
C      1  0.5332570000000  0.4189800000000  0.5815160000000 1.0
C      1  0.4664110000000  0.5794590000000  0.4423440000000 1.0
C      1  0.5191460000000  0.5315980000000  0.4093290000000 1.0
C      1  0.4159950000000  0.4585230000000  0.4754190000000 1.0
C      1  0.5750990000000  0.4739930000000  0.4553540000000 1.0
C      1  0.4275230000000  0.4546300000000  0.3861550000000 1.0
C      1  0.6337560000000  0.4914480000000  0.5008440000000 1.0
C      1  0.5737260000000  0.4323240000000  0.4817590000000 1.0
C      1  0.5242170000000  0.5912680000000  0.3935230000000 1.0
C      1  0.6012860000000  0.5350400000000  0.5546880000000 1.0
C      1  0.4601910000000  0.5216080000000  0.6190040000000 1.0
C      1  0.4648670000000  0.5631040000000  0.5152120000000 1.0
C      1  0.5683010000000  0.4465980000000  0.4575770000000 1.0
C      1  0.5793940000000  0.5431600000000  0.5738190000000 1.0
C      1  0.4430030000000  0.5320640000000  0.4916610000000 1.0
C      1  0.5075900000000  0.4638460000000  0.3812630000000 1.0
C      1  0.5619180000000  0.5539940000000  0.3872230000000 1.0
C      1  0.5234170000000  0.5445930000000  0.5902330000000 1.0
C      1  0.4956980000000  0.4834870000000  0.5465300000000 1.0
C      1  0.5756960000000  0.5843670000000  0.5502040000000 1.0
C      1  0.4587790000000  0.4580010000000  0.4467020000000 1.0
C      1  0.4086150000000  0.4235460000000  0.4164340000000 1.0
C      1  0.4732220000000  0.5022420000000  0.5397840000000 1.0
C      1  0.5170300000000  0.5900100000000  0.5654560000000 1.0
C      1  0.5321080000000  0.5355460000000  0.4346110000000 1.0
C      1  0.4389310000000  0.5523560000000  0.5102950000000 1.0
C      1  0.4967670000000  0.3931560000000  0.6015170000000 1.0
C      1  0.3950440000000  0.5323800000000  0.4631450000000 1.0
C      1  0.4289180000000  0.4245040000000  0.4358470000000 1.0
C      1  0.4237570000000  0.5588900000000  0.5328180000000 1.0
C      1  0.5647960000000  0.5684770000000  0.5711620000000 1.0
C      1  0.5830430000000  0.5545770000000  0.4061160000000 1.0
C      1  0.4820760000000  0.4571400000000  0.4676140000000 1.0
C      1  0.4545390000000  0.4153880000000  0.5568730000000 1.0
C      1  0.4313990000000  0.4481650000000  0.4526150000000 1.0
C      1  0.6058690000000  0.5632500000000  0.4555380000000 1.0
C      1  0.4353510000000  0.4337480000000  0.5617560000000 1.0
C      1  0.5279070000000  0.5541060000000  0.4554670000000 1.0
C      1  0.5303430000000  0.5773100000000  0.5113010000000 1.0
C      1  0.4614370000000  0.5014600000000  0.4665450000000 1.0
C      1  0.4847510000000  0.5177780000000  0.5171790000000 1.0
C      1  0.4252220000000  0.5879190000000  0.5380040000000 1.0
C      1  0.5888940000000  0.5196210000000  0.4645810000000 1.0
C      1  0.5453420000000  0.5769050000000  0.3857440000000 1.0
C      1  0.5164280000000  0.6004840000000  0.5035830000000 1.0
C      1  0.5913040000000  0.4867620000000  0.5611970000000 1.0
C      1  0.3867760000000  0.5128670000000  0.5104250000000 1.0
C      1  0.5662740000000  0.4991450000000  0.5626870000000 1.0
C      1  0.5365390000000  0.4775000000000  0.4124930000000 1.0
C      1  0.4736640000000  0.5848310000000  0.4992220000000 1.0
C      1  0.5958960000000  0.5447220000000  0.5251530000000 1.0
C      1  0.4500590000000  0.5598020000000  0.4291890000000 1.0
C      1  0.5212990000000  0.3881970000000  0.5374930000000 1.0
C      1  0.6176730000000  0.5868240000000  0.4628040000000 1.0
C      1  0.5261660000000  0.4926350000000  0.5884620000000 1.0
C      1  0.5393490000000  0.5187400000000  0.5949840000000 1.0
C      1  0.5246580000000  0.4863400000000  0.3879650000000 1.0
C      1  0.5436980000000  0.4968870000000  0.5450210000000 1.0
C      1  0.5608150000000  0.4494980000000  0.5546370000000 1.0
C      1  0.4827670000000  0.5947430000000  0.4254200000000 1.0
C      1  0.5206420000000  0.4364550000000  0.4400260000000 1.0
C      1  0.6072580000000  0.4462410000000  0.5419610000000 1.0
C      1  0.3857490000000  0.4319310000000  0.3737200000000 1.0
C      1  0.4917870000000  0.5965600000000  0.5493900000000 1.0
C      1  0.4185170000000  0.4488560000000  0.5449000000000 1.0
C      1  0.3876280000000  0.4803970000000  0.6226520000000 1.0
C      1  0.4179270000000  0.3880350000000  0.4866430000000 1.0
C      1  0.4313930000000  0.4565680000000  0.4991730000000 1.0
C      1  0.5046830000000  0.5464180000000  0.6130870000000 1.0
C      1  0.5362370000000  0.4665700000000  0.5952130000000 1.0
C      1  0.3661880000000  0.4275680000000  0.3570610000000 1.0
C      1  0.4453990000000  0.5106390000000  0.5487540000000 1.0
C      1  0.4768450000000  0.4962930000000  0.4252230000000 1.0
C      1  0.5710210000000  0.4041950000000  0.4851290000000 1.0
C      1  0.5473060000000  0.3932280000000  0.4954250000000 1.0
C      1  0.4894980000000  0.4893000000000  0.4706390000000 1.0
C      1  0.4689950000000  0.5743190000000  0.4711370000000 1.0
C      1  0.4499420000000  0.4777130000000  0.5057080000000 1.0
C      1  0.5281360000000  0.4899990000000  0.4359840000000 1.0
C      1  0.5114800000000  0.6045490000000  0.4751160000000 1.0
C      1  0.5010480000000  0.4933950000000  0.4420150000000 1.0
C      1  0.5009070000000  0.4411980000000  0.3955950000000 1.0
C      1  0.5282800000000  0.5154630000000  0.3864970000000 1.0
C      1  0.5279430000000  0.5392310000000  0.5406420000000 1.0
C      1  0.4926270000000  0.3916790000000  0.5319360000000 1.0
C      1  0.3921590000000  0.4711070000000  0.4875250000000 1.0
C      1  0.4670550000000  0.5881150000000  0.5630690000000 1.0
C      1  0.6326830000000  0.5180260000000  0.5036940000000 1.0
C      1  0.3865040000000  0.5281760000000  0.4882120000000 1.0
C      1  0.5366360000000  0.5714540000000  0.5798740000000 1.0
C      1  0.5702600000000  0.5019570000000  0.4542440000000 1.0
C      1  0.4536340000000  0.4107460000000  0.4306020000000 1.0
C      1  0.5645650000000  0.5201910000000  0.5820280000000 1.0
C      1  0.5200920000000  0.5822170000000  0.4578660000000 1.0
C      1  0.4677430000000  0.5600090000000  0.5727810000000 1.0
C      1  0.4205440000000  0.4397150000000  0.5185610000000 1.0
C      1  0.4752190000000  0.3961320000000  0.5550550000000 1.0
C      1  0.4725830000000  0.4410100000000  0.4919110000000 1.0
C      1  0.4065940000000  0.4365680000000  0.3914710000000 1.0
C      1  0.4824520000000  0.3850820000000  0.5801830000000 1.0
C      1  0.5247380000000  0.4072600000000  0.4864130000000 1.0
C      1  0.5022590000000  0.5975050000000  0.4073570000000 1.0
C      1  0.4839350000000  0.5332540000000  0.6239200000000 1.0
C      1  0.5243330000000  0.4498650000000  0.5149210000000 1.0
C      1  0.5288780000000  0.5193320000000  0.4961540000000 1.0
C      1  0.4913660000000  0.6003490000000  0.5186700000000 1.0
C      1  0.4385010000000  0.4034300000000  0.4911110000000 1.0
C      1  0.5406430000000  0.3788000000000  0.5186770000000 1.0
C      1  0.5884900000000  0.4586850000000  0.5586870000000 1.0
C      1  0.4431140000000  0.6216370000000  0.4984880000000 1.0
C      1  0.5374010000000  0.5431220000000  0.4804380000000 1.0
C      1  0.6028860000000  0.4514380000000  0.5146010000000 1.0
C      1  0.5109880000000  0.5369280000000  0.5640990000000 1.0
C      1  0.4740590000000  0.4613070000000  0.5123030000000 1.0
C      1  0.5213420000000  0.4356360000000  0.4890320000000 1.0
C      1  0.6136010000000  0.5387520000000  0.5010960000000 1.0
C      1  0.4488020000000  0.4655720000000  0.3980040000000 1.0
C      1  0.4103330000000  0.4764270000000  0.5447460000000 1.0
C      1  0.4991190000000  0.4629810000000  0.5262570000000 1.0
C      1  0.4608440000000  0.5462680000000  0.4732370000000 1.0
C      1  0.4289380000000  0.6073590000000  0.5169410000000 1.0
C      1  0.4632640000000  0.4713500000000  0.4211780000000 1.0
C      1  0.5442890000000  0.4448640000000  0.5780810000000 1.0
C      1  0.6108070000000  0.5075800000000  0.5581120000000 1.0
C      1  0.4914040000000  0.3920630000000  0.4546920000000 1.0
C      1  0.4836780000000  0.3956360000000  0.5045060000000 1.0
C      1  0.6211840000000  0.4679210000000  0.5014090000000 1.0
C      1  0.4305350000000  0.5364940000000  0.5497650000000 1.0
C      1  0.5177610000000  0.4100600000000  0.6033340000000 1.0
C      1  0.4235370000000  0.5035630000000  0.5896360000000 1.0
C      1  0.4888160000000  0.6224110000000  0.4712520000000 1.0
C      1  0.5489030000000  0.4359590000000  0.4396170000000 1.0
C      1  0.4858170000000  0.5468480000000  0.5265300000000 1.0
C      1  0.5140390000000  0.5580200000000  0.5241850000000 1.0
C      1  0.4273410000000  0.5762140000000  0.5850050000000 1.0
C      1  0.5455920000000  0.5110320000000  0.4435410000000 1.0
C      1  0.4844180000000  0.5438970000000  0.5575790000000 1.0
C      1  0.4640820000000  0.6277740000000  0.4820070000000 1.0
C      1  0.5324730000000  0.4016220000000  0.5594770000000 1.0
C      1  0.5898960000000  0.5739720000000  0.5293820000000 1.0
C      1  0.5099040000000  0.4458910000000  0.4646950000000 1.0
C      1  0.4432210000000  0.5520490000000  0.5873240000000 1.0
C      1  0.5525050000000  0.4489090000000  0.5258220000000 1.0
C      1  0.5960610000000  0.5595910000000  0.4290520000000 1.0
C      1  0.4128720000000  0.5319620000000  0.4431450000000 1.0
C      1  0.4577230000000  0.5126770000000  0.4399550000000 1.0
C      1  0.5430910000000  0.5186000000000  0.5243960000000 1.0
C      1  0.6029270000000  0.5419210000000  0.4743080000000 1.0
C      1  0.4819620000000  0.4081120000000  0.4326630000000 1.0
C      1  0.5193010000000  0.4910540000000  0.5598830000000 1.0
C      1  0.5012820000000  0.4269980000000  0.4207350000000 1.0
C      1  0.4470580000000  0.5033840000000  0.4909830000000 1.0
C      1  0.4396200000000  0.5337790000000  0.4339830000000 1.0
C      1  0.4261410000000  0.4936740000000  0.5621520000000 1.0
C      1  0.5709040000000  0.5281840000000  0.5190100000000 1.0
END
