TITL C-247196-3112-17 -7.38885845269454e-08 125000 -827.127343689204 0 0 136 (C1) n - 1
REM
REM in /home/nfs/bkarasulu/CARBON/AIRSS/Generating-Clusters/LCBOP/Only-C1/SD-CG/FIRE-HFTN
REM
REM
REM
REM
REM
REM ./C.cell (11c1c37f851c82e70ff6c80c92926a4b)
REM AIRSS Version 0.9.1 bugfix July 2018 build 013d7b7c2542+ Fri, 06 Jul 2018 19:26:36 +0100
REM compiler GCC version 9.2.1 20190827 (Red Hat 9.2.1-1)
REM options -cpp -mtune=generic -march=x86-64 -g -O0 -fpre-include=/usr/include/finclude/math-vector-fortran.h
REM seed 312030674 986346218 2028099571 -828440489 -375294127 129067854 -1038360120 -2071194359 1072938335 -1617015312 792835375 -726012845 -406535703 -1117599186 1489866998 -1172806754 -1131849278 -659314773 1306055315 -162242580 -907473967 -1328012532 -420290775 -485879674 330861122 918761991 -1426724946 218981848 -1716221057 1547388197 1416984638 1026563349 -1982379574
REM
CELL 1.54180   50.00000   50.00000   50.00000   90.00000   90.00000   90.00000
LATT -1
SFAC C  
C      1  0.4617530000000  0.4475270000000  0.5646460000000 1.0
C      1  0.4864440000000  0.4591710000000  0.4810210000000 1.0
C      1  0.5503300000000  0.4257920000000  0.4754020000000 1.0
C      1  0.4699880000000  0.4737330000000  0.5256480000000 1.0
C      1  0.5061640000000  0.4387980000000  0.4843340000000 1.0
C      1  0.4763910000000  0.5000750000000  0.5327080000000 1.0
C      1  0.5870610000000  0.5868140000000  0.4770480000000 1.0
C      1  0.5582240000000  0.4752170000000  0.4013830000000 1.0
C      1  0.4651200000000  0.5692070000000  0.4776910000000 1.0
C      1  0.5244590000000  0.4882130000000  0.4745600000000 1.0
C      1  0.5102480000000  0.6623470000000  0.5204630000000 1.0
C      1  0.4717030000000  0.4463570000000  0.5909820000000 1.0
C      1  0.4602720000000  0.4496740000000  0.4858510000000 1.0
C      1  0.5676280000000  0.4306730000000  0.4110630000000 1.0
C      1  0.5862820000000  0.4741650000000  0.5145840000000 1.0
C      1  0.4716790000000  0.5181680000000  0.6429790000000 1.0
C      1  0.4291040000000  0.4121150000000  0.4245460000000 1.0
C      1  0.4807600000000  0.4543380000000  0.5432090000000 1.0
C      1  0.6487580000000  0.5459260000000  0.4853280000000 1.0
C      1  0.5302450000000  0.4787350000000  0.4489120000000 1.0
C      1  0.5205680000000  0.4435590000000  0.4156200000000 1.0
C      1  0.4406010000000  0.4759090000000  0.4215860000000 1.0
C      1  0.5141010000000  0.5606430000000  0.5902430000000 1.0
C      1  0.4770520000000  0.5931850000000  0.5741380000000 1.0
C      1  0.4920380000000  0.5783430000000  0.5910330000000 1.0
C      1  0.5738480000000  0.5187070000000  0.4381060000000 1.0
C      1  0.3719600000000  0.5193550000000  0.4895140000000 1.0
C      1  0.4756550000000  0.4114450000000  0.4571260000000 1.0
C      1  0.5015290000000  0.5475540000000  0.5235250000000 1.0
C      1  0.5428420000000  0.4843460000000  0.4960390000000 1.0
C      1  0.4785090000000  0.4882440000000  0.3921250000000 1.0
C      1  0.5452740000000  0.4475150000000  0.4007650000000 1.0
C      1  0.4836440000000  0.5313930000000  0.4522680000000 1.0
C      1  0.5514940000000  0.5021990000000  0.3931000000000 1.0
C      1  0.5258110000000  0.4343380000000  0.4650480000000 1.0
C      1  0.5907250000000  0.4836220000000  0.5615630000000 1.0
C      1  0.5035070000000  0.5438950000000  0.4959010000000 1.0
C      1  0.4846500000000  0.4080130000000  0.5483630000000 1.0
C      1  0.6143640000000  0.5371870000000  0.4263720000000 1.0
C      1  0.5358430000000  0.4769020000000  0.5633200000000 1.0
C      1  0.4789610000000  0.5964250000000  0.5459820000000 1.0
C      1  0.5407740000000  0.4490350000000  0.5653930000000 1.0
C      1  0.4417280000000  0.4343910000000  0.6340310000000 1.0
C      1  0.4294220000000  0.4491330000000  0.5281700000000 1.0
C      1  0.3779740000000  0.5648270000000  0.4890640000000 1.0
C      1  0.4006650000000  0.4892280000000  0.5330310000000 1.0
C      1  0.3796060000000  0.5413530000000  0.5068310000000 1.0
C      1  0.4319410000000  0.5806990000000  0.5373810000000 1.0
C      1  0.5654240000000  0.4425820000000  0.5512620000000 1.0
C      1  0.5307090000000  0.5439170000000  0.4300060000000 1.0
C      1  0.4949740000000  0.4303240000000  0.4140070000000 1.0
C      1  0.4931400000000  0.4310980000000  0.5325780000000 1.0
C      1  0.5139330000000  0.5653320000000  0.5413220000000 1.0
C      1  0.5566810000000  0.5421880000000  0.4451190000000 1.0
C      1  0.3719690000000  0.5275150000000  0.4630470000000 1.0
C      1  0.5743130000000  0.5318690000000  0.5691410000000 1.0
C      1  0.4107940000000  0.5642390000000  0.5365030000000 1.0
C      1  0.3973530000000  0.5404120000000  0.5285580000000 1.0
C      1  0.3985020000000  0.5663090000000  0.4440160000000 1.0
C      1  0.4562040000000  0.5191740000000  0.5310590000000 1.0
C      1  0.5175700000000  0.5209850000000  0.6273490000000 1.0
C      1  0.4473900000000  0.4225150000000  0.4073600000000 1.0
C      1  0.4968260000000  0.4851740000000  0.4803760000000 1.0
C      1  0.5045410000000  0.4097820000000  0.5701320000000 1.0
C      1  0.5874380000000  0.5087450000000  0.5698690000000 1.0
C      1  0.4242670000000  0.5731950000000  0.4436700000000 1.0
C      1  0.4596300000000  0.5120770000000  0.6198270000000 1.0
C      1  0.4997110000000  0.4533460000000  0.5931450000000 1.0
C      1  0.4277600000000  0.3963950000000  0.4975200000000 1.0
C      1  0.4411500000000  0.3930850000000  0.5210770000000 1.0
C      1  0.3740570000000  0.5906470000000  0.4966970000000 1.0
C      1  0.6035870000000  0.4952150000000  0.5056700000000 1.0
C      1  0.4418170000000  0.4325810000000  0.5494630000000 1.0
C      1  0.4905690000000  0.4109230000000  0.4347050000000 1.0
C      1  0.6118180000000  0.5156230000000  0.4899330000000 1.0
C      1  0.4493180000000  0.4605060000000  0.5100450000000 1.0
C      1  0.4344980000000  0.5189520000000  0.5488700000000 1.0
C      1  0.5771920000000  0.4727380000000  0.4239130000000 1.0
C      1  0.3812310000000  0.4453750000000  0.5280900000000 1.0
C      1  0.5539180000000  0.5483110000000  0.5647190000000 1.0
C      1  0.5256120000000  0.4517870000000  0.4425170000000 1.0
C      1  0.4546860000000  0.4065970000000  0.5423870000000 1.0
C      1  0.4172370000000  0.4200200000000  0.4495210000000 1.0
C      1  0.5298420000000  0.5407330000000  0.4880710000000 1.0
C      1  0.4080810000000  0.4470240000000  0.4484560000000 1.0
C      1  0.5665860000000  0.5521340000000  0.3878780000000 1.0
C      1  0.4197370000000  0.4684090000000  0.4367310000000 1.0
C      1  0.4978740000000  0.5226720000000  0.6476300000000 1.0
C      1  0.5718890000000  0.5242160000000  0.3929930000000 1.0
C      1  0.4876340000000  0.4991160000000  0.5807460000000 1.0
C      1  0.4748730000000  0.4909920000000  0.3650690000000 1.0
C      1  0.4573660000000  0.5892290000000  0.5284270000000 1.0
C      1  0.4971410000000  0.5053660000000  0.4055950000000 1.0
C      1  0.5938150000000  0.5713230000000  0.4543770000000 1.0
C      1  0.5234560000000  0.6099920000000  0.5224130000000 1.0
C      1  0.5695970000000  0.5712610000000  0.4074510000000 1.0
C      1  0.5722410000000  0.5668800000000  0.4356580000000 1.0
C      1  0.4562890000000  0.4243970000000  0.4732890000000 1.0
C      1  0.5690360000000  0.5957530000000  0.4949030000000 1.0
C      1  0.5516160000000  0.5425730000000  0.4736070000000 1.0
C      1  0.6244870000000  0.5370690000000  0.4758620000000 1.0
C      1  0.5716790000000  0.4438890000000  0.4785660000000 1.0
C      1  0.5080330000000  0.4279870000000  0.5097500000000 1.0
C      1  0.5231400000000  0.4947560000000  0.5460030000000 1.0
C      1  0.4963800000000  0.5020770000000  0.5531550000000 1.0
C      1  0.4563320000000  0.4394860000000  0.6130600000000 1.0
C      1  0.5823250000000  0.4649950000000  0.5419950000000 1.0
C      1  0.5060970000000  0.5924200000000  0.5365620000000 1.0
C      1  0.4630290000000  0.5844450000000  0.5011940000000 1.0
C      1  0.5663770000000  0.4669240000000  0.4953970000000 1.0
C      1  0.4885060000000  0.5187980000000  0.4290670000000 1.0
C      1  0.5181270000000  0.4349720000000  0.5785680000000 1.0
C      1  0.5235070000000  0.5079820000000  0.3949960000000 1.0
C      1  0.4633290000000  0.4687310000000  0.4062510000000 1.0
C      1  0.5277400000000  0.5581200000000  0.5650690000000 1.0
C      1  0.3795930000000  0.5553830000000  0.4612270000000 1.0
C      1  0.5727940000000  0.4166130000000  0.5465810000000 1.0
C      1  0.4475690000000  0.5743860000000  0.4564410000000 1.0
C      1  0.4413720000000  0.5160280000000  0.5756480000000 1.0
C      1  0.5756890000000  0.4918950000000  0.4443610000000 1.0
C      1  0.5902620000000  0.4414670000000  0.4571760000000 1.0
C      1  0.6138030000000  0.5501720000000  0.4525030000000 1.0
C      1  0.5470130000000  0.6010260000000  0.5093180000000 1.0
C      1  0.5842760000000  0.4454290000000  0.4298780000000 1.0
C      1  0.4629640000000  0.5091020000000  0.5920480000000 1.0
C      1  0.5215560000000  0.5440010000000  0.6116200000000 1.0
C      1  0.4086830000000  0.5158600000000  0.5378290000000 1.0
C      1  0.4035550000000  0.4611550000000  0.5298620000000 1.0
C      1  0.5911610000000  0.5244850000000  0.4155480000000 1.0
C      1  0.5171190000000  0.6372230000000  0.5213010000000 1.0
C      1  0.5347370000000  0.4962290000000  0.5204840000000 1.0
C      1  0.4835620000000  0.5474150000000  0.4757510000000 1.0
C      1  0.4695890000000  0.4407250000000  0.4050430000000 1.0
C      1  0.5038710000000  0.4815180000000  0.5974700000000 1.0
C      1  0.5204810000000  0.4951990000000  0.6157230000000 1.0
C      1  0.4306700000000  0.4119470000000  0.4739350000000 1.0
END
