TITL C-247202-1916-689 0.142462373343757 125000 -417.314957006567 0 0 70 (C1) n - 1
REM
REM in /home/nfs/bkarasulu/CARBON/AIRSS/Generating-Clusters/LCBOP/Only-C1/SD-CG/FIRE-HFTN
REM
REM
REM
REM
REM
REM ./C.cell (11c1c37f851c82e70ff6c80c92926a4b)
REM AIRSS Version 0.9.1 bugfix July 2018 build 013d7b7c2542+ Fri, 06 Jul 2018 19:26:36 +0100
REM compiler GCC version 9.2.1 20190827 (Red Hat 9.2.1-1)
REM options -cpp -mtune=generic -march=x86-64 -g -O0 -fpre-include=/usr/include/finclude/math-vector-fortran.h
REM seed 51644297 1611085078 1081294646 -2057955603 203452662 446562573 1180984031 -1974941752 2107406245 -665054807 447245752 -1080501753 1038330823 -1734814482 -1928502232 1955830834 -1269494542 520672187 1210254515 -1878681835 1121314908 -38808264 1749396119 -1911476418 268659350 805020512 -2047442720 1040835102 -474161063 -586385002 501644359 -2054155111 -329249735
REM
CELL 1.54180   50.00000   50.00000   50.00000   90.00000   90.00000   90.00000
LATT -1
SFAC C  
C      1  0.4819380000000  0.5054960000000  0.4966730000000 1.0
C      1  0.4382020000000  0.3370490000000  0.5160880000000 1.0
C      1  0.4816320000000  0.5092820000000  0.4483150000000 1.0
C      1  0.5343420000000  0.5745480000000  0.5200250000000 1.0
C      1  0.4714170000000  0.5178540000000  0.4736110000000 1.0
C      1  0.5007830000000  0.5157690000000  0.5884560000000 1.0
C      1  0.4732590000000  0.5139370000000  0.5931560000000 1.0
C      1  0.5654290000000  0.5090990000000  0.6603540000000 1.0
C      1  0.5466760000000  0.4791880000000  0.5944710000000 1.0
C      1  0.4586350000000  0.3822340000000  0.4974210000000 1.0
C      1  0.5881630000000  0.4581560000000  0.5197430000000 1.0
C      1  0.4693570000000  0.4059430000000  0.4876250000000 1.0
C      1  0.4900630000000  0.4196240000000  0.5008990000000 1.0
C      1  0.4607860000000  0.5994320000000  0.4284450000000 1.0
C      1  0.5863070000000  0.5352010000000  0.5069380000000 1.0
C      1  0.5753780000000  0.4658910000000  0.5420500000000 1.0
C      1  0.4557300000000  0.5415010000000  0.4749250000000 1.0
C      1  0.5544950000000  0.4853400000000  0.6192560000000 1.0
C      1  0.5318170000000  0.5303460000000  0.4451280000000 1.0
C      1  0.4179260000000  0.2922150000000  0.5346100000000 1.0
C      1  0.5051390000000  0.4416380000000  0.4991940000000 1.0
C      1  0.4039840000000  0.5389060000000  0.4912130000000 1.0
C      1  0.4780620000000  0.5113720000000  0.5248850000000 1.0
C      1  0.5087010000000  0.4646600000000  0.4833390000000 1.0
C      1  0.4602030000000  0.4178000000000  0.4638000000000 1.0
C      1  0.5465800000000  0.4454330000000  0.4226250000000 1.0
C      1  0.4136350000000  0.4947990000000  0.3792220000000 1.0
C      1  0.5130660000000  0.5031330000000  0.5658890000000 1.0
C      1  0.5070180000000  0.4902050000000  0.4950470000000 1.0
C      1  0.4267240000000  0.5175840000000  0.6062530000000 1.0
C      1  0.4403450000000  0.5192670000000  0.5597420000000 1.0
C      1  0.5542360000000  0.5139210000000  0.4484880000000 1.0
C      1  0.5519130000000  0.5071790000000  0.6368160000000 1.0
C      1  0.4460690000000  0.5169500000000  0.5870870000000 1.0
C      1  0.5666010000000  0.5194000000000  0.5133870000000 1.0
C      1  0.4511570000000  0.4890290000000  0.4155740000000 1.0
C      1  0.4569020000000  0.5838770000000  0.4497430000000 1.0
C      1  0.5285770000000  0.5698940000000  0.5450120000000 1.0
C      1  0.5218060000000  0.4992110000000  0.5177940000000 1.0
C      1  0.5285930000000  0.4542060000000  0.4393230000000 1.0
C      1  0.5226570000000  0.5696190000000  0.4731340000000 1.0
C      1  0.5713470000000  0.4953740000000  0.4569670000000 1.0
C      1  0.4288900000000  0.5405530000000  0.4823350000000 1.0
C      1  0.5378590000000  0.5755990000000  0.4272590000000 1.0
C      1  0.4802650000000  0.4613780000000  0.4440870000000 1.0
C      1  0.5397500000000  0.5801710000000  0.4931530000000 1.0
C      1  0.4787820000000  0.6080310000000  0.4107140000000 1.0
C      1  0.5330360000000  0.5585080000000  0.4489500000000 1.0
C      1  0.5044400000000  0.6056730000000  0.4037110000000 1.0
C      1  0.3798330000000  0.5369790000000  0.5008350000000 1.0
C      1  0.4279800000000  0.3144460000000  0.5254260000000 1.0
C      1  0.5487840000000  0.5011610000000  0.5243940000000 1.0
C      1  0.5555630000000  0.4851180000000  0.5469690000000 1.0
C      1  0.4538660000000  0.5175930000000  0.5368670000000 1.0
C      1  0.5380170000000  0.4881050000000  0.5693550000000 1.0
C      1  0.4683260000000  0.5660710000000  0.4681170000000 1.0
C      1  0.5609570000000  0.5960830000000  0.4863790000000 1.0
C      1  0.5270550000000  0.5931290000000  0.4103130000000 1.0
C      1  0.5903370000000  0.4631430000000  0.4935720000000 1.0
C      1  0.5163590000000  0.5290640000000  0.6076910000000 1.0
C      1  0.4484210000000  0.3596470000000  0.5067520000000 1.0
C      1  0.4948050000000  0.5705430000000  0.4762570000000 1.0
C      1  0.5837890000000  0.4770510000000  0.4717790000000 1.0
C      1  0.5339820000000  0.5268410000000  0.6276500000000 1.0
C      1  0.4322780000000  0.4918970000000  0.3972120000000 1.0
C      1  0.4642960000000  0.4386100000000  0.4475450000000 1.0
C      1  0.4704430000000  0.4865470000000  0.4354610000000 1.0
C      1  0.5066650000000  0.4607420000000  0.4551670000000 1.0
C      1  0.5064950000000  0.5193250000000  0.4400660000000 1.0
C      1  0.5030770000000  0.5064260000000  0.5392620000000 1.0
END
