TITL C-247198-3593-222 267.561284851806 125000 -995.584410796424 0 0 164 (C1) n - 1
REM
REM in /home/nfs/bkarasulu/CARBON/AIRSS/Generating-Clusters/LCBOP/Only-C1/SD-CG/FIRE-HFTN
REM
REM
REM
REM
REM
REM ./C.cell (11c1c37f851c82e70ff6c80c92926a4b)
REM AIRSS Version 0.9.1 bugfix July 2018 build 013d7b7c2542+ Fri, 06 Jul 2018 19:26:36 +0100
REM compiler GCC version 9.2.1 20190827 (Red Hat 9.2.1-1)
REM options -cpp -mtune=generic -march=x86-64 -g -O0 -fpre-include=/usr/include/finclude/math-vector-fortran.h
REM seed -225914174 -1097697334 -567126001 -1556737582 837711207 2112429038 1344034528 786004458 61482977 272100976 -31261807 -1180315110 -587188629 1354641445 -1730685401 9566654 999816311 -1079887220 -230441364 -866023769 -1198969963 1852822496 1256458384 1832615283 1349737719 -823275591 -432884331 -1675809485 -1612689210 -1790887219 1831855134 -699596456 -256171478
REM
CELL 1.54180   50.00000   50.00000   50.00000   90.00000   90.00000   90.00000
LATT -1
SFAC C  
C      1  0.6214390000000  0.4055420000000  0.4139030000000 1.0
C      1  0.5915700000000  0.5339460000000  0.5270920000000 1.0
C      1  0.4266180000000  0.4252660000000  0.4351050000000 1.0
C      1  0.4928660000000  0.5265530000000  0.4246370000000 1.0
C      1  0.5529200000000  0.4287130000000  0.4973840000000 1.0
C      1  0.5345920000000  0.4378850000000  0.5715000000000 1.0
C      1  0.5121710000000  0.4927270000000  0.4042590000000 1.0
C      1  0.4535890000000  0.4586400000000  0.4555040000000 1.0
C      1  0.5517940000000  0.4900580000000  0.5335820000000 1.0
C      1  0.4661140000000  0.5385780000000  0.5102100000000 1.0
C      1  0.4885800000000  0.5545890000000  0.4613750000000 1.0
C      1  0.5335520000000  0.5028370000000  0.6047730000000 1.0
C      1  0.4146430000000  0.5270180000000  0.5127320000000 1.0
C      1  0.5037120000000  0.5656050000000  0.5033340000000 1.0
C      1  0.5448990000000  0.6178980000000  0.5009020000000 1.0
C      1  0.4782100000000  0.4746490000000  0.5479680000000 1.0
C      1  0.4341320000000  0.4046170000000  0.4561750000000 1.0
C      1  0.5017000000000  0.5690870000000  0.5892700000000 1.0
C      1  0.5237520000000  0.3962680000000  0.4373530000000 1.0
C      1  0.5250650000000  0.4751270000000  0.6063320000000 1.0
C      1  0.5750300000000  0.4576210000000  0.5566130000000 1.0
C      1  0.5217560000000  0.5511490000000  0.6008240000000 1.0
C      1  0.4154940000000  0.5043840000000  0.5764560000000 1.0
C      1  0.4817290000000  0.4937620000000  0.4544580000000 1.0
C      1  0.4372700000000  0.5031240000000  0.4132730000000 1.0
C      1  0.4554090000000  0.4841540000000  0.5042960000000 1.0
C      1  0.4483560000000  0.5122240000000  0.5414310000000 1.0
C      1  0.5895850000000  0.4677230000000  0.3931100000000 1.0
C      1  0.6031690000000  0.4562060000000  0.4150760000000 1.0
C      1  0.4480690000000  0.4420700000000  0.5374340000000 1.0
C      1  0.6013730000000  0.6087200000000  0.6100780000000 1.0
C      1  0.4713790000000  0.4779160000000  0.6022770000000 1.0
C      1  0.4330740000000  0.5816850000000  0.4772080000000 1.0
C      1  0.5192020000000  0.5364620000000  0.5485630000000 1.0
C      1  0.5400100000000  0.5015340000000  0.4439460000000 1.0
C      1  0.5018810000000  0.4529240000000  0.4600670000000 1.0
C      1  0.4371610000000  0.4610150000000  0.4779020000000 1.0
C      1  0.4748570000000  0.4643130000000  0.4990420000000 1.0
C      1  0.4941260000000  0.5387870000000  0.5078680000000 1.0
C      1  0.6114550000000  0.5537480000000  0.4776040000000 1.0
C      1  0.6509190000000  0.4938070000000  0.5407040000000 1.0
C      1  0.4421530000000  0.5276530000000  0.6349630000000 1.0
C      1  0.4483110000000  0.5589730000000  0.4257770000000 1.0
C      1  0.4050720000000  0.4662850000000  0.4244880000000 1.0
C      1  0.5428530000000  0.4490960000000  0.4813690000000 1.0
C      1  0.4419530000000  0.5294460000000  0.5204490000000 1.0
C      1  0.5966820000000  0.5068260000000  0.4730380000000 1.0
C      1  0.4648960000000  0.5398420000000  0.4664700000000 1.0
C      1  0.4520050000000  0.5715780000000  0.5627910000000 1.0
C      1  0.5603440000000  0.4853750000000  0.5069050000000 1.0
C      1  0.5772690000000  0.4908620000000  0.3869110000000 1.0
C      1  0.3971010000000  0.5568610000000  0.5414980000000 1.0
C      1  0.3662080000000  0.5161940000000  0.4810690000000 1.0
C      1  0.5057700000000  0.4689810000000  0.5503220000000 1.0
C      1  0.4044230000000  0.4277530000000  0.5446710000000 1.0
C      1  0.6062250000000  0.4726380000000  0.4379080000000 1.0
C      1  0.5379050000000  0.4734740000000  0.4951080000000 1.0
C      1  0.5734760000000  0.5032110000000  0.4889750000000 1.0
C      1  0.5022550000000  0.5381340000000  0.3998220000000 1.0
C      1  0.4445060000000  0.4463950000000  0.4111370000000 1.0
C      1  0.5767500000000  0.5796130000000  0.4556080000000 1.0
C      1  0.3617960000000  0.4443920000000  0.4690300000000 1.0
C      1  0.4929510000000  0.4977220000000  0.4266200000000 1.0
C      1  0.5150730000000  0.4078070000000  0.4130970000000 1.0
C      1  0.4773020000000  0.4432970000000  0.4500670000000 1.0
C      1  0.5979720000000  0.5772710000000  0.5336510000000 1.0
C      1  0.5812610000000  0.4824700000000  0.5687240000000 1.0
C      1  0.5299180000000  0.4525420000000  0.4562780000000 1.0
C      1  0.4998910000000  0.5750400000000  0.4768780000000 1.0
C      1  0.4779370000000  0.4037850000000  0.5485370000000 1.0
C      1  0.3850660000000  0.5353010000000  0.4729860000000 1.0
C      1  0.4312110000000  0.4194040000000  0.5413800000000 1.0
C      1  0.5197020000000  0.3996840000000  0.5162450000000 1.0
C      1  0.3525760000000  0.4663310000000  0.4809400000000 1.0
C      1  0.4785620000000  0.5746960000000  0.5750590000000 1.0
C      1  0.5394240000000  0.4528500000000  0.5955300000000 1.0
C      1  0.4152920000000  0.5743030000000  0.5263450000000 1.0
C      1  0.5590030000000  0.5278130000000  0.4938080000000 1.0
C      1  0.5429770000000  0.5420580000000  0.5374160000000 1.0
C      1  0.4906640000000  0.5185250000000  0.5872430000000 1.0
C      1  0.5263850000000  0.5750380000000  0.4197330000000 1.0
C      1  0.4380590000000  0.4368180000000  0.4926740000000 1.0
C      1  0.3976950000000  0.5279890000000  0.5367300000000 1.0
C      1  0.4023260000000  0.4404480000000  0.4368740000000 1.0
C      1  0.4466540000000  0.5207320000000  0.6090250000000 1.0
C      1  0.4516840000000  0.4646730000000  0.5857230000000 1.0
C      1  0.3914080000000  0.4516710000000  0.5445940000000 1.0
C      1  0.5794430000000  0.5104370000000  0.5796390000000 1.0
C      1  0.6132810000000  0.5266430000000  0.4854110000000 1.0
C      1  0.4677240000000  0.4360630000000  0.3975420000000 1.0
C      1  0.5427770000000  0.4183090000000  0.5216800000000 1.0
C      1  0.6341180000000  0.5084900000000  0.5264240000000 1.0
C      1  0.5894850000000  0.5153180000000  0.4254580000000 1.0
C      1  0.3800800000000  0.4344840000000  0.4524140000000 1.0
C      1  0.5688020000000  0.5678060000000  0.6049700000000 1.0
C      1  0.4799200000000  0.3939410000000  0.4491520000000 1.0
C      1  0.4628500000000  0.4515880000000  0.5611030000000 1.0
C      1  0.5404580000000  0.4745450000000  0.4414390000000 1.0
C      1  0.5577450000000  0.6000140000000  0.4492540000000 1.0
C      1  0.4267430000000  0.4786810000000  0.5836390000000 1.0
C      1  0.5682820000000  0.6072280000000  0.5082320000000 1.0
C      1  0.4832610000000  0.4286790000000  0.5633920000000 1.0
C      1  0.4508360000000  0.3984920000000  0.5345330000000 1.0
C      1  0.4792990000000  0.4193780000000  0.4367850000000 1.0
C      1  0.4411800000000  0.5831550000000  0.5378090000000 1.0
C      1  0.3833810000000  0.5462400000000  0.4479840000000 1.0
C      1  0.5239310000000  0.5192050000000  0.3937070000000 1.0
C      1  0.4975080000000  0.5258550000000  0.5607870000000 1.0
C      1  0.5124770000000  0.5235830000000  0.6042570000000 1.0
C      1  0.5981370000000  0.5517640000000  0.5484720000000 1.0
C      1  0.5119350000000  0.5179320000000  0.4982480000000 1.0
C      1  0.5643120000000  0.5371810000000  0.5195480000000 1.0
C      1  0.3977370000000  0.5047060000000  0.5536520000000 1.0
C      1  0.5955600000000  0.5338080000000  0.5713190000000 1.0
C      1  0.3888340000000  0.4786300000000  0.5456060000000 1.0
C      1  0.5338180000000  0.5287760000000  0.4826440000000 1.0
C      1  0.4365170000000  0.4094350000000  0.4854110000000 1.0
C      1  0.4624280000000  0.5131770000000  0.4628280000000 1.0
C      1  0.4052100000000  0.5429510000000  0.4910480000000 1.0
C      1  0.5728930000000  0.5140260000000  0.4024400000000 1.0
C      1  0.4725670000000  0.5715730000000  0.4139300000000 1.0
C      1  0.4310270000000  0.4740160000000  0.4133290000000 1.0
C      1  0.5880180000000  0.5867740000000  0.5071550000000 1.0
C      1  0.5138220000000  0.5969100000000  0.4660310000000 1.0
C      1  0.5059510000000  0.5385110000000  0.4463480000000 1.0
C      1  0.4144030000000  0.5697570000000  0.4961950000000 1.0
C      1  0.6128030000000  0.4301270000000  0.4143700000000 1.0
C      1  0.4691910000000  0.5063010000000  0.6002870000000 1.0
C      1  0.4929290000000  0.4755610000000  0.4772680000000 1.0
C      1  0.5496530000000  0.5305530000000  0.4009130000000 1.0
C      1  0.4779200000000  0.3831620000000  0.4969780000000 1.0
C      1  0.5721120000000  0.5604750000000  0.4343110000000 1.0
C      1  0.5057550000000  0.3908820000000  0.4905170000000 1.0
C      1  0.4403070000000  0.5307290000000  0.4176780000000 1.0
C      1  0.4348200000000  0.5524220000000  0.5755820000000 1.0
C      1  0.5068280000000  0.3905280000000  0.4608330000000 1.0
C      1  0.6666440000000  0.4791310000000  0.5554320000000 1.0
C      1  0.5283710000000  0.4846690000000  0.5457640000000 1.0
C      1  0.4517820000000  0.5981590000000  0.4913240000000 1.0
C      1  0.5234630000000  0.6159010000000  0.4848540000000 1.0
C      1  0.5849660000000  0.5885500000000  0.6081880000000 1.0
C      1  0.5507140000000  0.5473040000000  0.6001150000000 1.0
C      1  0.5545780000000  0.4361420000000  0.5506320000000 1.0
C      1  0.6139900000000  0.5227140000000  0.5136540000000 1.0
C      1  0.4559720000000  0.5980740000000  0.5183880000000 1.0
C      1  0.3547110000000  0.4925560000000  0.4847110000000 1.0
C      1  0.4890650000000  0.4208250000000  0.4098480000000 1.0
C      1  0.4970920000000  0.4696800000000  0.6110170000000 1.0
C      1  0.5925680000000  0.5750580000000  0.4799100000000 1.0
C      1  0.4366760000000  0.5726150000000  0.4495240000000 1.0
C      1  0.4606430000000  0.4417410000000  0.5112230000000 1.0
C      1  0.5008930000000  0.5665620000000  0.4066830000000 1.0
C      1  0.5024130000000  0.3929480000000  0.5384040000000 1.0
C      1  0.5989980000000  0.4985900000000  0.4462080000000 1.0
C      1  0.5573290000000  0.5181810000000  0.5967620000000 1.0
C      1  0.4521920000000  0.3926340000000  0.5051680000000 1.0
C      1  0.4534340000000  0.3843380000000  0.4492790000000 1.0
C      1  0.5295080000000  0.5255460000000  0.4552430000000 1.0
C      1  0.5087920000000  0.4422520000000  0.5614690000000 1.0
C      1  0.5302710000000  0.5935710000000  0.4425700000000 1.0
C      1  0.4610290000000  0.4899740000000  0.5319650000000 1.0
C      1  0.4289160000000  0.5274920000000  0.5876870000000 1.0
C      1  0.5499590000000  0.5560920000000  0.4159510000000 1.0
C      1  0.5137860000000  0.4891170000000  0.4933890000000 1.0
END
