TITL C-247199-3331-703 9.02369356599996e-05 125000 -771.016261911261 0 0 126 (C1) n - 1
REM
REM in /home/nfs/bkarasulu/CARBON/AIRSS/Generating-Clusters/LCBOP/Only-C1/SD-CG/FIRE-HFTN
REM
REM
REM
REM
REM
REM ./C.cell (11c1c37f851c82e70ff6c80c92926a4b)
REM AIRSS Version 0.9.1 bugfix July 2018 build 013d7b7c2542+ Fri, 06 Jul 2018 19:26:36 +0100
REM compiler GCC version 9.2.1 20190827 (Red Hat 9.2.1-1)
REM options -cpp -mtune=generic -march=x86-64 -g -O0 -fpre-include=/usr/include/finclude/math-vector-fortran.h
REM seed -1915207923 -517189941 1755287337 1080666805 -173862216 -621691352 991729648 619392337 -1131983966 -434427448 -1590911905 -1214871354 1981841627 676947448 869313252 786420773 479966155 -457822317 1482050797 1788464899 -2141881493 1908831754 -903071185 -177452486 -944187711 -493317447 222333634 1488281123 -1329035828 1039090691 -1419807099 -37621196 -1110174083
REM
CELL 1.54180   50.00000   50.00000   50.00000   90.00000   90.00000   90.00000
LATT -1
SFAC C  
C      1  0.5513350000000  0.5194890000000  0.5146890000000 1.0
C      1  0.5425640000000  0.4450100000000  0.4397030000000 1.0
C      1  0.5191880000000  0.4410640000000  0.4778240000000 1.0
C      1  0.5940040000000  0.5323190000000  0.6181790000000 1.0
C      1  0.4280890000000  0.5856100000000  0.5548000000000 1.0
C      1  0.4373300000000  0.5803310000000  0.4908940000000 1.0
C      1  0.4085900000000  0.5202250000000  0.4743510000000 1.0
C      1  0.4451920000000  0.6015290000000  0.5083020000000 1.0
C      1  0.4371090000000  0.4430110000000  0.4425490000000 1.0
C      1  0.5078130000000  0.4651490000000  0.4701820000000 1.0
C      1  0.4814430000000  0.5160590000000  0.3945090000000 1.0
C      1  0.4596980000000  0.5065900000000  0.4658700000000 1.0
C      1  0.4060460000000  0.5143380000000  0.5046600000000 1.0
C      1  0.5335280000000  0.4979660000000  0.5679460000000 1.0
C      1  0.6107910000000  0.4805040000000  0.5004470000000 1.0
C      1  0.4808990000000  0.4156580000000  0.4334340000000 1.0
C      1  0.4467350000000  0.4641340000000  0.4267710000000 1.0
C      1  0.6035520000000  0.4768970000000  0.4728330000000 1.0
C      1  0.5670870000000  0.4642410000000  0.5788640000000 1.0
C      1  0.4534890000000  0.4187800000000  0.4426690000000 1.0
C      1  0.3955720000000  0.5066070000000  0.4273540000000 1.0
C      1  0.5682510000000  0.4920730000000  0.4406730000000 1.0
C      1  0.5010380000000  0.3886000000000  0.5027560000000 1.0
C      1  0.4929290000000  0.4953460000000  0.3820100000000 1.0
C      1  0.5528370000000  0.5846050000000  0.5098300000000 1.0
C      1  0.5350190000000  0.5681180000000  0.4939410000000 1.0
C      1  0.5175130000000  0.4513240000000  0.5731380000000 1.0
C      1  0.4656530000000  0.4992000000000  0.5535590000000 1.0
C      1  0.4693720000000  0.4857430000000  0.4830660000000 1.0
C      1  0.4921500000000  0.4640810000000  0.5715980000000 1.0
C      1  0.4143920000000  0.4846850000000  0.5080800000000 1.0
C      1  0.4798150000000  0.6065810000000  0.4596940000000 1.0
C      1  0.4743010000000  0.6034320000000  0.5093110000000 1.0
C      1  0.5065600000000  0.3629130000000  0.5109690000000 1.0
C      1  0.5848880000000  0.4166770000000  0.5194600000000 1.0
C      1  0.5350000000000  0.5056410000000  0.5368030000000 1.0
C      1  0.5753810000000  0.5383270000000  0.4272470000000 1.0
C      1  0.6046430000000  0.4307560000000  0.5058610000000 1.0
C      1  0.4808880000000  0.4676020000000  0.4638690000000 1.0
C      1  0.4396510000000  0.5211650000000  0.4757440000000 1.0
C      1  0.4186590000000  0.5410430000000  0.5130590000000 1.0
C      1  0.5294960000000  0.5958650000000  0.5492650000000 1.0
C      1  0.4990860000000  0.5291430000000  0.4854790000000 1.0
C      1  0.4660990000000  0.5953320000000  0.4393320000000 1.0
C      1  0.4709620000000  0.4750610000000  0.4371510000000 1.0
C      1  0.4690440000000  0.5041530000000  0.4392000000000 1.0
C      1  0.5408270000000  0.6049300000000  0.5259610000000 1.0
C      1  0.4671300000000  0.5366300000000  0.5252860000000 1.0
C      1  0.5877550000000  0.5441550000000  0.4507940000000 1.0
C      1  0.5664680000000  0.5132060000000  0.4215970000000 1.0
C      1  0.5918810000000  0.5525300000000  0.5119010000000 1.0
C      1  0.4643010000000  0.3849920000000  0.4738270000000 1.0
C      1  0.4948750000000  0.4441150000000  0.3904160000000 1.0
C      1  0.4829300000000  0.5881100000000  0.5315840000000 1.0
C      1  0.5436060000000  0.5401100000000  0.4976200000000 1.0
C      1  0.5082090000000  0.5767520000000  0.4853370000000 1.0
C      1  0.4095710000000  0.5590450000000  0.4435480000000 1.0
C      1  0.6069860000000  0.4923540000000  0.5628810000000 1.0
C      1  0.4661180000000  0.4525700000000  0.5757350000000 1.0
C      1  0.4120820000000  0.5645870000000  0.4943300000000 1.0
C      1  0.4458220000000  0.4044630000000  0.4667440000000 1.0
C      1  0.4284710000000  0.4694560000000  0.5288780000000 1.0
C      1  0.4633340000000  0.4358630000000  0.5510280000000 1.0
C      1  0.5463110000000  0.4744300000000  0.4451780000000 1.0
C      1  0.4318320000000  0.6017790000000  0.5335150000000 1.0
C      1  0.6127290000000  0.5061930000000  0.5407860000000 1.0
C      1  0.4419870000000  0.5367050000000  0.5715580000000 1.0
C      1  0.5076940000000  0.5057690000000  0.5806710000000 1.0
C      1  0.4236950000000  0.4462930000000  0.4688650000000 1.0
C      1  0.4886240000000  0.5556250000000  0.4809430000000 1.0
C      1  0.4909840000000  0.5079390000000  0.6044480000000 1.0
C      1  0.4884510000000  0.4252080000000  0.4080810000000 1.0
C      1  0.4896520000000  0.4905650000000  0.5639350000000 1.0
C      1  0.4648750000000  0.5205340000000  0.4167120000000 1.0
C      1  0.4315450000000  0.4222970000000  0.4841230000000 1.0
C      1  0.5327090000000  0.4168170000000  0.5228850000000 1.0
C      1  0.4895620000000  0.4203190000000  0.5445470000000 1.0
C      1  0.5590190000000  0.4140280000000  0.5247930000000 1.0
C      1  0.5747050000000  0.5488470000000  0.5717220000000 1.0
C      1  0.4317100000000  0.5558910000000  0.4258770000000 1.0
C      1  0.4911340000000  0.6009960000000  0.4853490000000 1.0
C      1  0.5601390000000  0.5597010000000  0.5506930000000 1.0
C      1  0.4845150000000  0.5607220000000  0.5369870000000 1.0
C      1  0.5019190000000  0.4075500000000  0.4525690000000 1.0
C      1  0.5050830000000  0.4096700000000  0.5216360000000 1.0
C      1  0.6131540000000  0.4562670000000  0.5151510000000 1.0
C      1  0.4315680000000  0.5626960000000  0.5684250000000 1.0
C      1  0.4356350000000  0.4248160000000  0.5117370000000 1.0
C      1  0.5159730000000  0.5123370000000  0.4687950000000 1.0
C      1  0.5400470000000  0.4695940000000  0.5741420000000 1.0
C      1  0.5255920000000  0.4252470000000  0.4546800000000 1.0
C      1  0.5103510000000  0.5506740000000  0.5462120000000 1.0
C      1  0.4195090000000  0.5068790000000  0.4125850000000 1.0
C      1  0.4971540000000  0.4690000000000  0.3810970000000 1.0
C      1  0.5717400000000  0.5676650000000  0.5250250000000 1.0
C      1  0.4547390000000  0.4716330000000  0.5954900000000 1.0
C      1  0.5114630000000  0.5242460000000  0.5350240000000 1.0
C      1  0.5882120000000  0.4971390000000  0.4610570000000 1.0
C      1  0.4481010000000  0.5372650000000  0.5021920000000 1.0
C      1  0.3934300000000  0.5056480000000  0.4541810000000 1.0
C      1  0.6074940000000  0.4284140000000  0.4776530000000 1.0
C      1  0.4905070000000  0.5189220000000  0.5133980000000 1.0
C      1  0.4035030000000  0.5505950000000  0.4699370000000 1.0
C      1  0.4622500000000  0.4997060000000  0.6032530000000 1.0
C      1  0.4445540000000  0.5212550000000  0.5955680000000 1.0
C      1  0.4422620000000  0.4435800000000  0.5320450000000 1.0
C      1  0.5277690000000  0.4787680000000  0.5245230000000 1.0
C      1  0.4133550000000  0.4683510000000  0.4835460000000 1.0
C      1  0.4918090000000  0.3922220000000  0.4759760000000 1.0
C      1  0.6096110000000  0.5061590000000  0.5128730000000 1.0
C      1  0.5998950000000  0.5289150000000  0.4980790000000 1.0
C      1  0.4832590000000  0.4902370000000  0.5073680000000 1.0
C      1  0.5929300000000  0.5243870000000  0.4704980000000 1.0
C      1  0.5026310000000  0.4720780000000  0.5170950000000 1.0
C      1  0.5107840000000  0.4246810000000  0.5652650000000 1.0
C      1  0.4376960000000  0.5297090000000  0.4147980000000 1.0
C      1  0.5849300000000  0.5414590000000  0.5950140000000 1.0
C      1  0.5913490000000  0.4748800000000  0.5755700000000 1.0
C      1  0.6029220000000  0.5221290000000  0.6404540000000 1.0
C      1  0.4546950000000  0.5243090000000  0.5492270000000 1.0
C      1  0.6070380000000  0.4508360000000  0.4622830000000 1.0
C      1  0.4599130000000  0.5613300000000  0.4868240000000 1.0
C      1  0.4313220000000  0.4808530000000  0.4098420000000 1.0
C      1  0.5321770000000  0.5675400000000  0.5538250000000 1.0
C      1  0.5247470000000  0.4860370000000  0.4611080000000 1.0
C      1  0.4510090000000  0.5768130000000  0.4269230000000 1.0
END
