TITL C-247202-1916-420 397.730302044062 125000 -172.24513122489 0 0 31 (C1) n - 1
REM
REM in /home/nfs/bkarasulu/CARBON/AIRSS/Generating-Clusters/LCBOP/Only-C1/SD-CG/FIRE-HFTN
REM
REM
REM
REM
REM
REM ./C.cell (11c1c37f851c82e70ff6c80c92926a4b)
REM AIRSS Version 0.9.1 bugfix July 2018 build 013d7b7c2542+ Fri, 06 Jul 2018 19:26:36 +0100
REM compiler GCC version 9.2.1 20190827 (Red Hat 9.2.1-1)
REM options -cpp -mtune=generic -march=x86-64 -g -O0 -fpre-include=/usr/include/finclude/math-vector-fortran.h
REM seed 1537622411 1747942491 867437076 1664836430 -114013209 -696451113 -1494984908 1362645289 -1143775360 311936053 296317842 -1771215217 -750450386 -891389713 -1381260591 -1234918869 403942577 -138545200 -1969209321 -1860182564 164713125 -1905534778 -642010095 1510054558 428589215 -1231064152 1221709618 1795966509 911734411 -2047223750 1202831765 -1175737970 1408485385
REM
CELL 1.54180   50.00000   50.00000   50.00000   90.00000   90.00000   90.00000
LATT -1
SFAC C  
C      1  0.4297590000000  0.5063680000000  0.5507360000000 1.0
C      1  0.5751050000000  0.4621290000000  0.4023810000000 1.0
C      1  0.3970240000000  0.5453770000000  0.5637940000000 1.0
C      1  0.5305600000000  0.4736190000000  0.4704390000000 1.0
C      1  0.5111200000000  0.5443170000000  0.5675380000000 1.0
C      1  0.5779530000000  0.4365070000000  0.3916170000000 1.0
C      1  0.5874380000000  0.4839300000000  0.3900110000000 1.0
C      1  0.5382450000000  0.4916010000000  0.4911530000000 1.0
C      1  0.5455440000000  0.4695970000000  0.4474430000000 1.0
C      1  0.4654290000000  0.4668490000000  0.5397380000000 1.0
C      1  0.4733780000000  0.5722570000000  0.5546180000000 1.0
C      1  0.4524760000000  0.5823250000000  0.5382910000000 1.0
C      1  0.4920300000000  0.5514590000000  0.5493920000000 1.0
C      1  0.5073720000000  0.4904580000000  0.5269190000000 1.0
C      1  0.4641170000000  0.4422080000000  0.5528250000000 1.0
C      1  0.4133700000000  0.5261520000000  0.5572520000000 1.0
C      1  0.4462230000000  0.4864780000000  0.5448370000000 1.0
C      1  0.5059050000000  0.5177800000000  0.5154760000000 1.0
C      1  0.4511520000000  0.5685470000000  0.5135360000000 1.0
C      1  0.4358650000000  0.6025990000000  0.5454560000000 1.0
C      1  0.4862800000000  0.4720150000000  0.5215070000000 1.0
C      1  0.5249560000000  0.5175830000000  0.4934350000000 1.0
C      1  0.5989390000000  0.5042730000000  0.3784720000000 1.0
C      1  0.5599240000000  0.4659490000000  0.4255140000000 1.0
C      1  0.4683490000000  0.5485000000000  0.5074060000000 1.0
C      1  0.4631940000000  0.4190770000000  0.5647940000000 1.0
C      1  0.5339580000000  0.4811630000000  0.5183710000000 1.0
C      1  0.5806130000000  0.4126030000000  0.3815820000000 1.0
C      1  0.4893350000000  0.5385820000000  0.5237620000000 1.0
C      1  0.4883350000000  0.4595380000000  0.4960490000000 1.0
C      1  0.5060530000000  0.4601620000000  0.4756560000000 1.0
END
