TITL C-247197-3123-718 -1033.73019789505 125000 -1080.55412775486 0 0 181 (C1) n - 1
REM
REM in /home/nfs/bkarasulu/CARBON/AIRSS/Generating-Clusters/LCBOP/Only-C1/SD-CG/FIRE-HFTN
REM
REM
REM
REM
REM
REM ./C.cell (11c1c37f851c82e70ff6c80c92926a4b)
REM AIRSS Version 0.9.1 bugfix July 2018 build 013d7b7c2542+ Fri, 06 Jul 2018 19:26:36 +0100
REM compiler GCC version 9.2.1 20190827 (Red Hat 9.2.1-1)
REM options -cpp -mtune=generic -march=x86-64 -g -O0 -fpre-include=/usr/include/finclude/math-vector-fortran.h
REM seed -1767847773 1952994915 341034346 1040988308 -1882286882 -1440126492 755582425 -2066971636 818584576 1358981082 -749251198 1260709605 -1454889804 1623701093 762958221 518833275 1860374718 -1780409873 -886642334 -949964169 991855216 -1916072324 -1558312628 -1984272719 1919409999 1789608361 1899364334 -1481991448 635096827 -1844454096 9900296 -368462173 -1847212391
REM
CELL 1.54180   50.00000   50.00000   50.00000   90.00000   90.00000   90.00000
LATT -1
SFAC C  
C      1  0.4772650000000  0.4862570000000  0.5313220000000 1.0
C      1  0.5256280000000  0.4376120000000  0.5176790000000 1.0
C      1  0.3984120000000  0.5190100000000  0.5808820000000 1.0
C      1  0.4368220000000  0.5501500000000  0.5903990000000 1.0
C      1  0.5343520000000  0.5832160000000  0.4500460000000 1.0
C      1  0.4374710000000  0.5787530000000  0.4482150000000 1.0
C      1  0.6140410000000  0.5225550000000  0.5019190000000 1.0
C      1  0.4552130000000  0.4681920000000  0.5195060000000 1.0
C      1  0.5053220000000  0.3658530000000  0.5147680000000 1.0
C      1  0.4795950000000  0.5131750000000  0.6128410000000 1.0
C      1  0.5643570000000  0.4484500000000  0.5792550000000 1.0
C      1  0.5003300000000  0.4267240000000  0.5146990000000 1.0
C      1  0.4289560000000  0.5440460000000  0.4134730000000 1.0
C      1  0.5779640000000  0.5366290000000  0.4184560000000 1.0
C      1  0.5909590000000  0.5773380000000  0.5094980000000 1.0
C      1  0.4559030000000  0.3833260000000  0.4405580000000 1.0
C      1  0.4717210000000  0.5013380000000  0.5575240000000 1.0
C      1  0.5345670000000  0.5694730000000  0.4247120000000 1.0
C      1  0.5171400000000  0.4237460000000  0.5786270000000 1.0
C      1  0.5217640000000  0.5844300000000  0.5571960000000 1.0
C      1  0.4288870000000  0.5184590000000  0.4936800000000 1.0
C      1  0.4256310000000  0.4919210000000  0.5511830000000 1.0
C      1  0.4925150000000  0.5027160000000  0.4637040000000 1.0
C      1  0.4800730000000  0.4597640000000  0.4298920000000 1.0
C      1  0.6088820000000  0.4778140000000  0.5629860000000 1.0
C      1  0.5464930000000  0.4809210000000  0.4622990000000 1.0
C      1  0.4724170000000  0.5344650000000  0.5070070000000 1.0
C      1  0.5663320000000  0.5887890000000  0.5548240000000 1.0
C      1  0.4824940000000  0.4186820000000  0.5364040000000 1.0
C      1  0.4156760000000  0.5872730000000  0.5133080000000 1.0
C      1  0.4477870000000  0.4892080000000  0.5677650000000 1.0
C      1  0.4127350000000  0.5470610000000  0.5459840000000 1.0
C      1  0.5423720000000  0.5112890000000  0.3919840000000 1.0
C      1  0.5636110000000  0.4920220000000  0.5479040000000 1.0
C      1  0.4160310000000  0.3615840000000  0.4566470000000 1.0
C      1  0.4447100000000  0.5337810000000  0.5116740000000 1.0
C      1  0.5209190000000  0.4175820000000  0.4149690000000 1.0
C      1  0.5252870000000  0.5404840000000  0.5343230000000 1.0
C      1  0.5072820000000  0.5247080000000  0.6141170000000 1.0
C      1  0.4800600000000  0.3967460000000  0.4358650000000 1.0
C      1  0.4473530000000  0.3786990000000  0.4889900000000 1.0
C      1  0.5493310000000  0.5783480000000  0.4756250000000 1.0
C      1  0.5169740000000  0.4448970000000  0.4552830000000 1.0
C      1  0.4867330000000  0.5095830000000  0.4329650000000 1.0
C      1  0.4470730000000  0.4770160000000  0.4052940000000 1.0
C      1  0.4055480000000  0.5632380000000  0.4969870000000 1.0
C      1  0.4456130000000  0.5728940000000  0.5743270000000 1.0
C      1  0.6078830000000  0.5244030000000  0.5517190000000 1.0
C      1  0.4234360000000  0.4471120000000  0.5692590000000 1.0
C      1  0.5902640000000  0.5116690000000  0.4222620000000 1.0
C      1  0.5080870000000  0.4595980000000  0.4321080000000 1.0
C      1  0.4198110000000  0.4217770000000  0.5786440000000 1.0
C      1  0.5449600000000  0.5773100000000  0.5722210000000 1.0
C      1  0.6153920000000  0.4814790000000  0.5339940000000 1.0
C      1  0.5049110000000  0.5746410000000  0.4996680000000 1.0
C      1  0.5523340000000  0.4026690000000  0.4655130000000 1.0
C      1  0.4734950000000  0.4597120000000  0.5941300000000 1.0
C      1  0.5016990000000  0.5316600000000  0.4710650000000 1.0
C      1  0.5076490000000  0.3792500000000  0.4703030000000 1.0
C      1  0.4362840000000  0.5130910000000  0.4671670000000 1.0
C      1  0.3800310000000  0.4790450000000  0.5269050000000 1.0
C      1  0.3686260000000  0.4732690000000  0.5015510000000 1.0
C      1  0.5885750000000  0.5490090000000  0.4706930000000 1.0
C      1  0.6102240000000  0.5116200000000  0.6001390000000 1.0
C      1  0.4462200000000  0.5240650000000  0.3960800000000 1.0
C      1  0.3845270000000  0.5072750000000  0.5347500000000 1.0
C      1  0.4493610000000  0.4498290000000  0.3986660000000 1.0
C      1  0.4312450000000  0.6015000000000  0.5346890000000 1.0
C      1  0.4300500000000  0.4809900000000  0.5249430000000 1.0
C      1  0.5089090000000  0.5632070000000  0.5434850000000 1.0
C      1  0.4122740000000  0.5427880000000  0.5757360000000 1.0
C      1  0.4482150000000  0.4623070000000  0.5785250000000 1.0
C      1  0.4587920000000  0.5794040000000  0.4918580000000 1.0
C      1  0.3945490000000  0.5398140000000  0.5237270000000 1.0
C      1  0.5419240000000  0.5020900000000  0.5633220000000 1.0
C      1  0.4575550000000  0.6137790000000  0.5306790000000 1.0
C      1  0.4072770000000  0.5432610000000  0.4377820000000 1.0
C      1  0.4396120000000  0.3744260000000  0.4620390000000 1.0
C      1  0.5518200000000  0.4719800000000  0.5086260000000 1.0
C      1  0.5079490000000  0.6246540000000  0.4540370000000 1.0
C      1  0.6087450000000  0.5052740000000  0.5737160000000 1.0
C      1  0.5549170000000  0.4861320000000  0.4347750000000 1.0
C      1  0.4850550000000  0.5096100000000  0.5134260000000 1.0
C      1  0.5830450000000  0.4838730000000  0.4296710000000 1.0
C      1  0.4887160000000  0.3943410000000  0.5497340000000 1.0
C      1  0.5152940000000  0.4640950000000  0.4032730000000 1.0
C      1  0.5429760000000  0.4476880000000  0.4974870000000 1.0
C      1  0.5542950000000  0.5526260000000  0.4106040000000 1.0
C      1  0.5460460000000  0.5272230000000  0.4836780000000 1.0
C      1  0.5883630000000  0.4557090000000  0.4385850000000 1.0
C      1  0.5002600000000  0.4702050000000  0.5409410000000 1.0
C      1  0.4589220000000  0.4421780000000  0.5056810000000 1.0
C      1  0.5409980000000  0.4937580000000  0.5911220000000 1.0
C      1  0.4769530000000  0.5119590000000  0.3838170000000 1.0
C      1  0.5700300000000  0.4349720000000  0.4269600000000 1.0
C      1  0.5031650000000  0.5651300000000  0.4075930000000 1.0
C      1  0.5209590000000  0.5179140000000  0.5520430000000 1.0
C      1  0.5219670000000  0.3761830000000  0.4941650000000 1.0
C      1  0.5414780000000  0.4517240000000  0.4694240000000 1.0
C      1  0.4747610000000  0.5371780000000  0.4359190000000 1.0
C      1  0.5308780000000  0.4401190000000  0.3980920000000 1.0
C      1  0.5570930000000  0.4005910000000  0.5198610000000 1.0
C      1  0.5768830000000  0.5722370000000  0.4834870000000 1.0
C      1  0.6192210000000  0.5720600000000  0.5058250000000 1.0
C      1  0.5921480000000  0.5220270000000  0.4822520000000 1.0
C      1  0.5377690000000  0.5596540000000  0.5941450000000 1.0
C      1  0.5334750000000  0.4923080000000  0.5087570000000 1.0
C      1  0.4005030000000  0.5026510000000  0.5584470000000 1.0
C      1  0.4715260000000  0.4838110000000  0.4717400000000 1.0
C      1  0.5829980000000  0.5724780000000  0.5377490000000 1.0
C      1  0.4286750000000  0.5940870000000  0.5631180000000 1.0
C      1  0.5979430000000  0.4671560000000  0.5169530000000 1.0
C      1  0.5099370000000  0.3962720000000  0.5682340000000 1.0
C      1  0.5221590000000  0.4552150000000  0.5397160000000 1.0
C      1  0.4860590000000  0.5808470000000  0.4564710000000 1.0
C      1  0.5121360000000  0.5490680000000  0.3851690000000 1.0
C      1  0.4913920000000  0.5441130000000  0.5771960000000 1.0
C      1  0.4973730000000  0.4841440000000  0.3886520000000 1.0
C      1  0.6291290000000  0.5471220000000  0.5009400000000 1.0
C      1  0.5107840000000  0.6103020000000  0.5478780000000 1.0
C      1  0.5385600000000  0.5434340000000  0.5078890000000 1.0
C      1  0.5392270000000  0.5394850000000  0.3884610000000 1.0
C      1  0.4590300000000  0.5877040000000  0.4647610000000 1.0
C      1  0.5350580000000  0.5141330000000  0.6102200000000 1.0
C      1  0.4973010000000  0.4282000000000  0.4679770000000 1.0
C      1  0.5346280000000  0.3840400000000  0.5598380000000 1.0
C      1  0.5340230000000  0.6261870000000  0.5431440000000 1.0
C      1  0.4392190000000  0.5473230000000  0.5355290000000 1.0
C      1  0.4821520000000  0.5739590000000  0.5421430000000 1.0
C      1  0.3545150000000  0.4501190000000  0.4978030000000 1.0
C      1  0.4555310000000  0.5316040000000  0.6055680000000 1.0
C      1  0.4687310000000  0.4858760000000  0.4231960000000 1.0
C      1  0.4925390000000  0.5327910000000  0.3730850000000 1.0
C      1  0.4947940000000  0.4011450000000  0.4593940000000 1.0
C      1  0.5593400000000  0.4414240000000  0.4003570000000 1.0
C      1  0.5391930000000  0.5029720000000  0.4189140000000 1.0
C      1  0.4714740000000  0.4373210000000  0.4125610000000 1.0
C      1  0.4142840000000  0.5627030000000  0.4616480000000 1.0
C      1  0.5950140000000  0.5493690000000  0.5498930000000 1.0
C      1  0.4745010000000  0.5603570000000  0.4158480000000 1.0
C      1  0.4583090000000  0.3880790000000  0.5131930000000 1.0
C      1  0.4564830000000  0.4168540000000  0.5214930000000 1.0
C      1  0.4830360000000  0.6036880000000  0.5392360000000 1.0
C      1  0.4898440000000  0.4144500000000  0.4155300000000 1.0
C      1  0.5520500000000  0.5380430000000  0.6070920000000 1.0
C      1  0.4487680000000  0.5303700000000  0.4496170000000 1.0
C      1  0.4455150000000  0.4864830000000  0.4652840000000 1.0
C      1  0.4884910000000  0.5522410000000  0.4578260000000 1.0
C      1  0.4849200000000  0.4361510000000  0.4919670000000 1.0
C      1  0.5507220000000  0.4677130000000  0.5955500000000 1.0
C      1  0.5720920000000  0.4752680000000  0.5264350000000 1.0
C      1  0.4177480000000  0.4954070000000  0.5048090000000 1.0
C      1  0.5666720000000  0.5085300000000  0.4797410000000 1.0
C      1  0.4935700000000  0.5192740000000  0.5633870000000 1.0
C      1  0.4797540000000  0.5619950000000  0.5007510000000 1.0
C      1  0.5091070000000  0.5973690000000  0.4536760000000 1.0
C      1  0.5288640000000  0.5306270000000  0.4606980000000 1.0
C      1  0.5472430000000  0.4273050000000  0.5684360000000 1.0
C      1  0.6155100000000  0.5098630000000  0.5274050000000 1.0
C      1  0.5318900000000  0.5693640000000  0.4966280000000 1.0
C      1  0.4818750000000  0.3753990000000  0.5281210000000 1.0
C      1  0.6000230000000  0.4526650000000  0.4645650000000 1.0
C      1  0.5526020000000  0.4042570000000  0.5485520000000 1.0
C      1  0.5092220000000  0.5504270000000  0.5984300000000 1.0
C      1  0.5912990000000  0.4566650000000  0.5720690000000 1.0
C      1  0.3681430000000  0.5245240000000  0.4169580000000 1.0
C      1  0.3718070000000  0.4915400000000  0.4799870000000 1.0
C      1  0.3976260000000  0.4573750000000  0.5474340000000 1.0
C      1  0.5184950000000  0.4893230000000  0.4662960000000 1.0
C      1  0.4781420000000  0.4841100000000  0.6098940000000 1.0
C      1  0.4958370000000  0.4413340000000  0.5886220000000 1.0
C      1  0.6026100000000  0.4565860000000  0.4911690000000 1.0
C      1  0.3848430000000  0.5255460000000  0.4387220000000 1.0
C      1  0.4457660000000  0.5688660000000  0.4205360000000 1.0
C      1  0.5463740000000  0.3924410000000  0.4936410000000 1.0
C      1  0.5113630000000  0.5057560000000  0.5067230000000 1.0
C      1  0.5229330000000  0.5193450000000  0.4340820000000 1.0
C      1  0.5592890000000  0.6156750000000  0.5464800000000 1.0
C      1  0.5492950000000  0.4145980000000  0.4382470000000 1.0
C      1  0.3789820000000  0.5091140000000  0.4610510000000 1.0
C      1  0.4582110000000  0.5622940000000  0.5502960000000 1.0
END
