TITL C-247195-3186-475 4.4725638298516e-06 125000 -311.548085473412 0 0 53 (C1) n - 1
REM
REM in /home/nfs/bkarasulu/CARBON/AIRSS/Generating-Clusters/LCBOP/Only-C1/SD-CG/FIRE-HFTN
REM
REM
REM
REM
REM
REM ./C.cell (11c1c37f851c82e70ff6c80c92926a4b)
REM AIRSS Version 0.9.1 bugfix July 2018 build 013d7b7c2542+ Fri, 06 Jul 2018 19:26:36 +0100
REM compiler GCC version 9.2.1 20190827 (Red Hat 9.2.1-1)
REM options -cpp -mtune=generic -march=x86-64 -g -O0 -fpre-include=/usr/include/finclude/math-vector-fortran.h
REM seed -782779798 2019075427 -1249820757 1569597687 1868141497 1305158633 -1079592684 -1391872612 -54564319 -1478717903 1483422367 -2109459217 -281188441 452084885 1772045581 1778804607 -982260605 181642011 -264706222 1001720555 1911437696 625866149 -207382647 -670450587 -2060550630 -505213837 1312287628 -1144773460 -242994886 -1137290841 -1129183649 -2108603701 -1926132456
REM
CELL 1.54180   50.00000   50.00000   50.00000   90.00000   90.00000   90.00000
LATT -1
SFAC C  
C      1  0.5252500000000  0.5672710000000  0.4870470000000 1.0
C      1  0.4990370000000  0.5697150000000  0.4775880000000 1.0
C      1  0.4996750000000  0.5006710000000  0.6166990000000 1.0
C      1  0.4995040000000  0.5025980000000  0.6692260000000 1.0
C      1  0.5171750000000  0.4972150000000  0.5348870000000 1.0
C      1  0.5755260000000  0.4621810000000  0.4861350000000 1.0
C      1  0.4678730000000  0.4723090000000  0.5060310000000 1.0
C      1  0.5127710000000  0.4933250000000  0.5072270000000 1.0
C      1  0.4654400000000  0.5352270000000  0.4827940000000 1.0
C      1  0.5951880000000  0.4485850000000  0.4965120000000 1.0
C      1  0.4976410000000  0.4756540000000  0.5740800000000 1.0
C      1  0.4821390000000  0.5442050000000  0.5768870000000 1.0
C      1  0.4861250000000  0.4924780000000  0.4970290000000 1.0
C      1  0.5345170000000  0.4877990000000  0.4906460000000 1.0
C      1  0.5155000000000  0.5226950000000  0.5479600000000 1.0
C      1  0.4579630000000  0.5722540000000  0.4517560000000 1.0
C      1  0.4536710000000  0.4574750000000  0.5514950000000 1.0
C      1  0.4381590000000  0.5273460000000  0.5281160000000 1.0
C      1  0.4639450000000  0.4491380000000  0.4899980000000 1.0
C      1  0.5694720000000  0.4334870000000  0.4025290000000 1.0
C      1  0.4821370000000  0.5036560000000  0.4501220000000 1.0
C      1  0.5181960000000  0.4446580000000  0.4428240000000 1.0
C      1  0.4780300000000  0.5104640000000  0.4763590000000 1.0
C      1  0.4376900000000  0.4996440000000  0.5324290000000 1.0
C      1  0.5008580000000  0.5237380000000  0.5727590000000 1.0
C      1  0.4860430000000  0.4321510000000  0.4843560000000 1.0
C      1  0.4740540000000  0.5593840000000  0.4705400000000 1.0
C      1  0.5157480000000  0.4750230000000  0.5523290000000 1.0
C      1  0.4268030000000  0.5951570000000  0.4161560000000 1.0
C      1  0.5543020000000  0.4762130000000  0.4747070000000 1.0
C      1  0.4579580000000  0.5517920000000  0.5684570000000 1.0
C      1  0.4360640000000  0.4366790000000  0.5533550000000 1.0
C      1  0.5292050000000  0.5610060000000  0.5140300000000 1.0
C      1  0.4457300000000  0.5359960000000  0.5026120000000 1.0
C      1  0.5524240000000  0.4788820000000  0.4464220000000 1.0
C      1  0.5640030000000  0.5292720000000  0.4369780000000 1.0
C      1  0.4929620000000  0.4123280000000  0.5018980000000 1.0
C      1  0.5609160000000  0.5029390000000  0.4349850000000 1.0
C      1  0.4400180000000  0.5448360000000  0.5499150000000 1.0
C      1  0.4737300000000  0.4615200000000  0.5708050000000 1.0
C      1  0.5491300000000  0.4515340000000  0.4055250000000 1.0
C      1  0.4992380000000  0.5000010000000  0.5889290000000 1.0
C      1  0.4524560000000  0.4759520000000  0.5298080000000 1.0
C      1  0.4392080000000  0.4434400000000  0.4797360000000 1.0
C      1  0.4422800000000  0.5838390000000  0.4338200000000 1.0
C      1  0.5259400000000  0.4754710000000  0.3630270000000 1.0
C      1  0.5006930000000  0.4361750000000  0.4608490000000 1.0
C      1  0.4996100000000  0.5016230000000  0.6431740000000 1.0
C      1  0.5397910000000  0.4583540000000  0.4314400000000 1.0
C      1  0.5593160000000  0.5520220000000  0.4499200000000 1.0
C      1  0.5254120000000  0.5454780000000  0.5352550000000 1.0
C      1  0.5372770000000  0.4635070000000  0.3832140000000 1.0
C      1  0.5462120000000  0.5656380000000  0.4686210000000 1.0
END
