TITL C-247200-3482-519 4987.90443982965 125000 -1064.55709087628 0 0 172 (C1) n - 1
REM
REM in /home/nfs/bkarasulu/CARBON/AIRSS/Generating-Clusters/LCBOP/Only-C1/SD-CG/FIRE-HFTN
REM
REM
REM
REM
REM
REM ./C.cell (11c1c37f851c82e70ff6c80c92926a4b)
REM AIRSS Version 0.9.1 bugfix July 2018 build 013d7b7c2542+ Fri, 06 Jul 2018 19:26:36 +0100
REM compiler GCC version 9.2.1 20190827 (Red Hat 9.2.1-1)
REM options -cpp -mtune=generic -march=x86-64 -g -O0 -fpre-include=/usr/include/finclude/math-vector-fortran.h
REM seed -1610504281 -1739387946 1927607837 -861525670 1472616051 -597513191 -806559012 -1321578760 1569708606 1814975363 1389812082 -1154598011 -953899679 1520050227 -15720138 1788627241 -2090348175 531617996 691581841 -1361191766 -279966277 395081098 -1666522405 1043506980 -679051808 5654665 786023618 1514463858 -562815740 1734913191 -1381763352 1573946343 842038935
REM
CELL 1.54180   50.00000   50.00000   50.00000   90.00000   90.00000   90.00000
LATT -1
SFAC C  
C      1  0.4843980000000  0.5098720000000  0.6253580000000 1.0
C      1  0.5502670000000  0.4921240000000  0.5319700000000 1.0
C      1  0.4964740000000  0.4724720000000  0.5846240000000 1.0
C      1  0.4072690000000  0.4375180000000  0.4503060000000 1.0
C      1  0.6235640000000  0.5761520000000  0.4943840000000 1.0
C      1  0.4464410000000  0.4039730000000  0.4497170000000 1.0
C      1  0.4326020000000  0.4388210000000  0.5189970000000 1.0
C      1  0.4318800000000  0.4831420000000  0.3917120000000 1.0
C      1  0.4196290000000  0.5406760000000  0.5266920000000 1.0
C      1  0.4409800000000  0.5499170000000  0.5816540000000 1.0
C      1  0.5387990000000  0.4483850000000  0.5656730000000 1.0
C      1  0.6019760000000  0.4526510000000  0.5390670000000 1.0
C      1  0.5043720000000  0.5208070000000  0.5863310000000 1.0
C      1  0.4041780000000  0.4706590000000  0.5337670000000 1.0
C      1  0.4307640000000  0.4200060000000  0.4951820000000 1.0
C      1  0.3838800000000  0.5349770000000  0.4580810000000 1.0
C      1  0.5716370000000  0.5083160000000  0.4827050000000 1.0
C      1  0.4596630000000  0.5825530000000  0.4333080000000 1.0
C      1  0.5386820000000  0.5143720000000  0.6183610000000 1.0
C      1  0.5145170000000  0.4039350000000  0.5696420000000 1.0
C      1  0.5580960000000  0.4274390000000  0.5582920000000 1.0
C      1  0.4105430000000  0.5364450000000  0.4992600000000 1.0
C      1  0.4406530000000  0.4623260000000  0.4801660000000 1.0
C      1  0.5003200000000  0.4652440000000  0.5368860000000 1.0
C      1  0.4516370000000  0.6079960000000  0.5355410000000 1.0
C      1  0.5771980000000  0.4119680000000  0.4777930000000 1.0
C      1  0.5314930000000  0.5823610000000  0.4123280000000 1.0
C      1  0.5031630000000  0.4248310000000  0.5859110000000 1.0
C      1  0.4247150000000  0.4199610000000  0.4648310000000 1.0
C      1  0.5673380000000  0.4955950000000  0.5536390000000 1.0
C      1  0.5257950000000  0.6070990000000  0.4042250000000 1.0
C      1  0.4793710000000  0.4299320000000  0.4636840000000 1.0
C      1  0.4903110000000  0.3788600000000  0.5096290000000 1.0
C      1  0.6098610000000  0.5474360000000  0.5362260000000 1.0
C      1  0.4651600000000  0.5433140000000  0.5952160000000 1.0
C      1  0.3871570000000  0.6071160000000  0.4371000000000 1.0
C      1  0.5038800000000  0.4897340000000  0.5245410000000 1.0
C      1  0.4006090000000  0.5347700000000  0.4333420000000 1.0
C      1  0.4680460000000  0.6038200000000  0.4174990000000 1.0
C      1  0.4666090000000  0.4260170000000  0.4021920000000 1.0
C      1  0.6105210000000  0.4559100000000  0.5118820000000 1.0
C      1  0.5211850000000  0.4609470000000  0.4722440000000 1.0
C      1  0.4762720000000  0.4832340000000  0.4496580000000 1.0
C      1  0.4799690000000  0.4499180000000  0.5266980000000 1.0
C      1  0.5406970000000  0.5559080000000  0.5298980000000 1.0
C      1  0.5730740000000  0.4571850000000  0.4632300000000 1.0
C      1  0.3953680000000  0.5210440000000  0.4799400000000 1.0
C      1  0.6606380000000  0.4312150000000  0.4234310000000 1.0
C      1  0.5184050000000  0.5361340000000  0.4380570000000 1.0
C      1  0.4748280000000  0.5751990000000  0.4557900000000 1.0
C      1  0.5940380000000  0.5013560000000  0.5459380000000 1.0
C      1  0.4622860000000  0.4478600000000  0.4739550000000 1.0
C      1  0.4380640000000  0.5740590000000  0.5682110000000 1.0
C      1  0.5070370000000  0.5142720000000  0.4223800000000 1.0
C      1  0.4275540000000  0.5247950000000  0.5754130000000 1.0
C      1  0.4612480000000  0.5167370000000  0.6092400000000 1.0
C      1  0.5462340000000  0.4442370000000  0.4645210000000 1.0
C      1  0.5056910000000  0.4703320000000  0.4478790000000 1.0
C      1  0.6083260000000  0.5867050000000  0.4752020000000 1.0
C      1  0.5107550000000  0.5150250000000  0.6141420000000 1.0
C      1  0.5328250000000  0.3921830000000  0.5249730000000 1.0
C      1  0.3982840000000  0.4855310000000  0.4284280000000 1.0
C      1  0.5841220000000  0.4299410000000  0.5447460000000 1.0
C      1  0.4353190000000  0.5702170000000  0.4268940000000 1.0
C      1  0.6830200000000  0.4318400000000  0.4100780000000 1.0
C      1  0.4947540000000  0.5443060000000  0.5237130000000 1.0
C      1  0.6244340000000  0.5611020000000  0.5163720000000 1.0
C      1  0.4371460000000  0.6561960000000  0.4104370000000 1.0
C      1  0.4494430000000  0.4827330000000  0.5477660000000 1.0
C      1  0.4722320000000  0.4028600000000  0.5171460000000 1.0
C      1  0.5564680000000  0.5483340000000  0.5072940000000 1.0
C      1  0.4410040000000  0.5617830000000  0.5226050000000 1.0
C      1  0.4584960000000  0.5193950000000  0.4024050000000 1.0
C      1  0.5086360000000  0.5913420000000  0.5741540000000 1.0
C      1  0.6146300000000  0.4310120000000  0.4497070000000 1.0
C      1  0.4856250000000  0.5141830000000  0.4851570000000 1.0
C      1  0.4982730000000  0.5412290000000  0.4866760000000 1.0
C      1  0.4545450000000  0.4111140000000  0.4224040000000 1.0
C      1  0.4714980000000  0.5046130000000  0.5530170000000 1.0
C      1  0.4458400000000  0.4713680000000  0.5774380000000 1.0
C      1  0.6085180000000  0.4774500000000  0.5518660000000 1.0
C      1  0.5103480000000  0.4013550000000  0.4260600000000 1.0
C      1  0.4311520000000  0.5097440000000  0.4019170000000 1.0
C      1  0.4091240000000  0.5113350000000  0.4204870000000 1.0
C      1  0.5181340000000  0.4711080000000  0.4003250000000 1.0
C      1  0.4794960000000  0.6273590000000  0.4075060000000 1.0
C      1  0.6138580000000  0.5873660000000  0.5638580000000 1.0
C      1  0.4158300000000  0.5013030000000  0.4723140000000 1.0
C      1  0.5297150000000  0.3980540000000  0.4900820000000 1.0
C      1  0.5593430000000  0.5766630000000  0.4673600000000 1.0
C      1  0.4688510000000  0.4015630000000  0.5481690000000 1.0
C      1  0.5457970000000  0.5566620000000  0.4813780000000 1.0
C      1  0.5269840000000  0.5588090000000  0.4237990000000 1.0
C      1  0.4744760000000  0.4308680000000  0.5860910000000 1.0
C      1  0.5479620000000  0.4154340000000  0.4756200000000 1.0
C      1  0.4706810000000  0.4541190000000  0.3938080000000 1.0
C      1  0.5202680000000  0.6147360000000  0.5787480000000 1.0
C      1  0.3885650000000  0.5797980000000  0.4413840000000 1.0
C      1  0.4930220000000  0.4986340000000  0.5726590000000 1.0
C      1  0.5138610000000  0.5566310000000  0.5397450000000 1.0
C      1  0.4484140000000  0.4666310000000  0.4068560000000 1.0
C      1  0.5892700000000  0.5508350000000  0.5822260000000 1.0
C      1  0.4974780000000  0.3847590000000  0.4831420000000 1.0
C      1  0.4679340000000  0.5052770000000  0.4656530000000 1.0
C      1  0.5728870000000  0.5491310000000  0.6032700000000 1.0
C      1  0.5898370000000  0.4078550000000  0.5274160000000 1.0
C      1  0.3735700000000  0.5620950000000  0.4586570000000 1.0
C      1  0.4511320000000  0.3993060000000  0.4966130000000 1.0
C      1  0.4534440000000  0.5588910000000  0.4959640000000 1.0
C      1  0.4361760000000  0.5398210000000  0.4835990000000 1.0
C      1  0.5957430000000  0.5238780000000  0.5280680000000 1.0
C      1  0.5195600000000  0.4881330000000  0.4258420000000 1.0
C      1  0.4402520000000  0.5017890000000  0.5922730000000 1.0
C      1  0.3958780000000  0.6309380000000  0.4290850000000 1.0
C      1  0.4708900000000  0.4594480000000  0.5890890000000 1.0
C      1  0.4892470000000  0.4290800000000  0.5100290000000 1.0
C      1  0.4315910000000  0.4393970000000  0.5655520000000 1.0
C      1  0.5479670000000  0.4738840000000  0.5098150000000 1.0
C      1  0.5658260000000  0.6390470000000  0.5784670000000 1.0
C      1  0.4768980000000  0.5230710000000  0.5310860000000 1.0
C      1  0.4555620000000  0.4728650000000  0.4332630000000 1.0
C      1  0.5254160000000  0.5362420000000  0.4700810000000 1.0
C      1  0.5176700000000  0.4507960000000  0.5852790000000 1.0
C      1  0.4777010000000  0.5623780000000  0.4805440000000 1.0
C      1  0.5046110000000  0.5650130000000  0.5658120000000 1.0
C      1  0.5351710000000  0.4485040000000  0.5157000000000 1.0
C      1  0.5236390000000  0.4147400000000  0.4050460000000 1.0
C      1  0.3982060000000  0.4714210000000  0.5057900000000 1.0
C      1  0.5836700000000  0.5874390000000  0.4649950000000 1.0
C      1  0.4974470000000  0.4203090000000  0.4441670000000 1.0
C      1  0.5401880000000  0.6322420000000  0.5802160000000 1.0
C      1  0.5879470000000  0.4013390000000  0.5014380000000 1.0
C      1  0.4542170000000  0.4586000000000  0.5268550000000 1.0
C      1  0.5425830000000  0.5090880000000  0.4758800000000 1.0
C      1  0.5770690000000  0.5269460000000  0.5054670000000 1.0
C      1  0.5341470000000  0.4841160000000  0.4860430000000 1.0
C      1  0.3989510000000  0.4599960000000  0.4376160000000 1.0
C      1  0.5395430000000  0.4049980000000  0.5518040000000 1.0
C      1  0.4553320000000  0.4200910000000  0.5669150000000 1.0
C      1  0.5540350000000  0.5381550000000  0.6189620000000 1.0
C      1  0.5080200000000  0.3774350000000  0.5314030000000 1.0
C      1  0.5905250000000  0.4332140000000  0.4631910000000 1.0
C      1  0.5911420000000  0.6321740000000  0.5740660000000 1.0
C      1  0.5127340000000  0.4419420000000  0.4965930000000 1.0
C      1  0.4949320000000  0.3881900000000  0.5553950000000 1.0
C      1  0.6065400000000  0.4741470000000  0.4924680000000 1.0
C      1  0.4187030000000  0.5205910000000  0.5480000000000 1.0
C      1  0.4612460000000  0.6313770000000  0.5292090000000 1.0
C      1  0.5617640000000  0.4903470000000  0.5804890000000 1.0
C      1  0.5245380000000  0.4520970000000  0.5415470000000 1.0
C      1  0.4637890000000  0.3904510000000  0.4708430000000 1.0
C      1  0.4847830000000  0.5070270000000  0.4025870000000 1.0
C      1  0.5256260000000  0.5048820000000  0.5336830000000 1.0
C      1  0.5068470000000  0.6258320000000  0.4017550000000 1.0
C      1  0.5523010000000  0.4932850000000  0.6053070000000 1.0
C      1  0.6087710000000  0.6130350000000  0.5685490000000 1.0
C      1  0.4086950000000  0.5623550000000  0.4292160000000 1.0
C      1  0.4414040000000  0.5154080000000  0.4687290000000 1.0
C      1  0.5062150000000  0.4446340000000  0.4327370000000 1.0
C      1  0.6377550000000  0.4307700000000  0.4368000000000 1.0
C      1  0.4131930000000  0.6486810000000  0.4193880000000 1.0
C      1  0.4436450000000  0.5821640000000  0.5419210000000 1.0
C      1  0.5208830000000  0.4434890000000  0.4075370000000 1.0
C      1  0.6050160000000  0.5607820000000  0.5611260000000 1.0
C      1  0.4166560000000  0.4763160000000  0.4846870000000 1.0
C      1  0.4914100000000  0.5461350000000  0.5827460000000 1.0
C      1  0.4211390000000  0.4927850000000  0.5416890000000 1.0
C      1  0.4903380000000  0.4776130000000  0.3912850000000 1.0
C      1  0.5842250000000  0.4816300000000  0.4763270000000 1.0
C      1  0.4147980000000  0.4439150000000  0.5420730000000 1.0
C      1  0.4840770000000  0.5033720000000  0.5106020000000 1.0
C      1  0.4624950000000  0.6494450000000  0.4053460000000 1.0
END
