TITL C-247196-3112-575 6.45654034426199e-07 125000 -781.356367762993 0 0 128 (C1) n - 1
REM
REM in /home/nfs/bkarasulu/CARBON/AIRSS/Generating-Clusters/LCBOP/Only-C1/SD-CG/FIRE-HFTN
REM
REM
REM
REM
REM
REM ./C.cell (11c1c37f851c82e70ff6c80c92926a4b)
REM AIRSS Version 0.9.1 bugfix July 2018 build 013d7b7c2542+ Fri, 06 Jul 2018 19:26:36 +0100
REM compiler GCC version 9.2.1 20190827 (Red Hat 9.2.1-1)
REM options -cpp -mtune=generic -march=x86-64 -g -O0 -fpre-include=/usr/include/finclude/math-vector-fortran.h
REM seed -795522877 -792500964 480644022 1205462075 -1296838714 -1282630990 -778180761 219465972 -1489889456 -989826894 -2098635257 -1255832870 1597468345 1825158788 437046750 363571342 -932876397 820271146 -256427218 1106649337 1832041716 -771908927 -1460766100 160854634 -1026117342 -826213513 771635856 1738460022 -1351723775 -319666722 1232213182 -38634300 669691930
REM
CELL 1.54180   50.00000   50.00000   50.00000   90.00000   90.00000   90.00000
LATT -1
SFAC C  
C      1  0.5147360000000  0.5797560000000  0.5433930000000 1.0
C      1  0.4704040000000  0.5154640000000  0.5916480000000 1.0
C      1  0.4184090000000  0.5273440000000  0.4753310000000 1.0
C      1  0.4683980000000  0.5610040000000  0.5033840000000 1.0
C      1  0.4228540000000  0.5737910000000  0.4701290000000 1.0
C      1  0.4442640000000  0.4495700000000  0.4299550000000 1.0
C      1  0.4979610000000  0.6033220000000  0.4762180000000 1.0
C      1  0.5210750000000  0.6037520000000  0.5335800000000 1.0
C      1  0.4966210000000  0.5004380000000  0.3828210000000 1.0
C      1  0.5796390000000  0.4186700000000  0.5137190000000 1.0
C      1  0.4864370000000  0.4026540000000  0.4960100000000 1.0
C      1  0.4141700000000  0.5534270000000  0.4886040000000 1.0
C      1  0.4920980000000  0.5582530000000  0.4156420000000 1.0
C      1  0.5781440000000  0.5868230000000  0.5024410000000 1.0
C      1  0.5394310000000  0.4767250000000  0.4743410000000 1.0
C      1  0.4601800000000  0.4131360000000  0.4954950000000 1.0
C      1  0.4203920000000  0.4869430000000  0.4069290000000 1.0
C      1  0.5706320000000  0.4139540000000  0.5411020000000 1.0
C      1  0.6207160000000  0.4739260000000  0.4899040000000 1.0
C      1  0.4460690000000  0.4591170000000  0.6570010000000 1.0
C      1  0.4620190000000  0.4725990000000  0.4907220000000 1.0
C      1  0.5115710000000  0.4526840000000  0.5544400000000 1.0
C      1  0.5285330000000  0.4206340000000  0.5205080000000 1.0
C      1  0.4279850000000  0.5061950000000  0.4930600000000 1.0
C      1  0.3885170000000  0.4782460000000  0.4920040000000 1.0
C      1  0.5320340000000  0.5488330000000  0.5768360000000 1.0
C      1  0.5609930000000  0.4923380000000  0.4096810000000 1.0
C      1  0.4836890000000  0.5358530000000  0.4622760000000 1.0
C      1  0.4223480000000  0.5248950000000  0.4442460000000 1.0
C      1  0.4781770000000  0.4631700000000  0.5111330000000 1.0
C      1  0.5768300000000  0.5387380000000  0.4441730000000 1.0
C      1  0.5055860000000  0.5184700000000  0.5114620000000 1.0
C      1  0.5216210000000  0.4055250000000  0.5622450000000 1.0
C      1  0.5398360000000  0.5072010000000  0.4026420000000 1.0
C      1  0.5047690000000  0.4594040000000  0.5044430000000 1.0
C      1  0.4760970000000  0.6063290000000  0.4949710000000 1.0
C      1  0.5520060000000  0.4868670000000  0.4991470000000 1.0
C      1  0.6296080000000  0.4639490000000  0.5133390000000 1.0
C      1  0.4955180000000  0.5985040000000  0.4477800000000 1.0
C      1  0.5526270000000  0.5496010000000  0.4398900000000 1.0
C      1  0.5087690000000  0.5461540000000  0.3954590000000 1.0
C      1  0.5279340000000  0.4254660000000  0.4286170000000 1.0
C      1  0.4989680000000  0.5538040000000  0.6127910000000 1.0
C      1  0.4299690000000  0.4559570000000  0.5496700000000 1.0
C      1  0.4771450000000  0.5158600000000  0.5047740000000 1.0
C      1  0.4808170000000  0.5343220000000  0.6096680000000 1.0
C      1  0.4275390000000  0.4916070000000  0.5915840000000 1.0
C      1  0.5131100000000  0.4684480000000  0.4790730000000 1.0
C      1  0.5117670000000  0.4064200000000  0.5033320000000 1.0
C      1  0.4502240000000  0.4191360000000  0.4692690000000 1.0
C      1  0.4491970000000  0.4335160000000  0.5470520000000 1.0
C      1  0.4774340000000  0.4143430000000  0.4291100000000 1.0
C      1  0.4645790000000  0.4533080000000  0.6123850000000 1.0
C      1  0.5532260000000  0.5057750000000  0.5948000000000 1.0
C      1  0.5556730000000  0.4576000000000  0.4605190000000 1.0
C      1  0.4709570000000  0.4997280000000  0.5483020000000 1.0
C      1  0.4585240000000  0.4654850000000  0.3850550000000 1.0
C      1  0.5632860000000  0.6096020000000  0.5105570000000 1.0
C      1  0.6038390000000  0.4062750000000  0.5056990000000 1.0
C      1  0.4683370000000  0.5172350000000  0.4473230000000 1.0
C      1  0.5935200000000  0.5192950000000  0.4525280000000 1.0
C      1  0.6126570000000  0.4383950000000  0.5533910000000 1.0
C      1  0.6052960000000  0.5853230000000  0.5038000000000 1.0
C      1  0.4794510000000  0.4806380000000  0.3785070000000 1.0
C      1  0.4845290000000  0.6175020000000  0.4313730000000 1.0
C      1  0.5190940000000  0.5624100000000  0.3758230000000 1.0
C      1  0.4689140000000  0.5571730000000  0.4747270000000 1.0
C      1  0.4163350000000  0.5454070000000  0.5421280000000 1.0
C      1  0.4715670000000  0.4306220000000  0.5663610000000 1.0
C      1  0.4133650000000  0.4787880000000  0.4507350000000 1.0
C      1  0.4958070000000  0.4691830000000  0.5749450000000 1.0
C      1  0.5274800000000  0.5587240000000  0.4533960000000 1.0
C      1  0.5948930000000  0.4911970000000  0.4489390000000 1.0
C      1  0.4713250000000  0.4755600000000  0.5348560000000 1.0
C      1  0.5207460000000  0.5233220000000  0.4884860000000 1.0
C      1  0.5697670000000  0.4905450000000  0.6079740000000 1.0
C      1  0.4243000000000  0.4701240000000  0.5734210000000 1.0
C      1  0.5208660000000  0.5617740000000  0.5992190000000 1.0
C      1  0.4637320000000  0.5515600000000  0.4168040000000 1.0
C      1  0.4550370000000  0.4258040000000  0.4415610000000 1.0
C      1  0.5634500000000  0.5122090000000  0.5030050000000 1.0
C      1  0.3915480000000  0.4713570000000  0.4661940000000 1.0
C      1  0.4660780000000  0.5381310000000  0.5192180000000 1.0
C      1  0.4290390000000  0.4839870000000  0.6187580000000 1.0
C      1  0.4583810000000  0.5251170000000  0.5429480000000 1.0
C      1  0.5381990000000  0.5747040000000  0.4772770000000 1.0
C      1  0.6277480000000  0.4162760000000  0.5139740000000 1.0
C      1  0.5214190000000  0.5536020000000  0.5498320000000 1.0
C      1  0.4174280000000  0.5613850000000  0.5175070000000 1.0
C      1  0.5001790000000  0.4245610000000  0.5604430000000 1.0
C      1  0.5138540000000  0.5274760000000  0.5377620000000 1.0
C      1  0.5815620000000  0.4837200000000  0.4248220000000 1.0
C      1  0.4413080000000  0.5156150000000  0.5835520000000 1.0
C      1  0.5351810000000  0.5200270000000  0.5796590000000 1.0
C      1  0.4409740000000  0.4705450000000  0.4491420000000 1.0
C      1  0.4121330000000  0.5004950000000  0.4315930000000 1.0
C      1  0.5058050000000  0.5736240000000  0.4367560000000 1.0
C      1  0.4198550000000  0.4691740000000  0.5266960000000 1.0
C      1  0.4335750000000  0.5860080000000  0.5200580000000 1.0
C      1  0.5794000000000  0.4530400000000  0.4758430000000 1.0
C      1  0.4384260000000  0.4636510000000  0.4045670000000 1.0
C      1  0.5148700000000  0.5103620000000  0.5617510000000 1.0
C      1  0.5427910000000  0.4085920000000  0.5429500000000 1.0
C      1  0.6004160000000  0.4722200000000  0.4703020000000 1.0
C      1  0.4484490000000  0.5328780000000  0.4325890000000 1.0
C      1  0.4487590000000  0.5728330000000  0.4616640000000 1.0
C      1  0.5724820000000  0.4439720000000  0.5027800000000 1.0
C      1  0.5150350000000  0.5181040000000  0.3945370000000 1.0
C      1  0.4108750000000  0.4870370000000  0.5068390000000 1.0
C      1  0.4496100000000  0.4201670000000  0.5213240000000 1.0
C      1  0.4751540000000  0.4517990000000  0.5867590000000 1.0
C      1  0.4889200000000  0.4990910000000  0.5723300000000 1.0
C      1  0.5460410000000  0.4407850000000  0.4405980000000 1.0
C      1  0.4560180000000  0.4999750000000  0.4932600000000 1.0
C      1  0.5036550000000  0.4153670000000  0.4246900000000 1.0
C      1  0.5894770000000  0.4250990000000  0.5593790000000 1.0
C      1  0.5349370000000  0.6097490000000  0.5099880000000 1.0
C      1  0.4603830000000  0.5875900000000  0.5099470000000 1.0
C      1  0.4351570000000  0.5306050000000  0.5584620000000 1.0
C      1  0.5615590000000  0.5656680000000  0.4922310000000 1.0
C      1  0.5531740000000  0.4625150000000  0.5158480000000 1.0
C      1  0.5660900000000  0.5387850000000  0.4998540000000 1.0
C      1  0.4623450000000  0.4898260000000  0.4489820000000 1.0
C      1  0.5117520000000  0.5359290000000  0.4653120000000 1.0
C      1  0.6278560000000  0.4405410000000  0.5291870000000 1.0
C      1  0.5252760000000  0.4513450000000  0.5251220000000 1.0
C      1  0.5238480000000  0.5977820000000  0.4865830000000 1.0
C      1  0.4465630000000  0.4651850000000  0.6304620000000 1.0
END
