TITL C-247195-3186-524 22.0845583737351 125000 -595.943029058495 0 0 97 (C1) n - 1
REM
REM in /home/nfs/bkarasulu/CARBON/AIRSS/Generating-Clusters/LCBOP/Only-C1/SD-CG/FIRE-HFTN
REM
REM
REM
REM
REM
REM ./C.cell (11c1c37f851c82e70ff6c80c92926a4b)
REM AIRSS Version 0.9.1 bugfix July 2018 build 013d7b7c2542+ Fri, 06 Jul 2018 19:26:36 +0100
REM compiler GCC version 9.2.1 20190827 (Red Hat 9.2.1-1)
REM options -cpp -mtune=generic -march=x86-64 -g -O0 -fpre-include=/usr/include/finclude/math-vector-fortran.h
REM seed 193315126 -177137523 -219863818 -1481881408 1265882697 1607312083 -1718440796 2131276569 971252990 -1948857163 1053264156 -809693697 -147033107 -83372802 1969794521 285782746 -257842723 -1192828885 -326003237 -1576088963 414023010 -1066463432 393626296 603292457 -1631334651 -970489851 -935589579 -210776553 1808888833 -1297672892 1662523220 395501680 -547946791
REM
CELL 1.54180   50.00000   50.00000   50.00000   90.00000   90.00000   90.00000
LATT -1
SFAC C  
C      1  0.3892330000000  0.4776820000000  0.4528250000000 1.0
C      1  0.4863970000000  0.4694660000000  0.5004860000000 1.0
C      1  0.4774320000000  0.5838480000000  0.5249230000000 1.0
C      1  0.5379190000000  0.5561710000000  0.4974180000000 1.0
C      1  0.4927460000000  0.4330770000000  0.5529450000000 1.0
C      1  0.5020350000000  0.4321970000000  0.5255980000000 1.0
C      1  0.4678800000000  0.5488990000000  0.4578860000000 1.0
C      1  0.5288840000000  0.4088590000000  0.4422280000000 1.0
C      1  0.4912200000000  0.6031870000000  0.4625130000000 1.0
C      1  0.5817110000000  0.5412070000000  0.5154810000000 1.0
C      1  0.5220790000000  0.4983550000000  0.4614550000000 1.0
C      1  0.4456310000000  0.4914070000000  0.5230970000000 1.0
C      1  0.4296820000000  0.4942090000000  0.4248330000000 1.0
C      1  0.5161250000000  0.5189250000000  0.4804810000000 1.0
C      1  0.4077000000000  0.5529310000000  0.4826300000000 1.0
C      1  0.4782170000000  0.5602920000000  0.4821020000000 1.0
C      1  0.5909930000000  0.5015940000000  0.5335200000000 1.0
C      1  0.4027190000000  0.4906960000000  0.4332850000000 1.0
C      1  0.4090110000000  0.4492250000000  0.4878830000000 1.0
C      1  0.4176520000000  0.5354630000000  0.5259670000000 1.0
C      1  0.5731670000000  0.5347280000000  0.4694000000000 1.0
C      1  0.4808970000000  0.4426720000000  0.5079800000000 1.0
C      1  0.4721960000000  0.5552550000000  0.5136250000000 1.0
C      1  0.5354420000000  0.4838860000000  0.5775480000000 1.0
C      1  0.4770690000000  0.4856970000000  0.4557910000000 1.0
C      1  0.5341500000000  0.4804920000000  0.5014760000000 1.0
C      1  0.4577710000000  0.4823350000000  0.5795280000000 1.0
C      1  0.5745880000000  0.4260920000000  0.4469340000000 1.0
C      1  0.3940320000000  0.4725460000000  0.4804420000000 1.0
C      1  0.4423250000000  0.5360720000000  0.4514440000000 1.0
C      1  0.4984620000000  0.5815970000000  0.5781570000000 1.0
C      1  0.5603760000000  0.5272710000000  0.5596820000000 1.0
C      1  0.4583320000000  0.4554740000000  0.5791500000000 1.0
C      1  0.5153470000000  0.5915730000000  0.5576300000000 1.0
C      1  0.5488230000000  0.5524560000000  0.5648200000000 1.0
C      1  0.4685740000000  0.5283900000000  0.4152790000000 1.0
C      1  0.6014350000000  0.4837380000000  0.4203230000000 1.0
C      1  0.4209540000000  0.4550070000000  0.5408610000000 1.0
C      1  0.4892990000000  0.5569160000000  0.5726380000000 1.0
C      1  0.4530510000000  0.4353630000000  0.5097760000000 1.0
C      1  0.5809350000000  0.4219330000000  0.4745280000000 1.0
C      1  0.5007100000000  0.4917830000000  0.4444830000000 1.0
C      1  0.5576150000000  0.4407080000000  0.5171180000000 1.0
C      1  0.4351630000000  0.4373100000000  0.4868650000000 1.0
C      1  0.5265430000000  0.5802150000000  0.4871050000000 1.0
C      1  0.5468950000000  0.4316990000000  0.4431100000000 1.0
C      1  0.5734430000000  0.4822470000000  0.5451260000000 1.0
C      1  0.4825070000000  0.6234330000000  0.4478190000000 1.0
C      1  0.5942170000000  0.5034750000000  0.4367120000000 1.0
C      1  0.5663240000000  0.4544590000000  0.5413000000000 1.0
C      1  0.5166100000000  0.4063260000000  0.4669340000000 1.0
C      1  0.4453180000000  0.4345450000000  0.4604950000000 1.0
C      1  0.5361650000000  0.4762030000000  0.4731160000000 1.0
C      1  0.5345200000000  0.4550410000000  0.5771870000000 1.0
C      1  0.5573720000000  0.4430050000000  0.5656260000000 1.0
C      1  0.5883580000000  0.4664360000000  0.4872640000000 1.0
C      1  0.5650640000000  0.5470310000000  0.4937590000000 1.0
C      1  0.4228000000000  0.5324420000000  0.4705210000000 1.0
C      1  0.4974960000000  0.5368230000000  0.5540050000000 1.0
C      1  0.5357620000000  0.4491560000000  0.4646650000000 1.0
C      1  0.4738300000000  0.6432380000000  0.4332560000000 1.0
C      1  0.5809210000000  0.5285340000000  0.5399150000000 1.0
C      1  0.4473810000000  0.4468480000000  0.4367090000000 1.0
C      1  0.4436470000000  0.4377150000000  0.5369420000000 1.0
C      1  0.5559830000000  0.4980910000000  0.5636790000000 1.0
C      1  0.4434890000000  0.4694530000000  0.4226240000000 1.0
C      1  0.5122130000000  0.4984020000000  0.5819240000000 1.0
C      1  0.4991690000000  0.5807550000000  0.4775650000000 1.0
C      1  0.4825190000000  0.5449640000000  0.4328100000000 1.0
C      1  0.4242820000000  0.5075970000000  0.4835270000000 1.0
C      1  0.4983340000000  0.5400470000000  0.5244340000000 1.0
C      1  0.5093570000000  0.4809030000000  0.5124260000000 1.0
C      1  0.5107160000000  0.4406040000000  0.5733480000000 1.0
C      1  0.5399070000000  0.5770920000000  0.5576360000000 1.0
C      1  0.4029900000000  0.5035040000000  0.5233560000000 1.0
C      1  0.4695010000000  0.4833910000000  0.4825570000000 1.0
C      1  0.5417280000000  0.6030640000000  0.4864280000000 1.0
C      1  0.5240880000000  0.4287190000000  0.4834660000000 1.0
C      1  0.4642140000000  0.4378800000000  0.5576600000000 1.0
C      1  0.4473250000000  0.4950960000000  0.4945930000000 1.0
C      1  0.4558590000000  0.5118690000000  0.5392140000000 1.0
C      1  0.3999260000000  0.4965030000000  0.4950280000000 1.0
C      1  0.6005550000000  0.5061440000000  0.5081250000000 1.0
C      1  0.4938890000000  0.5115880000000  0.5660640000000 1.0
C      1  0.6023220000000  0.4572500000000  0.4172440000000 1.0
C      1  0.5931590000000  0.4345350000000  0.4279020000000 1.0
C      1  0.4991230000000  0.5972420000000  0.5348160000000 1.0
C      1  0.5936640000000  0.4937600000000  0.4844630000000 1.0
C      1  0.4050720000000  0.5545300000000  0.5095440000000 1.0
C      1  0.5288120000000  0.4315920000000  0.5118850000000 1.0
C      1  0.5183230000000  0.5359500000000  0.5031490000000 1.0
C      1  0.5867840000000  0.5108120000000  0.4625720000000 1.0
C      1  0.4675750000000  0.5028460000000  0.5631930000000 1.0
C      1  0.4471080000000  0.5371550000000  0.5288940000000 1.0
C      1  0.4436990000000  0.5190970000000  0.4271050000000 1.0
C      1  0.4201970000000  0.4821570000000  0.5333910000000 1.0
C      1  0.5769610000000  0.4415500000000  0.4947860000000 1.0
END
