TITL C-247198-3593-7 0.00324695426052603 125000 -1035.65072798212 0 0 168 (C1) n - 1
REM
REM in /home/nfs/bkarasulu/CARBON/AIRSS/Generating-Clusters/LCBOP/Only-C1/SD-CG/FIRE-HFTN
REM
REM
REM
REM
REM
REM ./C.cell (11c1c37f851c82e70ff6c80c92926a4b)
REM AIRSS Version 0.9.1 bugfix July 2018 build 013d7b7c2542+ Fri, 06 Jul 2018 19:26:36 +0100
REM compiler GCC version 9.2.1 20190827 (Red Hat 9.2.1-1)
REM options -cpp -mtune=generic -march=x86-64 -g -O0 -fpre-include=/usr/include/finclude/math-vector-fortran.h
REM seed -738947889 -538388921 -1718825947 -538192690 -924920006 -1568609060 1099213982 -1057920340 1497627069 -1864980578 -1597047451 470332566 -212833462 561751994 -24885551 -1229619751 268399850 710233268 -1303458712 -541450348 -411016821 -550054709 172009730 1938585909 -1597501534 -2104595390 -1042861025 -1426569371 -1365369055 30528258 1766577891 63781322 1773709385
REM
CELL 1.54180   50.00000   50.00000   50.00000   90.00000   90.00000   90.00000
LATT -1
SFAC C  
C      1  0.4328620000000  0.4851990000000  0.4741720000000 1.0
C      1  0.4287200000000  0.4575850000000  0.5376140000000 1.0
C      1  0.5649050000000  0.4108120000000  0.5111440000000 1.0
C      1  0.4306370000000  0.5027810000000  0.3995340000000 1.0
C      1  0.5603180000000  0.5089290000000  0.5943560000000 1.0
C      1  0.4999180000000  0.5572550000000  0.6017010000000 1.0
C      1  0.5551700000000  0.4078750000000  0.4338770000000 1.0
C      1  0.5872950000000  0.4481050000000  0.4294490000000 1.0
C      1  0.4125370000000  0.3834050000000  0.5039560000000 1.0
C      1  0.5446380000000  0.5086330000000  0.6186530000000 1.0
C      1  0.4159590000000  0.4809270000000  0.5401130000000 1.0
C      1  0.4310270000000  0.5340840000000  0.5891400000000 1.0
C      1  0.5802010000000  0.5050650000000  0.5510230000000 1.0
C      1  0.5246370000000  0.5690820000000  0.5934550000000 1.0
C      1  0.5965190000000  0.4512600000000  0.4568840000000 1.0
C      1  0.5828670000000  0.5325800000000  0.5605000000000 1.0
C      1  0.5450520000000  0.5892770000000  0.5384900000000 1.0
C      1  0.6218710000000  0.5358290000000  0.4894450000000 1.0
C      1  0.4306990000000  0.6566150000000  0.5621020000000 1.0
C      1  0.4799460000000  0.4595480000000  0.4410320000000 1.0
C      1  0.4662690000000  0.3926420000000  0.5529440000000 1.0
C      1  0.4768740000000  0.5582460000000  0.5830410000000 1.0
C      1  0.5639380000000  0.4585440000000  0.5701220000000 1.0
C      1  0.5058860000000  0.5378100000000  0.6227010000000 1.0
C      1  0.4827070000000  0.4839360000000  0.4924900000000 1.0
C      1  0.4525490000000  0.4457020000000  0.5408840000000 1.0
C      1  0.5942890000000  0.5479140000000  0.4291860000000 1.0
C      1  0.4771540000000  0.4987010000000  0.6094640000000 1.0
C      1  0.5110710000000  0.3946180000000  0.5195150000000 1.0
C      1  0.4396600000000  0.3907970000000  0.5047140000000 1.0
C      1  0.4434130000000  0.5100340000000  0.4673340000000 1.0
C      1  0.5640140000000  0.5367230000000  0.5821890000000 1.0
C      1  0.5603510000000  0.5070400000000  0.4429010000000 1.0
C      1  0.4700290000000  0.4453070000000  0.6323150000000 1.0
C      1  0.4231750000000  0.5511100000000  0.4345860000000 1.0
C      1  0.5735020000000  0.4244920000000  0.4233900000000 1.0
C      1  0.5890770000000  0.4263950000000  0.5057670000000 1.0
C      1  0.3976320000000  0.5464450000000  0.4292780000000 1.0
C      1  0.4959220000000  0.4495460000000  0.6373880000000 1.0
C      1  0.5704470000000  0.5628710000000  0.4262060000000 1.0
C      1  0.5491030000000  0.5504630000000  0.4095440000000 1.0
C      1  0.4534740000000  0.5192290000000  0.4039580000000 1.0
C      1  0.5031930000000  0.4128720000000  0.5849770000000 1.0
C      1  0.5379250000000  0.4916270000000  0.4339450000000 1.0
C      1  0.4490520000000  0.5606590000000  0.4370350000000 1.0
C      1  0.4526540000000  0.3980170000000  0.4797220000000 1.0
C      1  0.4116680000000  0.5556010000000  0.5410770000000 1.0
C      1  0.3917910000000  0.3884590000000  0.4877500000000 1.0
C      1  0.5455070000000  0.5589190000000  0.5773160000000 1.0
C      1  0.4883480000000  0.5036180000000  0.4724030000000 1.0
C      1  0.4641210000000  0.5741270000000  0.3971720000000 1.0
C      1  0.5169950000000  0.4659940000000  0.6352760000000 1.0
C      1  0.4732390000000  0.5058310000000  0.4230630000000 1.0
C      1  0.6214710000000  0.5090240000000  0.4913150000000 1.0
C      1  0.5322730000000  0.4667470000000  0.5091910000000 1.0
C      1  0.5198960000000  0.4962530000000  0.4120050000000 1.0
C      1  0.5270160000000  0.4946020000000  0.5489710000000 1.0
C      1  0.5805280000000  0.4834740000000  0.5051650000000 1.0
C      1  0.4825860000000  0.4983900000000  0.5820740000000 1.0
C      1  0.4717830000000  0.4117500000000  0.4116590000000 1.0
C      1  0.3722890000000  0.5331120000000  0.4874380000000 1.0
C      1  0.4777520000000  0.5590370000000  0.5534780000000 1.0
C      1  0.5206450000000  0.4166570000000  0.5355160000000 1.0
C      1  0.5711090000000  0.4876040000000  0.5736370000000 1.0
C      1  0.5967700000000  0.4339460000000  0.4794810000000 1.0
C      1  0.4513330000000  0.5510180000000  0.5929700000000 1.0
C      1  0.3887760000000  0.4885460000000  0.4806840000000 1.0
C      1  0.4118910000000  0.5815140000000  0.5465650000000 1.0
C      1  0.5113050000000  0.6049250000000  0.4408490000000 1.0
C      1  0.4934180000000  0.4579800000000  0.4858950000000 1.0
C      1  0.5005140000000  0.5447890000000  0.4268040000000 1.0
C      1  0.4190880000000  0.4876910000000  0.5950390000000 1.0
C      1  0.5167450000000  0.5047610000000  0.4738190000000 1.0
C      1  0.5351690000000  0.5351830000000  0.6275870000000 1.0
C      1  0.4571210000000  0.4502410000000  0.4536220000000 1.0
C      1  0.6021760000000  0.4889840000000  0.4874440000000 1.0
C      1  0.4863590000000  0.5974670000000  0.5137740000000 1.0
C      1  0.4173060000000  0.5255920000000  0.5035940000000 1.0
C      1  0.4173470000000  0.4806910000000  0.4072650000000 1.0
C      1  0.5100710000000  0.4490240000000  0.5065270000000 1.0
C      1  0.5553040000000  0.5312170000000  0.3900560000000 1.0
C      1  0.3931540000000  0.5152730000000  0.4903780000000 1.0
C      1  0.5239770000000  0.4818620000000  0.4566660000000 1.0
C      1  0.5989760000000  0.4796560000000  0.4613450000000 1.0
C      1  0.4798620000000  0.4765000000000  0.4184980000000 1.0
C      1  0.5501380000000  0.4211440000000  0.5352470000000 1.0
C      1  0.5050270000000  0.4572630000000  0.4575760000000 1.0
C      1  0.5297210000000  0.5849720000000  0.4325810000000 1.0
C      1  0.4675840000000  0.5962320000000  0.4169830000000 1.0
C      1  0.5583950000000  0.4668710000000  0.5000040000000 1.0
C      1  0.4533840000000  0.3904540000000  0.5295020000000 1.0
C      1  0.4232900000000  0.6321130000000  0.5571640000000 1.0
C      1  0.5159460000000  0.5398820000000  0.5101320000000 1.0
C      1  0.5639360000000  0.5271040000000  0.5091870000000 1.0
C      1  0.4761140000000  0.5339120000000  0.5373840000000 1.0
C      1  0.4462620000000  0.4520930000000  0.6222470000000 1.0
C      1  0.4976030000000  0.5096740000000  0.6255800000000 1.0
C      1  0.4672600000000  0.5443920000000  0.4913780000000 1.0
C      1  0.4830550000000  0.4001440000000  0.5725330000000 1.0
C      1  0.4791040000000  0.4549390000000  0.5471210000000 1.0
C      1  0.4918120000000  0.4928930000000  0.5172880000000 1.0
C      1  0.4755820000000  0.5042490000000  0.5377860000000 1.0
C      1  0.5860070000000  0.4743570000000  0.4163620000000 1.0
C      1  0.5068840000000  0.3918740000000  0.4911940000000 1.0
C      1  0.4907980000000  0.4247790000000  0.3976550000000 1.0
C      1  0.4815470000000  0.5830790000000  0.5368090000000 1.0
C      1  0.5040570000000  0.4731830000000  0.4024230000000 1.0
C      1  0.5233100000000  0.4304870000000  0.5879130000000 1.0
C      1  0.3912770000000  0.4040840000000  0.4659110000000 1.0
C      1  0.5576900000000  0.5842220000000  0.4416790000000 1.0
C      1  0.4809970000000  0.3939650000000  0.4799510000000 1.0
C      1  0.5378340000000  0.5256290000000  0.4879430000000 1.0
C      1  0.4870290000000  0.5398120000000  0.5108610000000 1.0
C      1  0.5740560000000  0.5038720000000  0.5231330000000 1.0
C      1  0.5012440000000  0.5194440000000  0.5754230000000 1.0
C      1  0.4764710000000  0.5507930000000  0.4431290000000 1.0
C      1  0.5371050000000  0.4535490000000  0.5799650000000 1.0
C      1  0.6030100000000  0.5222320000000  0.4316400000000 1.0
C      1  0.5661360000000  0.5076250000000  0.3831060000000 1.0
C      1  0.5209040000000  0.5211790000000  0.5554740000000 1.0
C      1  0.5268040000000  0.5424600000000  0.5369810000000 1.0
C      1  0.4584280000000  0.5468180000000  0.3942290000000 1.0
C      1  0.4115680000000  0.4204720000000  0.4546590000000 1.0
C      1  0.4163330000000  0.6070610000000  0.5520190000000 1.0
C      1  0.5887420000000  0.5522470000000  0.5411880000000 1.0
C      1  0.4155210000000  0.5294720000000  0.5318830000000 1.0
C      1  0.5055690000000  0.4469320000000  0.3923150000000 1.0
C      1  0.5545660000000  0.3929050000000  0.4923520000000 1.0
C      1  0.3903630000000  0.4653960000000  0.4665130000000 1.0
C      1  0.5338320000000  0.4090140000000  0.4522120000000 1.0
C      1  0.4771900000000  0.5600070000000  0.4702850000000 1.0
C      1  0.5604310000000  0.5982960000000  0.4661000000000 1.0
C      1  0.4884490000000  0.6031420000000  0.4851190000000 1.0
C      1  0.4543030000000  0.5895860000000  0.4422080000000 1.0
C      1  0.5514740000000  0.6148790000000  0.5360710000000 1.0
C      1  0.4096350000000  0.4600350000000  0.4226170000000 1.0
C      1  0.4204880000000  0.5103700000000  0.5783250000000 1.0
C      1  0.4030460000000  0.4476940000000  0.4473940000000 1.0
C      1  0.5007900000000  0.5179390000000  0.4173820000000 1.0
C      1  0.5773950000000  0.4846150000000  0.3915470000000 1.0
C      1  0.5018430000000  0.4396310000000  0.5329260000000 1.0
C      1  0.4679090000000  0.5085430000000  0.4531880000000 1.0
C      1  0.5198370000000  0.4881020000000  0.5231600000000 1.0
C      1  0.3733360000000  0.5408940000000  0.4216310000000 1.0
C      1  0.4418450000000  0.5296020000000  0.4883580000000 1.0
C      1  0.4284700000000  0.4673310000000  0.6094860000000 1.0
C      1  0.5314270000000  0.3939360000000  0.4761820000000 1.0
C      1  0.4161980000000  0.5073320000000  0.5500490000000 1.0
C      1  0.5187020000000  0.4323460000000  0.4511530000000 1.0
C      1  0.4387290000000  0.4080210000000  0.4552590000000 1.0
C      1  0.5935660000000  0.4397810000000  0.5312500000000 1.0
C      1  0.4698310000000  0.5886680000000  0.4685850000000 1.0
C      1  0.4407820000000  0.4599400000000  0.4722360000000 1.0
C      1  0.6027610000000  0.5539110000000  0.4953470000000 1.0
C      1  0.5122150000000  0.6102230000000  0.4698180000000 1.0
C      1  0.5218140000000  0.4923170000000  0.6272060000000 1.0
C      1  0.5552490000000  0.5282460000000  0.4620690000000 1.0
C      1  0.5817520000000  0.5496190000000  0.5136030000000 1.0
C      1  0.5886640000000  0.4965800000000  0.4381790000000 1.0
C      1  0.5579730000000  0.6401220000000  0.5356760000000 1.0
C      1  0.5401570000000  0.5641590000000  0.5492790000000 1.0
C      1  0.5231920000000  0.5602670000000  0.4195860000000 1.0
C      1  0.5392330000000  0.6097690000000  0.4792010000000 1.0
C      1  0.5702310000000  0.4400610000000  0.5488110000000 1.0
C      1  0.4534670000000  0.4063080000000  0.4306470000000 1.0
C      1  0.4911290000000  0.6111570000000  0.4218910000000 1.0
C      1  0.4761490000000  0.4832050000000  0.5586810000000 1.0
C      1  0.5232260000000  0.4754420000000  0.5692800000000 1.0
END
