TITL C-247200-3482-564 -0.0064564136640005 125000 -409.008018645822 0 0 68 (C1) n - 1
REM
REM in /home/nfs/bkarasulu/CARBON/AIRSS/Generating-Clusters/LCBOP/Only-C1/SD-CG/FIRE-HFTN
REM
REM
REM
REM
REM
REM ./C.cell (11c1c37f851c82e70ff6c80c92926a4b)
REM AIRSS Version 0.9.1 bugfix July 2018 build 013d7b7c2542+ Fri, 06 Jul 2018 19:26:36 +0100
REM compiler GCC version 9.2.1 20190827 (Red Hat 9.2.1-1)
REM options -cpp -mtune=generic -march=x86-64 -g -O0 -fpre-include=/usr/include/finclude/math-vector-fortran.h
REM seed 342810357 -848454944 1966389971 -1022388111 -411929636 639251200 -32896927 -1598257685 1531182736 690771090 -456903254 -2006366592 -1246746465 849659750 1863819336 1787319276 -1792621786 1913487001 632998521 725410680 -2053607548 -2031607102 -1906341949 -2095023478 -620052124 1343990218 2028379293 331800921 1040814972 613527650 -519211796 -1867687771 355916350
REM
CELL 1.54180   50.00000   50.00000   50.00000   90.00000   90.00000   90.00000
LATT -1
SFAC C  
C      1  0.5530300000000  0.4301650000000  0.5319790000000 1.0
C      1  0.5210230000000  0.5259230000000  0.5530420000000 1.0
C      1  0.6263490000000  0.5505540000000  0.5037970000000 1.0
C      1  0.4736680000000  0.5975750000000  0.5146370000000 1.0
C      1  0.5245710000000  0.4354270000000  0.5408230000000 1.0
C      1  0.3989060000000  0.5514560000000  0.4910500000000 1.0
C      1  0.4725860000000  0.4785390000000  0.4708200000000 1.0
C      1  0.5471660000000  0.4817920000000  0.5523990000000 1.0
C      1  0.4250430000000  0.6107910000000  0.5217660000000 1.0
C      1  0.4273250000000  0.5491070000000  0.5583010000000 1.0
C      1  0.4993580000000  0.4768040000000  0.4584610000000 1.0
C      1  0.4740720000000  0.5292910000000  0.4186350000000 1.0
C      1  0.5672520000000  0.4772450000000  0.5322770000000 1.0
C      1  0.4591130000000  0.4544730000000  0.4775000000000 1.0
C      1  0.3943640000000  0.5749130000000  0.5027000000000 1.0
C      1  0.4463030000000  0.4309010000000  0.5214240000000 1.0
C      1  0.5921700000000  0.5163390000000  0.5122500000000 1.0
C      1  0.5395650000000  0.5078150000000  0.5593520000000 1.0
C      1  0.5194570000000  0.4577800000000  0.4502360000000 1.0
C      1  0.4580610000000  0.4382830000000  0.4538010000000 1.0
C      1  0.4193600000000  0.4279420000000  0.5179440000000 1.0
C      1  0.4707090000000  0.5516810000000  0.4330230000000 1.0
C      1  0.4342980000000  0.5159080000000  0.4756540000000 1.0
C      1  0.5855270000000  0.5469980000000  0.4767260000000 1.0
C      1  0.5501690000000  0.4988760000000  0.4931420000000 1.0
C      1  0.4750370000000  0.5607100000000  0.4577890000000 1.0
C      1  0.5710720000000  0.4593290000000  0.4526390000000 1.0
C      1  0.4317190000000  0.5686850000000  0.5768600000000 1.0
C      1  0.5864310000000  0.4460450000000  0.4995780000000 1.0
C      1  0.5426420000000  0.5196080000000  0.4748430000000 1.0
C      1  0.4855920000000  0.5562440000000  0.4835470000000 1.0
C      1  0.6021270000000  0.5383540000000  0.4977900000000 1.0
C      1  0.4516870000000  0.6106810000000  0.5219550000000 1.0
C      1  0.5088710000000  0.4151770000000  0.5562220000000 1.0
C      1  0.4603150000000  0.4546200000000  0.4296170000000 1.0
C      1  0.4756230000000  0.5436270000000  0.5504460000000 1.0
C      1  0.4861730000000  0.4595620000000  0.5159280000000 1.0
C      1  0.4785410000000  0.5644420000000  0.5698860000000 1.0
C      1  0.4482060000000  0.5370870000000  0.5454230000000 1.0
C      1  0.4983980000000  0.4154520000000  0.4688130000000 1.0
C      1  0.4972690000000  0.5300860000000  0.5386930000000 1.0
C      1  0.5032920000000  0.5034350000000  0.4477150000000 1.0
C      1  0.4136790000000  0.5314310000000  0.4817900000000 1.0
C      1  0.5461910000000  0.4647670000000  0.4442640000000 1.0
C      1  0.5046680000000  0.4190080000000  0.4962820000000 1.0
C      1  0.4563420000000  0.5014300000000  0.4726560000000 1.0
C      1  0.5148650000000  0.5206460000000  0.4677690000000 1.0
C      1  0.5708440000000  0.4983520000000  0.5129520000000 1.0
C      1  0.4600500000000  0.4162280000000  0.5413500000000 1.0
C      1  0.5151410000000  0.4301210000000  0.4517510000000 1.0
C      1  0.5858330000000  0.4507290000000  0.4732290000000 1.0
C      1  0.4943000000000  0.5160230000000  0.5138260000000 1.0
C      1  0.4718970000000  0.4137590000000  0.4582180000000 1.0
C      1  0.4699960000000  0.4787160000000  0.4202070000000 1.0
C      1  0.5718240000000  0.4499500000000  0.5233150000000 1.0
C      1  0.5616130000000  0.5388890000000  0.4676850000000 1.0
C      1  0.6490750000000  0.5619990000000  0.5094330000000 1.0
C      1  0.4612790000000  0.4488720000000  0.5052680000000 1.0
C      1  0.4840120000000  0.5039070000000  0.4253830000000 1.0
C      1  0.4573720000000  0.5762500000000  0.5825000000000 1.0
C      1  0.4900890000000  0.4877750000000  0.5166250000000 1.0
C      1  0.4034510000000  0.5970980000000  0.5142650000000 1.0
C      1  0.5286290000000  0.4607560000000  0.5566520000000 1.0
C      1  0.5344890000000  0.4763920000000  0.4931980000000 1.0
C      1  0.4851430000000  0.5772190000000  0.5019670000000 1.0
C      1  0.4976620000000  0.5308160000000  0.4889100000000 1.0
C      1  0.4824240000000  0.4097480000000  0.5546480000000 1.0
C      1  0.5066910000000  0.4393960000000  0.5163730000000 1.0
END
