TITL C-247198-3593-359 1.67929137480973e-06 125000 -600.920250051389 0 0 100 (C1) n - 1
REM
REM in /home/nfs/bkarasulu/CARBON/AIRSS/Generating-Clusters/LCBOP/Only-C1/SD-CG/FIRE-HFTN
REM
REM
REM
REM
REM
REM ./C.cell (11c1c37f851c82e70ff6c80c92926a4b)
REM AIRSS Version 0.9.1 bugfix July 2018 build 013d7b7c2542+ Fri, 06 Jul 2018 19:26:36 +0100
REM compiler GCC version 9.2.1 20190827 (Red Hat 9.2.1-1)
REM options -cpp -mtune=generic -march=x86-64 -g -O0 -fpre-include=/usr/include/finclude/math-vector-fortran.h
REM seed 509652604 -2078792868 -2136780472 2144794055 -641795437 -1221247408 -1193418412 502113168 928218164 -1666528225 -82963730 -1862342620 -678911333 90612220 355849376 473548314 260030479 164120441 -1721546912 577040427 1572430853 1316386956 1360689152 -1023045846 916167079 1935116637 709126960 193286743 -612256382 -1921665119 -1571828578 -802436845 1352117189
REM
CELL 1.54180   50.00000   50.00000   50.00000   90.00000   90.00000   90.00000
LATT -1
SFAC C  
C      1  0.4957370000000  0.4267580000000  0.4901970000000 1.0
C      1  0.4037540000000  0.5382460000000  0.4782610000000 1.0
C      1  0.3915670000000  0.5209490000000  0.4952470000000 1.0
C      1  0.5358870000000  0.4647150000000  0.5542330000000 1.0
C      1  0.6088130000000  0.4530510000000  0.4720540000000 1.0
C      1  0.5593860000000  0.5398120000000  0.4099020000000 1.0
C      1  0.4668770000000  0.4929010000000  0.5258700000000 1.0
C      1  0.5404250000000  0.5954420000000  0.5157950000000 1.0
C      1  0.3995230000000  0.4754960000000  0.5187050000000 1.0
C      1  0.4310080000000  0.4879070000000  0.5725200000000 1.0
C      1  0.5350960000000  0.4338020000000  0.4565890000000 1.0
C      1  0.5090420000000  0.5627340000000  0.4311380000000 1.0
C      1  0.4406300000000  0.4621160000000  0.5680370000000 1.0
C      1  0.4897320000000  0.4743300000000  0.5835190000000 1.0
C      1  0.5073740000000  0.5632560000000  0.5203970000000 1.0
C      1  0.4989290000000  0.5224180000000  0.4758000000000 1.0
C      1  0.5872980000000  0.4405150000000  0.5217160000000 1.0
C      1  0.4287940000000  0.4447380000000  0.5481150000000 1.0
C      1  0.5490090000000  0.4736550000000  0.4785510000000 1.0
C      1  0.4283330000000  0.4416180000000  0.4991020000000 1.0
C      1  0.5038130000000  0.4846710000000  0.4149210000000 1.0
C      1  0.6444170000000  0.4854210000000  0.5301080000000 1.0
C      1  0.6022060000000  0.4611230000000  0.5345520000000 1.0
C      1  0.4381060000000  0.4514350000000  0.4740530000000 1.0
C      1  0.4101630000000  0.5537570000000  0.5604190000000 1.0
C      1  0.4964180000000  0.5673110000000  0.4064010000000 1.0
C      1  0.5536810000000  0.5539270000000  0.5005030000000 1.0
C      1  0.4882260000000  0.5990610000000  0.4877340000000 1.0
C      1  0.5558380000000  0.5721450000000  0.4777010000000 1.0
C      1  0.4644790000000  0.5874640000000  0.5542880000000 1.0
C      1  0.4720330000000  0.5701130000000  0.5733430000000 1.0
C      1  0.4743560000000  0.5290090000000  0.4600890000000 1.0
C      1  0.5219210000000  0.5308800000000  0.5572470000000 1.0
C      1  0.5408430000000  0.4952060000000  0.4601800000000 1.0
C      1  0.4299580000000  0.4781730000000  0.4697840000000 1.0
C      1  0.5574040000000  0.4497620000000  0.4638160000000 1.0
C      1  0.5127320000000  0.5962630000000  0.4738170000000 1.0
C      1  0.5850590000000  0.4452100000000  0.4624300000000 1.0
C      1  0.4908290000000  0.5296160000000  0.5521250000000 1.0
C      1  0.5211640000000  0.5372200000000  0.4361260000000 1.0
C      1  0.4626350000000  0.5384090000000  0.5112440000000 1.0
C      1  0.4724220000000  0.5112190000000  0.3875250000000 1.0
C      1  0.6231990000000  0.4641280000000  0.4917570000000 1.0
C      1  0.4584280000000  0.5601680000000  0.4932660000000 1.0
C      1  0.4254820000000  0.5447700000000  0.4634780000000 1.0
C      1  0.4816970000000  0.5440500000000  0.5774010000000 1.0
C      1  0.5746300000000  0.4813040000000  0.4250540000000 1.0
C      1  0.4810120000000  0.5018740000000  0.4125570000000 1.0
C      1  0.5596410000000  0.4423280000000  0.5177790000000 1.0
C      1  0.5681210000000  0.5669710000000  0.4530290000000 1.0
C      1  0.4430820000000  0.5115610000000  0.5635690000000 1.0
C      1  0.5883670000000  0.4734300000000  0.5561720000000 1.0
C      1  0.3928440000000  0.4926550000000  0.4966370000000 1.0
C      1  0.4282310000000  0.5351110000000  0.5627500000000 1.0
C      1  0.5197780000000  0.5021150000000  0.5173310000000 1.0
C      1  0.4781860000000  0.4677190000000  0.5204050000000 1.0
C      1  0.5486800000000  0.4670810000000  0.5062660000000 1.0
C      1  0.6240920000000  0.4708770000000  0.5192470000000 1.0
C      1  0.4834690000000  0.5586480000000  0.3847510000000 1.0
C      1  0.4615250000000  0.5935840000000  0.5283260000000 1.0
C      1  0.4597190000000  0.4105100000000  0.5643670000000 1.0
C      1  0.5201780000000  0.4414480000000  0.4337720000000 1.0
C      1  0.4732380000000  0.4517640000000  0.4375630000000 1.0
C      1  0.4533950000000  0.5480520000000  0.4679380000000 1.0
C      1  0.5348210000000  0.5259440000000  0.4134520000000 1.0
C      1  0.4884410000000  0.4984870000000  0.5980440000000 1.0
C      1  0.4669900000000  0.5862160000000  0.5014750000000 1.0
C      1  0.4988220000000  0.4586970000000  0.4267420000000 1.0
C      1  0.4553600000000  0.5102740000000  0.5059110000000 1.0
C      1  0.4773030000000  0.4291430000000  0.5758840000000 1.0
C      1  0.4902880000000  0.4459780000000  0.5102740000000 1.0
C      1  0.5375610000000  0.5657130000000  0.5241270000000 1.0
C      1  0.4733970000000  0.5354190000000  0.3759630000000 1.0
C      1  0.5058550000000  0.4311910000000  0.5773080000000 1.0
C      1  0.5038630000000  0.5202960000000  0.5038880000000 1.0
C      1  0.4019840000000  0.4820800000000  0.4716250000000 1.0
C      1  0.4666710000000  0.4562930000000  0.5787310000000 1.0
C      1  0.5229150000000  0.4106390000000  0.5847270000000 1.0
C      1  0.4369040000000  0.4176110000000  0.5514450000000 1.0
C      1  0.4712940000000  0.5144970000000  0.4358710000000 1.0
C      1  0.5221800000000  0.5191610000000  0.4594610000000 1.0
C      1  0.5336500000000  0.4806180000000  0.5267550000000 1.0
C      1  0.5301310000000  0.4971840000000  0.4135720000000 1.0
C      1  0.4737600000000  0.4202900000000  0.4736920000000 1.0
C      1  0.5385880000000  0.5950230000000  0.4862640000000 1.0
C      1  0.5109630000000  0.5842700000000  0.4486150000000 1.0
C      1  0.4592900000000  0.4398210000000  0.4593080000000 1.0
C      1  0.5627440000000  0.4748940000000  0.5652600000000 1.0
C      1  0.5707980000000  0.5560420000000  0.4285360000000 1.0
C      1  0.4686300000000  0.5077850000000  0.5503800000000 1.0
C      1  0.5134840000000  0.4596960000000  0.5735860000000 1.0
C      1  0.5494670000000  0.4884060000000  0.4329200000000 1.0
C      1  0.5207860000000  0.4222020000000  0.4781680000000 1.0
C      1  0.4453190000000  0.4980400000000  0.4827430000000 1.0
C      1  0.5385730000000  0.3912710000000  0.5923990000000 1.0
C      1  0.4837160000000  0.5252490000000  0.5988700000000 1.0
C      1  0.4900920000000  0.5396500000000  0.5230200000000 1.0
C      1  0.5441340000000  0.4375480000000  0.5416800000000 1.0
C      1  0.4175630000000  0.4534100000000  0.5230940000000 1.0
C      1  0.5407490000000  0.5489630000000  0.5486360000000 1.0
END
