TITL C-247201-3759-17 3.78454292760004e-06 125000 -819.116057384686 0 0 133 (C1) n - 1
REM
REM in /home/nfs/bkarasulu/CARBON/AIRSS/Generating-Clusters/LCBOP/Only-C1/SD-CG/FIRE-HFTN
REM
REM
REM
REM
REM
REM ./C.cell (11c1c37f851c82e70ff6c80c92926a4b)
REM AIRSS Version 0.9.1 bugfix July 2018 build 013d7b7c2542+ Fri, 06 Jul 2018 19:26:36 +0100
REM compiler GCC version 9.2.1 20190827 (Red Hat 9.2.1-1)
REM options -cpp -mtune=generic -march=x86-64 -g -O0 -fpre-include=/usr/include/finclude/math-vector-fortran.h
REM seed -1995042965 65357768 1738835162 -1858592132 -368777167 716092094 -1158192431 459893904 703355929 -2001778607 -243707938 -1905373348 -1009653611 -705464142 1316115534 -324377346 -1121300966 -1425590753 1960393806 670997492 -2135323803 1027986824 388056811 -1975640057 -1529573912 -584712547 -1949342202 1531145161 271402173 1587003073 1710754708 -459164245 1876002002
REM
CELL 1.54180   50.00000   50.00000   50.00000   90.00000   90.00000   90.00000
LATT -1
SFAC C  
C      1  0.4311290000000  0.5023210000000  0.5343800000000 1.0
C      1  0.5617280000000  0.5584290000000  0.5592160000000 1.0
C      1  0.4739560000000  0.5562990000000  0.3821590000000 1.0
C      1  0.4619970000000  0.4658830000000  0.4828470000000 1.0
C      1  0.3944110000000  0.4436280000000  0.5483340000000 1.0
C      1  0.5477320000000  0.6375260000000  0.5341750000000 1.0
C      1  0.4497800000000  0.4181440000000  0.4744160000000 1.0
C      1  0.4641790000000  0.5325120000000  0.3953750000000 1.0
C      1  0.5303730000000  0.4743640000000  0.4060670000000 1.0
C      1  0.4523700000000  0.5538490000000  0.5055490000000 1.0
C      1  0.4679960000000  0.4061370000000  0.4938750000000 1.0
C      1  0.4892330000000  0.5192450000000  0.4958270000000 1.0
C      1  0.5891060000000  0.5528090000000  0.5192190000000 1.0
C      1  0.4006660000000  0.5063000000000  0.3980920000000 1.0
C      1  0.4155790000000  0.4043150000000  0.6063460000000 1.0
C      1  0.4159730000000  0.6200280000000  0.4607240000000 1.0
C      1  0.4087280000000  0.4987650000000  0.4217060000000 1.0
C      1  0.5371030000000  0.5540660000000  0.5735760000000 1.0
C      1  0.4368090000000  0.5508930000000  0.4446100000000 1.0
C      1  0.4066220000000  0.4518970000000  0.4806430000000 1.0
C      1  0.4792590000000  0.5097820000000  0.4506890000000 1.0
C      1  0.4875400000000  0.4190740000000  0.4378250000000 1.0
C      1  0.5809020000000  0.4618250000000  0.4889410000000 1.0
C      1  0.6300350000000  0.5068290000000  0.4927230000000 1.0
C      1  0.5325350000000  0.4329610000000  0.4293060000000 1.0
C      1  0.6552100000000  0.5067840000000  0.4859950000000 1.0
C      1  0.5620510000000  0.5666430000000  0.4664980000000 1.0
C      1  0.6027160000000  0.5067240000000  0.5002440000000 1.0
C      1  0.5136140000000  0.5580040000000  0.5582970000000 1.0
C      1  0.4715430000000  0.4795840000000  0.5890550000000 1.0
C      1  0.5092490000000  0.4610510000000  0.4777890000000 1.0
C      1  0.5551270000000  0.5877920000000  0.5139020000000 1.0
C      1  0.5579240000000  0.4370370000000  0.5630260000000 1.0
C      1  0.4629320000000  0.4544850000000  0.5767580000000 1.0
C      1  0.5474730000000  0.5846270000000  0.4853930000000 1.0
C      1  0.4804420000000  0.5625780000000  0.5070620000000 1.0
C      1  0.5931930000000  0.4915830000000  0.5570380000000 1.0
C      1  0.5200810000000  0.5488080000000  0.3980330000000 1.0
C      1  0.5938050000000  0.4842320000000  0.5844390000000 1.0
C      1  0.4139400000000  0.4891370000000  0.4472810000000 1.0
C      1  0.5678210000000  0.5682820000000  0.5316290000000 1.0
C      1  0.5224340000000  0.5966020000000  0.4761090000000 1.0
C      1  0.5311560000000  0.5249590000000  0.5301250000000 1.0
C      1  0.5261970000000  0.5279350000000  0.5951040000000 1.0
C      1  0.5326740000000  0.4168690000000  0.4543640000000 1.0
C      1  0.4987880000000  0.6035110000000  0.5687310000000 1.0
C      1  0.5019610000000  0.5396560000000  0.6052910000000 1.0
C      1  0.4173850000000  0.3863240000000  0.6251260000000 1.0
C      1  0.4285430000000  0.5386520000000  0.4976500000000 1.0
C      1  0.5033370000000  0.4620460000000  0.4026590000000 1.0
C      1  0.4336680000000  0.4896540000000  0.5603470000000 1.0
C      1  0.4639590000000  0.4298050000000  0.4510420000000 1.0
C      1  0.5001140000000  0.5816850000000  0.5515480000000 1.0
C      1  0.4791860000000  0.4945960000000  0.5312570000000 1.0
C      1  0.5753160000000  0.5127970000000  0.5521400000000 1.0
C      1  0.5363960000000  0.4565710000000  0.4784460000000 1.0
C      1  0.4141810000000  0.4226400000000  0.5872640000000 1.0
C      1  0.5511140000000  0.5069110000000  0.5378920000000 1.0
C      1  0.5000660000000  0.4927480000000  0.4446230000000 1.0
C      1  0.4774830000000  0.5799660000000  0.4539470000000 1.0
C      1  0.5031200000000  0.5451480000000  0.4950160000000 1.0
C      1  0.4149060000000  0.4419700000000  0.5671600000000 1.0
C      1  0.4856830000000  0.5173620000000  0.5482700000000 1.0
C      1  0.5245990000000  0.5063780000000  0.4398860000000 1.0
C      1  0.5712990000000  0.4805990000000  0.5990580000000 1.0
C      1  0.4875530000000  0.5816630000000  0.5264600000000 1.0
C      1  0.3867140000000  0.4534360000000  0.5249270000000 1.0
C      1  0.5506200000000  0.4109960000000  0.5544150000000 1.0
C      1  0.4141090000000  0.5169450000000  0.5149540000000 1.0
C      1  0.4682140000000  0.4573790000000  0.4557380000000 1.0
C      1  0.4273550000000  0.5333880000000  0.4678910000000 1.0
C      1  0.4530640000000  0.5380030000000  0.4225420000000 1.0
C      1  0.5469680000000  0.4285260000000  0.4766580000000 1.0
C      1  0.3953750000000  0.4674710000000  0.5023300000000 1.0
C      1  0.4944360000000  0.4721630000000  0.5226230000000 1.0
C      1  0.4482870000000  0.5777710000000  0.4516820000000 1.0
C      1  0.5243810000000  0.4979360000000  0.5947770000000 1.0
C      1  0.5603210000000  0.4718100000000  0.4701170000000 1.0
C      1  0.4539840000000  0.5006310000000  0.5785780000000 1.0
C      1  0.4767160000000  0.5336050000000  0.4375830000000 1.0
C      1  0.4827540000000  0.4202080000000  0.5437350000000 1.0
C      1  0.5469760000000  0.4816110000000  0.5286980000000 1.0
C      1  0.5927400000000  0.4796480000000  0.5084690000000 1.0
C      1  0.4665650000000  0.4101640000000  0.5224480000000 1.0
C      1  0.5707330000000  0.5406630000000  0.4783190000000 1.0
C      1  0.4533780000000  0.4957860000000  0.5177650000000 1.0
C      1  0.5299270000000  0.5024110000000  0.4121130000000 1.0
C      1  0.5037490000000  0.4355510000000  0.4182740000000 1.0
C      1  0.4781630000000  0.5399040000000  0.5922020000000 1.0
C      1  0.4878160000000  0.4634510000000  0.4967300000000 1.0
C      1  0.5923260000000  0.4712940000000  0.5368760000000 1.0
C      1  0.5791110000000  0.4483080000000  0.5474580000000 1.0
C      1  0.5545040000000  0.5664800000000  0.4382440000000 1.0
C      1  0.5374700000000  0.4511030000000  0.5794700000000 1.0
C      1  0.4042730000000  0.4641970000000  0.4554410000000 1.0
C      1  0.4958400000000  0.4668860000000  0.4530870000000 1.0
C      1  0.4926200000000  0.3975920000000  0.4814790000000 1.0
C      1  0.5305540000000  0.5351160000000  0.5043570000000 1.0
C      1  0.4827800000000  0.4352270000000  0.5695790000000 1.0
C      1  0.5095040000000  0.4258830000000  0.5342630000000 1.0
C      1  0.5101080000000  0.5471460000000  0.4652180000000 1.0
C      1  0.5471330000000  0.4574140000000  0.4227720000000 1.0
C      1  0.3961400000000  0.4964560000000  0.5040900000000 1.0
C      1  0.5399730000000  0.5596990000000  0.4160270000000 1.0
C      1  0.5088250000000  0.5329370000000  0.5453260000000 1.0
C      1  0.4825400000000  0.4807210000000  0.3931470000000 1.0
C      1  0.5101020000000  0.4402540000000  0.5806030000000 1.0
C      1  0.5897540000000  0.5333420000000  0.4983990000000 1.0
C      1  0.5796560000000  0.5372320000000  0.5649660000000 1.0
C      1  0.5441330000000  0.4768380000000  0.5920090000000 1.0
C      1  0.4496140000000  0.4926900000000  0.4867060000000 1.0
C      1  0.5738080000000  0.4327130000000  0.4883790000000 1.0
C      1  0.5299800000000  0.4071850000000  0.5375350000000 1.0
C      1  0.5639870000000  0.4700950000000  0.4419510000000 1.0
C      1  0.4282430000000  0.5038000000000  0.4668960000000 1.0
C      1  0.5137570000000  0.5202600000000  0.3967310000000 1.0
C      1  0.4363280000000  0.4602900000000  0.5655120000000 1.0
C      1  0.5298270000000  0.5266190000000  0.4583360000000 1.0
C      1  0.5462060000000  0.5267470000000  0.4815310000000 1.0
C      1  0.4721110000000  0.5093390000000  0.4773150000000 1.0
C      1  0.5128220000000  0.4540120000000  0.5333380000000 1.0
C      1  0.4855150000000  0.5103030000000  0.3932420000000 1.0
C      1  0.4981350000000  0.6232700000000  0.5857090000000 1.0
C      1  0.4974560000000  0.4872720000000  0.5976040000000 1.0
C      1  0.4315620000000  0.5997230000000  0.4558510000000 1.0
C      1  0.5508290000000  0.6133620000000  0.5249250000000 1.0
C      1  0.4589860000000  0.4700730000000  0.3835560000000 1.0
C      1  0.4998700000000  0.5645420000000  0.3853780000000 1.0
C      1  0.4902060000000  0.5553320000000  0.4479850000000 1.0
C      1  0.5056960000000  0.4060540000000  0.4575880000000 1.0
C      1  0.4968740000000  0.5977540000000  0.4659850000000 1.0
C      1  0.4690620000000  0.5232000000000  0.5712120000000 1.0
C      1  0.4244550000000  0.4295090000000  0.4817790000000 1.0
END
