TITL C-247201-3759-87 4.02845298679978 125000 -1073.84602870822 0 0 177 (C1) n - 1
REM
REM in /home/nfs/bkarasulu/CARBON/AIRSS/Generating-Clusters/LCBOP/Only-C1/SD-CG/FIRE-HFTN
REM
REM
REM
REM
REM
REM ./C.cell (11c1c37f851c82e70ff6c80c92926a4b)
REM AIRSS Version 0.9.1 bugfix July 2018 build 013d7b7c2542+ Fri, 06 Jul 2018 19:26:36 +0100
REM compiler GCC version 9.2.1 20190827 (Red Hat 9.2.1-1)
REM options -cpp -mtune=generic -march=x86-64 -g -O0 -fpre-include=/usr/include/finclude/math-vector-fortran.h
REM seed 228667961 2062245703 -778761798 791359344 -1169008387 209766692 -398427514 -634718398 272172951 892877203 411801033 686301485 -952415429 1433803867 1009122481 -948148407 2138458893 -894971726 1653300979 -1231697765 -1331196365 -893169933 1299673822 -269876787 -1310286064 2095619582 -375003969 588691087 1551805645 -1991096493 -854401688 306831806 -1285095279
REM
CELL 1.54180   50.00000   50.00000   50.00000   90.00000   90.00000   90.00000
LATT -1
SFAC C  
C      1  0.5763990000000  0.4751340000000  0.3929140000000 1.0
C      1  0.5317350000000  0.5844900000000  0.5852240000000 1.0
C      1  0.4733130000000  0.6323340000000  0.5535770000000 1.0
C      1  0.4775580000000  0.4570470000000  0.5069570000000 1.0
C      1  0.4527440000000  0.5053820000000  0.4499700000000 1.0
C      1  0.5307740000000  0.4005590000000  0.4255980000000 1.0
C      1  0.5909780000000  0.4578890000000  0.5849100000000 1.0
C      1  0.4682880000000  0.4089200000000  0.5180020000000 1.0
C      1  0.5135430000000  0.5485830000000  0.4193080000000 1.0
C      1  0.5145440000000  0.3952990000000  0.5272190000000 1.0
C      1  0.6194140000000  0.4799700000000  0.5102530000000 1.0
C      1  0.5135170000000  0.5381100000000  0.6276460000000 1.0
C      1  0.3985580000000  0.5432670000000  0.5519130000000 1.0
C      1  0.4240690000000  0.4923190000000  0.4011510000000 1.0
C      1  0.4649160000000  0.5536650000000  0.4483060000000 1.0
C      1  0.3839030000000  0.5367610000000  0.4857540000000 1.0
C      1  0.4610480000000  0.5566970000000  0.5984440000000 1.0
C      1  0.5581040000000  0.4823030000000  0.5402300000000 1.0
C      1  0.3782440000000  0.5533730000000  0.5073800000000 1.0
C      1  0.3842330000000  0.4990470000000  0.4587310000000 1.0
C      1  0.5487940000000  0.4520480000000  0.4430920000000 1.0
C      1  0.3765460000000  0.4887350000000  0.5372350000000 1.0
C      1  0.6068130000000  0.4610040000000  0.4913220000000 1.0
C      1  0.4915900000000  0.5056010000000  0.5246870000000 1.0
C      1  0.5870590000000  0.5719560000000  0.5488300000000 1.0
C      1  0.4364160000000  0.5889160000000  0.4747000000000 1.0
C      1  0.4989180000000  0.4105260000000  0.5993850000000 1.0
C      1  0.5395880000000  0.4935740000000  0.4184300000000 1.0
C      1  0.5124130000000  0.5963380000000  0.4995250000000 1.0
C      1  0.5058330000000  0.3843550000000  0.5010010000000 1.0
C      1  0.4619930000000  0.5425120000000  0.4988680000000 1.0
C      1  0.4884030000000  0.4911630000000  0.4152810000000 1.0
C      1  0.3806340000000  0.4745210000000  0.4454550000000 1.0
C      1  0.4543420000000  0.5236000000000  0.3741710000000 1.0
C      1  0.5150980000000  0.5309930000000  0.4437600000000 1.0
C      1  0.4502810000000  0.4879020000000  0.5381310000000 1.0
C      1  0.5444390000000  0.5296560000000  0.4511710000000 1.0
C      1  0.4351330000000  0.5142810000000  0.5355070000000 1.0
C      1  0.4187550000000  0.5247370000000  0.5562420000000 1.0
C      1  0.4145300000000  0.5154180000000  0.4179630000000 1.0
C      1  0.5891700000000  0.4089530000000  0.4872190000000 1.0
C      1  0.4941710000000  0.5055280000000  0.5904430000000 1.0
C      1  0.4887530000000  0.4609740000000  0.6136260000000 1.0
C      1  0.5130410000000  0.4003350000000  0.5772440000000 1.0
C      1  0.5722220000000  0.5371870000000  0.5757150000000 1.0
C      1  0.4672620000000  0.5747890000000  0.4279630000000 1.0
C      1  0.5461520000000  0.5290120000000  0.5683800000000 1.0
C      1  0.4382540000000  0.4568910000000  0.4547860000000 1.0
C      1  0.3837290000000  0.5553730000000  0.5333990000000 1.0
C      1  0.4518290000000  0.5308390000000  0.4386240000000 1.0
C      1  0.4919370000000  0.4331570000000  0.6116050000000 1.0
C      1  0.4552420000000  0.5329060000000  0.5253620000000 1.0
C      1  0.4415440000000  0.4490770000000  0.5651670000000 1.0
C      1  0.4541000000000  0.4962580000000  0.3829230000000 1.0
C      1  0.5294010000000  0.5801320000000  0.5575120000000 1.0
C      1  0.4722530000000  0.4829180000000  0.6600920000000 1.0
C      1  0.4894570000000  0.4663280000000  0.5644280000000 1.0
C      1  0.5385620000000  0.5853850000000  0.5020790000000 1.0
C      1  0.6053520000000  0.4992680000000  0.5606720000000 1.0
C      1  0.4191920000000  0.5660440000000  0.4695880000000 1.0
C      1  0.5612900000000  0.4661940000000  0.4965250000000 1.0
C      1  0.4115730000000  0.4359140000000  0.5160480000000 1.0
C      1  0.5432540000000  0.4845510000000  0.4903790000000 1.0
C      1  0.4743930000000  0.4360880000000  0.3927180000000 1.0
C      1  0.5831320000000  0.4510670000000  0.5101740000000 1.0
C      1  0.4357830000000  0.5341790000000  0.4158270000000 1.0
C      1  0.5567240000000  0.4320130000000  0.4604360000000 1.0
C      1  0.3983720000000  0.4718520000000  0.5468350000000 1.0
C      1  0.5522400000000  0.4302680000000  0.5641990000000 1.0
C      1  0.5181230000000  0.5083330000000  0.5345000000000 1.0
C      1  0.4776250000000  0.4673340000000  0.4281520000000 1.0
C      1  0.4763550000000  0.5475020000000  0.4737760000000 1.0
C      1  0.5354400000000  0.4638330000000  0.4216370000000 1.0
C      1  0.3768650000000  0.5085050000000  0.4857420000000 1.0
C      1  0.4316680000000  0.4272720000000  0.4988000000000 1.0
C      1  0.5943290000000  0.5254740000000  0.5602240000000 1.0
C      1  0.4517300000000  0.4219540000000  0.5622090000000 1.0
C      1  0.4615810000000  0.4680240000000  0.5559130000000 1.0
C      1  0.4680050000000  0.4854940000000  0.5128340000000 1.0
C      1  0.4623630000000  0.4452120000000  0.4166940000000 1.0
C      1  0.5402180000000  0.5076540000000  0.3717810000000 1.0
C      1  0.5248020000000  0.5297320000000  0.3749080000000 1.0
C      1  0.4541360000000  0.5313860000000  0.5870400000000 1.0
C      1  0.4773100000000  0.5245050000000  0.5427990000000 1.0
C      1  0.4853070000000  0.5969600000000  0.4970490000000 1.0
C      1  0.5117100000000  0.5023410000000  0.4328910000000 1.0
C      1  0.5217380000000  0.4343440000000  0.5003980000000 1.0
C      1  0.4971790000000  0.4529000000000  0.3871550000000 1.0
C      1  0.4021570000000  0.5434650000000  0.4637620000000 1.0
C      1  0.5978180000000  0.5481020000000  0.3791990000000 1.0
C      1  0.4494240000000  0.4344660000000  0.4402010000000 1.0
C      1  0.5378790000000  0.4255620000000  0.4797090000000 1.0
C      1  0.5534960000000  0.5614020000000  0.3945650000000 1.0
C      1  0.5615080000000  0.5181620000000  0.4331670000000 1.0
C      1  0.5535640000000  0.4926060000000  0.3914940000000 1.0
C      1  0.6063160000000  0.4829990000000  0.5364230000000 1.0
C      1  0.5048460000000  0.4568760000000  0.4982540000000 1.0
C      1  0.4577020000000  0.6006870000000  0.4335220000000 1.0
C      1  0.4587480000000  0.5922350000000  0.4927870000000 1.0
C      1  0.4811220000000  0.4853700000000  0.3887050000000 1.0
C      1  0.4983400000000  0.3958420000000  0.5524530000000 1.0
C      1  0.5393250000000  0.4211490000000  0.4066300000000 1.0
C      1  0.4196200000000  0.4808530000000  0.5037990000000 1.0
C      1  0.6001660000000  0.4568570000000  0.4342640000000 1.0
C      1  0.4679450000000  0.4172680000000  0.4549560000000 1.0
C      1  0.4759150000000  0.5848900000000  0.5627540000000 1.0
C      1  0.4604690000000  0.6076910000000  0.5566810000000 1.0
C      1  0.5866320000000  0.6191840000000  0.6592530000000 1.0
C      1  0.5695680000000  0.5957850000000  0.6153900000000 1.0
C      1  0.5199330000000  0.3810920000000  0.4755710000000 1.0
C      1  0.4333340000000  0.6056700000000  0.5538880000000 1.0
C      1  0.5027950000000  0.5382270000000  0.4703010000000 1.0
C      1  0.4917990000000  0.4330210000000  0.4571250000000 1.0
C      1  0.4805830000000  0.5761970000000  0.5897090000000 1.0
C      1  0.4447840000000  0.4868360000000  0.4922840000000 1.0
C      1  0.4675160000000  0.3944400000000  0.4714150000000 1.0
C      1  0.4589170000000  0.4338510000000  0.5071840000000 1.0
C      1  0.4656980000000  0.5661550000000  0.4005380000000 1.0
C      1  0.4768590000000  0.5203710000000  0.5723980000000 1.0
C      1  0.5817670000000  0.4635770000000  0.5378270000000 1.0
C      1  0.5817090000000  0.5359820000000  0.4238340000000 1.0
C      1  0.5262540000000  0.5325110000000  0.5481220000000 1.0
C      1  0.4169360000000  0.4669170000000  0.5697180000000 1.0
C      1  0.4392170000000  0.6063220000000  0.4523600000000 1.0
C      1  0.5300850000000  0.4384550000000  0.5472650000000 1.0
C      1  0.4922740000000  0.4772590000000  0.5906060000000 1.0
C      1  0.5225140000000  0.4459490000000  0.4021730000000 1.0
C      1  0.3903640000000  0.4628270000000  0.4231980000000 1.0
C      1  0.4870590000000  0.6541450000000  0.5497740000000 1.0
C      1  0.4884480000000  0.5686750000000  0.5431910000000 1.0
C      1  0.5082390000000  0.4823240000000  0.4582250000000 1.0
C      1  0.5255560000000  0.3875040000000  0.4492950000000 1.0
C      1  0.5276150000000  0.5499840000000  0.3946080000000 1.0
C      1  0.5680530000000  0.4284510000000  0.4051240000000 1.0
C      1  0.5081030000000  0.5176650000000  0.6114380000000 1.0
C      1  0.5962730000000  0.5452140000000  0.5387790000000 1.0
C      1  0.5793590000000  0.5925970000000  0.5305760000000 1.0
C      1  0.4661390000000  0.4152560000000  0.3774370000000 1.0
C      1  0.6017190000000  0.4497840000000  0.4629560000000 1.0
C      1  0.4714040000000  0.4066460000000  0.5466690000000 1.0
C      1  0.5152010000000  0.4623020000000  0.5512510000000 1.0
C      1  0.4086890000000  0.4689850000000  0.4043180000000 1.0
C      1  0.5150230000000  0.5589230000000  0.5454780000000 1.0
C      1  0.3998350000000  0.5198750000000  0.4438120000000 1.0
C      1  0.5593140000000  0.5827880000000  0.5931090000000 1.0
C      1  0.5250230000000  0.4219760000000  0.5250480000000 1.0
C      1  0.5305310000000  0.4848340000000  0.5426840000000 1.0
C      1  0.5205650000000  0.5404200000000  0.4916570000000 1.0
C      1  0.5872880000000  0.5368920000000  0.5133620000000 1.0
C      1  0.5166740000000  0.4794420000000  0.4844140000000 1.0
C      1  0.4496840000000  0.5440630000000  0.3931160000000 1.0
C      1  0.5856550000000  0.4214300000000  0.5112040000000 1.0
C      1  0.5675170000000  0.5938730000000  0.5042850000000 1.0
C      1  0.5122130000000  0.5647640000000  0.6249250000000 1.0
C      1  0.4779560000000  0.3909690000000  0.4976940000000 1.0
C      1  0.5844610000000  0.4526390000000  0.4094630000000 1.0
C      1  0.4219180000000  0.4898060000000  0.5875140000000 1.0
C      1  0.5768440000000  0.4459090000000  0.5628890000000 1.0
C      1  0.5958760000000  0.5520050000000  0.4425950000000 1.0
C      1  0.4808550000000  0.4721690000000  0.6379630000000 1.0
C      1  0.6029920000000  0.4825030000000  0.5839060000000 1.0
C      1  0.5419040000000  0.5561840000000  0.4989930000000 1.0
C      1  0.5698580000000  0.5497270000000  0.4957930000000 1.0
C      1  0.4292050000000  0.5172360000000  0.5818260000000 1.0
C      1  0.4932530000000  0.4599750000000  0.4499860000000 1.0
C      1  0.4088710000000  0.4625120000000  0.5220580000000 1.0
C      1  0.5414660000000  0.4068390000000  0.5771440000000 1.0
C      1  0.5753990000000  0.5666970000000  0.5757150000000 1.0
C      1  0.4232670000000  0.4102090000000  0.4791030000000 1.0
C      1  0.3707760000000  0.4970690000000  0.5114570000000 1.0
C      1  0.5784350000000  0.5485990000000  0.3983640000000 1.0
C      1  0.5841400000000  0.4259160000000  0.4650940000000 1.0
C      1  0.5945490000000  0.5714540000000  0.4612110000000 1.0
C      1  0.5808750000000  0.5750260000000  0.4853040000000 1.0
C      1  0.5782560000000  0.6076180000000  0.6374420000000 1.0
C      1  0.5076990000000  0.5790060000000  0.6009190000000 1.0
C      1  0.4457390000000  0.4827850000000  0.4646300000000 1.0
END
