TITL C-247196-3112-137 0.115228383431406 125000 -468.356221342364 0 0 80 (C1) n - 1
REM
REM in /home/nfs/bkarasulu/CARBON/AIRSS/Generating-Clusters/LCBOP/Only-C1/SD-CG/FIRE-HFTN
REM
REM
REM
REM
REM
REM ./C.cell (11c1c37f851c82e70ff6c80c92926a4b)
REM AIRSS Version 0.9.1 bugfix July 2018 build 013d7b7c2542+ Fri, 06 Jul 2018 19:26:36 +0100
REM compiler GCC version 9.2.1 20190827 (Red Hat 9.2.1-1)
REM options -cpp -mtune=generic -march=x86-64 -g -O0 -fpre-include=/usr/include/finclude/math-vector-fortran.h
REM seed -931350141 1973303358 -2071148186 -146201727 -266776570 -1505402112 -168077164 1230551999 1555068743 -584689546 605076874 972090250 1910335774 -1020454645 -28098990 981219014 -1014228577 -2099005247 -514979558 2010552574 2035291617 -87590577 873007819 -1081838138 -11771657 -497069062 -1397358918 -496774398 883205842 -841330126 -1995530080 1569146501 -522270208
REM
CELL 1.54180   50.00000   50.00000   50.00000   90.00000   90.00000   90.00000
LATT -1
SFAC C  
C      1  0.5179730000000  0.5673090000000  0.5349690000000 1.0
C      1  0.5359190000000  0.5030780000000  0.4275830000000 1.0
C      1  0.4384510000000  0.4234400000000  0.4690030000000 1.0
C      1  0.4531710000000  0.4783940000000  0.4178540000000 1.0
C      1  0.4496260000000  0.5137310000000  0.4954590000000 1.0
C      1  0.5238410000000  0.4581400000000  0.4234180000000 1.0
C      1  0.4218120000000  0.5808440000000  0.5477210000000 1.0
C      1  0.5141790000000  0.5183820000000  0.5212320000000 1.0
C      1  0.5075240000000  0.4154320000000  0.4443560000000 1.0
C      1  0.5688250000000  0.4722720000000  0.5072220000000 1.0
C      1  0.4882500000000  0.4485910000000  0.4952670000000 1.0
C      1  0.5504220000000  0.4498250000000  0.5051970000000 1.0
C      1  0.4781340000000  0.5859110000000  0.4499390000000 1.0
C      1  0.5165930000000  0.4306500000000  0.4214230000000 1.0
C      1  0.4468530000000  0.4818260000000  0.5654130000000 1.0
C      1  0.5674030000000  0.4896650000000  0.4848790000000 1.0
C      1  0.4142080000000  0.5170150000000  0.5832090000000 1.0
C      1  0.6631590000000  0.5559660000000  0.6290130000000 1.0
C      1  0.5735460000000  0.4898710000000  0.5297080000000 1.0
C      1  0.5306110000000  0.4504430000000  0.5266990000000 1.0
C      1  0.5090780000000  0.5567560000000  0.4730310000000 1.0
C      1  0.4288070000000  0.5996060000000  0.4989280000000 1.0
C      1  0.4285650000000  0.4476620000000  0.4806060000000 1.0
C      1  0.5442300000000  0.4039100000000  0.5284270000000 1.0
C      1  0.4809590000000  0.4192740000000  0.5353730000000 1.0
C      1  0.4991220000000  0.4915720000000  0.3969240000000 1.0
C      1  0.4228320000000  0.5920370000000  0.5236560000000 1.0
C      1  0.5005800000000  0.5691300000000  0.4489210000000 1.0
C      1  0.4780080000000  0.5480080000000  0.5768100000000 1.0
C      1  0.5254560000000  0.5624780000000  0.4015860000000 1.0
C      1  0.4177730000000  0.6264830000000  0.4607490000000 1.0
C      1  0.5594440000000  0.5395020000000  0.5241450000000 1.0
C      1  0.5136390000000  0.4732870000000  0.5240030000000 1.0
C      1  0.5483890000000  0.4030900000000  0.5013850000000 1.0
C      1  0.4893280000000  0.5530420000000  0.4938100000000 1.0
C      1  0.4284030000000  0.4947110000000  0.5797270000000 1.0
C      1  0.5750500000000  0.5180040000000  0.5359740000000 1.0
C      1  0.4535810000000  0.4035950000000  0.4552300000000 1.0
C      1  0.5139280000000  0.5647070000000  0.4248530000000 1.0
C      1  0.5241470000000  0.4837510000000  0.4083130000000 1.0
C      1  0.6286670000000  0.5407360000000  0.5923710000000 1.0
C      1  0.5285080000000  0.4248410000000  0.5401690000000 1.0
C      1  0.4284000000000  0.4511050000000  0.5087340000000 1.0
C      1  0.5185030000000  0.4270310000000  0.4690500000000 1.0
C      1  0.5422840000000  0.4271460000000  0.4867040000000 1.0
C      1  0.4598950000000  0.4801410000000  0.5388560000000 1.0
C      1  0.5422520000000  0.5562330000000  0.5397470000000 1.0
C      1  0.4806520000000  0.4063430000000  0.4467570000000 1.0
C      1  0.5884520000000  0.4968340000000  0.4692820000000 1.0
C      1  0.5363510000000  0.5517030000000  0.4791050000000 1.0
C      1  0.4561020000000  0.5631070000000  0.5769590000000 1.0
C      1  0.4908340000000  0.4838590000000  0.5402950000000 1.0
C      1  0.4788770000000  0.4710170000000  0.4560110000000 1.0
C      1  0.5024390000000  0.4543840000000  0.4691290000000 1.0
C      1  0.5402450000000  0.4980570000000  0.4816500000000 1.0
C      1  0.5324780000000  0.4943610000000  0.4550630000000 1.0
C      1  0.4966170000000  0.5652170000000  0.5184990000000 1.0
C      1  0.4668690000000  0.5358160000000  0.4902330000000 1.0
C      1  0.4292700000000  0.5640600000000  0.5687350000000 1.0
C      1  0.4919780000000  0.5282820000000  0.5657960000000 1.0
C      1  0.4515580000000  0.4552180000000  0.5243020000000 1.0
C      1  0.4564110000000  0.5981080000000  0.4590760000000 1.0
C      1  0.5231470000000  0.4958170000000  0.5056500000000 1.0
C      1  0.4860520000000  0.4963060000000  0.4424630000000 1.0
C      1  0.4770760000000  0.4947860000000  0.4143690000000 1.0
C      1  0.4329390000000  0.4715450000000  0.4653220000000 1.0
C      1  0.4732880000000  0.4387770000000  0.5169300000000 1.0
C      1  0.4507690000000  0.5033570000000  0.5216120000000 1.0
C      1  0.4987860000000  0.5119080000000  0.5446080000000 1.0
C      1  0.4129370000000  0.5431900000000  0.5780310000000 1.0
C      1  0.6112820000000  0.5330610000000  0.5739030000000 1.0
C      1  0.6460560000000  0.5484140000000  0.6108440000000 1.0
C      1  0.4341960000000  0.6082170000000  0.4728160000000 1.0
C      1  0.5234300000000  0.4676180000000  0.4514240000000 1.0
C      1  0.5559190000000  0.5445160000000  0.4963040000000 1.0
C      1  0.5033930000000  0.4171610000000  0.5499020000000 1.0
C      1  0.4409920000000  0.3797820000000  0.4496560000000 1.0
C      1  0.4519440000000  0.4674530000000  0.4448510000000 1.0
C      1  0.5938620000000  0.5254580000000  0.5554570000000 1.0
C      1  0.4344690000000  0.4976460000000  0.4773170000000 1.0
END
