TITL C-247196-3112-26 -46355.054606199 125000 -1074.42896452402 0 0 175 (C1) n - 1
REM
REM in /home/nfs/bkarasulu/CARBON/AIRSS/Generating-Clusters/LCBOP/Only-C1/SD-CG/FIRE-HFTN
REM
REM
REM
REM
REM
REM ./C.cell (11c1c37f851c82e70ff6c80c92926a4b)
REM AIRSS Version 0.9.1 bugfix July 2018 build 013d7b7c2542+ Fri, 06 Jul 2018 19:26:36 +0100
REM compiler GCC version 9.2.1 20190827 (Red Hat 9.2.1-1)
REM options -cpp -mtune=generic -march=x86-64 -g -O0 -fpre-include=/usr/include/finclude/math-vector-fortran.h
REM seed 2129207334 -480487352 -906248094 146510899 -443897596 -1002658244 -218135099 960862878 -98451056 -154300339 -249025113 823605705 1345327089 -1435282613 -1318720029 1368053076 818909035 -2010575980 1741879424 1234301784 -776957380 1775250001 -634342024 -576662219 161996583 1650806047 1776522142 684440062 -1842715339 359518975 -700343772 -1042697605 -1052157737
REM
CELL 1.54180   50.00000   50.00000   50.00000   90.00000   90.00000   90.00000
LATT -1
SFAC C  
C      1  0.4884610000000  0.5285660000000  0.5563300000000 1.0
C      1  0.4580510000000  0.4525750000000  0.5857260000000 1.0
C      1  0.4633590000000  0.5988200000000  0.4870000000000 1.0
C      1  0.6043960000000  0.5388000000000  0.5161470000000 1.0
C      1  0.5165520000000  0.5210820000000  0.6679220000000 1.0
C      1  0.4435150000000  0.4405300000000  0.5242430000000 1.0
C      1  0.5322700000000  0.5348820000000  0.5462650000000 1.0
C      1  0.5053970000000  0.5728880000000  0.5289490000000 1.0
C      1  0.3816370000000  0.4511570000000  0.4861590000000 1.0
C      1  0.4691010000000  0.5544880000000  0.6000920000000 1.0
C      1  0.4548280000000  0.4373890000000  0.4403970000000 1.0
C      1  0.4917640000000  0.5526560000000  0.5445300000000 1.0
C      1  0.4733690000000  0.4109990000000  0.5573640000000 1.0
C      1  0.5400860000000  0.4247000000000  0.5713210000000 1.0
C      1  0.5589170000000  0.4929830000000  0.5431680000000 1.0
C      1  0.4200660000000  0.4993350000000  0.4135390000000 1.0
C      1  0.4651850000000  0.4869850000000  0.5110140000000 1.0
C      1  0.4522450000000  0.5437050000000  0.5014420000000 1.0
C      1  0.5460260000000  0.5096680000000  0.6004090000000 1.0
C      1  0.3813420000000  0.5454860000000  0.5302470000000 1.0
C      1  0.5698180000000  0.4800800000000  0.4691720000000 1.0
C      1  0.4396510000000  0.4846250000000  0.3984380000000 1.0
C      1  0.5891560000000  0.4666870000000  0.4841870000000 1.0
C      1  0.5015650000000  0.5097780000000  0.5731300000000 1.0
C      1  0.3946910000000  0.4079420000000  0.4730820000000 1.0
C      1  0.7099160000000  0.6726800000000  0.5456420000000 1.0
C      1  0.5925640000000  0.4389150000000  0.4774110000000 1.0
C      1  0.5962420000000  0.5036520000000  0.4344950000000 1.0
C      1  0.5188040000000  0.5190870000000  0.5239090000000 1.0
C      1  0.5850260000000  0.4240190000000  0.5024880000000 1.0
C      1  0.4711660000000  0.3887520000000  0.5383200000000 1.0
C      1  0.5108210000000  0.3911400000000  0.4438890000000 1.0
C      1  0.4577960000000  0.5058930000000  0.5931000000000 1.0
C      1  0.4694990000000  0.4788840000000  0.5878050000000 1.0
C      1  0.3878120000000  0.5057810000000  0.5055730000000 1.0
C      1  0.5051380000000  0.4516300000000  0.3874370000000 1.0
C      1  0.5422510000000  0.4791160000000  0.4793390000000 1.0
C      1  0.3530360000000  0.4176640000000  0.5021920000000 1.0
C      1  0.6165120000000  0.5623490000000  0.5121390000000 1.0
C      1  0.5210980000000  0.4442090000000  0.5140210000000 1.0
C      1  0.4799930000000  0.4525470000000  0.4010540000000 1.0
C      1  0.4920610000000  0.6035970000000  0.4836870000000 1.0
C      1  0.4961900000000  0.4826520000000  0.5776020000000 1.0
C      1  0.4470440000000  0.5497500000000  0.5301220000000 1.0
C      1  0.4807870000000  0.5022260000000  0.4130600000000 1.0
C      1  0.6743670000000  0.6397150000000  0.5252470000000 1.0
C      1  0.4734550000000  0.5271520000000  0.6074690000000 1.0
C      1  0.5153060000000  0.4384830000000  0.5686560000000 1.0
C      1  0.5372770000000  0.3493240000000  0.5256230000000 1.0
C      1  0.5887020000000  0.4721850000000  0.5123290000000 1.0
C      1  0.5127820000000  0.5367350000000  0.3877690000000 1.0
C      1  0.4817890000000  0.6088070000000  0.5528890000000 1.0
C      1  0.5281000000000  0.4713400000000  0.5049990000000 1.0
C      1  0.3419410000000  0.4317220000000  0.5225340000000 1.0
C      1  0.5392800000000  0.3996270000000  0.5026010000000 1.0
C      1  0.4935980000000  0.5195930000000  0.3949300000000 1.0
C      1  0.4508110000000  0.5791470000000  0.4684590000000 1.0
C      1  0.4444900000000  0.4210700000000  0.4622050000000 1.0
C      1  0.4937570000000  0.4379600000000  0.5233340000000 1.0
C      1  0.5889650000000  0.4449530000000  0.5248830000000 1.0
C      1  0.5409110000000  0.4790570000000  0.5579770000000 1.0
C      1  0.6562630000000  0.6228950000000  0.5156620000000 1.0
C      1  0.6923170000000  0.6563660000000  0.5354280000000 1.0
C      1  0.5757310000000  0.5859910000000  0.4666680000000 1.0
C      1  0.3788750000000  0.5174640000000  0.5301580000000 1.0
C      1  0.4278190000000  0.5270620000000  0.4209790000000 1.0
C      1  0.3937130000000  0.4861890000000  0.4537290000000 1.0
C      1  0.4001580000000  0.4814420000000  0.4263250000000 1.0
C      1  0.4423510000000  0.5495820000000  0.4283550000000 1.0
C      1  0.5668850000000  0.4381660000000  0.4332240000000 1.0
C      1  0.4518240000000  0.5776680000000  0.5375460000000 1.0
C      1  0.5496550000000  0.4732090000000  0.4032410000000 1.0
C      1  0.5658130000000  0.5418350000000  0.4884840000000 1.0
C      1  0.5473870000000  0.4139890000000  0.5468190000000 1.0
C      1  0.5432550000000  0.6222860000000  0.5324400000000 1.0
C      1  0.4665490000000  0.5865700000000  0.5622540000000 1.0
C      1  0.5410040000000  0.4265670000000  0.4339980000000 1.0
C      1  0.5155320000000  0.4383230000000  0.4378480000000 1.0
C      1  0.3614190000000  0.5018540000000  0.5736020000000 1.0
C      1  0.5517280000000  0.6027500000000  0.4623340000000 1.0
C      1  0.5296690000000  0.5465140000000  0.4587720000000 1.0
C      1  0.4951340000000  0.4284320000000  0.5506970000000 1.0
C      1  0.4865960000000  0.4856520000000  0.5293090000000 1.0
C      1  0.5363530000000  0.3729610000000  0.5147000000000 1.0
C      1  0.5138720000000  0.6207120000000  0.4926540000000 1.0
C      1  0.5022160000000  0.5485600000000  0.4521490000000 1.0
C      1  0.4644300000000  0.4215200000000  0.4845160000000 1.0
C      1  0.4893530000000  0.5703490000000  0.4383740000000 1.0
C      1  0.5976050000000  0.4420740000000  0.5523220000000 1.0
C      1  0.5385250000000  0.4223520000000  0.5217390000000 1.0
C      1  0.5251930000000  0.4825120000000  0.4567960000000 1.0
C      1  0.5011380000000  0.6010080000000  0.5341880000000 1.0
C      1  0.5304810000000  0.5955440000000  0.5756070000000 1.0
C      1  0.4670650000000  0.4788990000000  0.4027950000000 1.0
C      1  0.4967320000000  0.4160490000000  0.4312220000000 1.0
C      1  0.5358650000000  0.5483570000000  0.3947130000000 1.0
C      1  0.4357320000000  0.5598520000000  0.4838400000000 1.0
C      1  0.5688900000000  0.4958250000000  0.5983170000000 1.0
C      1  0.4385800000000  0.5314510000000  0.5501720000000 1.0
C      1  0.4820820000000  0.4671860000000  0.4628820000000 1.0
C      1  0.4395350000000  0.4830100000000  0.4566840000000 1.0
C      1  0.5147590000000  0.5598750000000  0.5029390000000 1.0
C      1  0.4850130000000  0.3696300000000  0.4884430000000 1.0
C      1  0.4737990000000  0.4303650000000  0.4202280000000 1.0
C      1  0.4180060000000  0.4475120000000  0.5244650000000 1.0
C      1  0.6378910000000  0.6058210000000  0.5071350000000 1.0
C      1  0.4836670000000  0.5284450000000  0.4614620000000 1.0
C      1  0.5411190000000  0.3991630000000  0.4458950000000 1.0
C      1  0.6153640000000  0.5198820000000  0.4274150000000 1.0
C      1  0.4827050000000  0.5727610000000  0.5829150000000 1.0
C      1  0.5162290000000  0.6205800000000  0.5216690000000 1.0
C      1  0.4090270000000  0.5641290000000  0.4915350000000 1.0
C      1  0.6179570000000  0.5877170000000  0.4999440000000 1.0
C      1  0.5527920000000  0.5515990000000  0.4152160000000 1.0
C      1  0.4169680000000  0.4938420000000  0.4683870000000 1.0
C      1  0.5001900000000  0.5336420000000  0.5064810000000 1.0
C      1  0.4767320000000  0.5317320000000  0.4900170000000 1.0
C      1  0.5033200000000  0.5776580000000  0.4827690000000 1.0
C      1  0.4913860000000  0.4143940000000  0.4787940000000 1.0
C      1  0.5587460000000  0.6238300000000  0.5082050000000 1.0
C      1  0.3415660000000  0.4919140000000  0.5041630000000 1.0
C      1  0.5688890000000  0.4640850000000  0.4227320000000 1.0
C      1  0.3738360000000  0.4238580000000  0.4839960000000 1.0
C      1  0.5427180000000  0.6190120000000  0.4841880000000 1.0
C      1  0.4531820000000  0.5961100000000  0.5144020000000 1.0
C      1  0.4406140000000  0.5163040000000  0.5724460000000 1.0
C      1  0.5448110000000  0.6113730000000  0.5586300000000 1.0
C      1  0.3974930000000  0.4546710000000  0.5093480000000 1.0
C      1  0.4003720000000  0.4534340000000  0.4203000000000 1.0
C      1  0.5161450000000  0.4069220000000  0.4854840000000 1.0
C      1  0.5665500000000  0.4030020000000  0.4911540000000 1.0
C      1  0.4160790000000  0.4165660000000  0.4564680000000 1.0
C      1  0.5808370000000  0.5247820000000  0.5078450000000 1.0
C      1  0.5662940000000  0.4011190000000  0.4621340000000 1.0
C      1  0.4776060000000  0.4802200000000  0.4866800000000 1.0
C      1  0.3914080000000  0.5621110000000  0.5116290000000 1.0
C      1  0.4575890000000  0.4267470000000  0.5761370000000 1.0
C      1  0.5841810000000  0.4761580000000  0.5881600000000 1.0
C      1  0.5010030000000  0.5240950000000  0.6164770000000 1.0
C      1  0.5737690000000  0.5571230000000  0.4634360000000 1.0
C      1  0.5079890000000  0.5912990000000  0.4324220000000 1.0
C      1  0.3398130000000  0.4555640000000  0.5350220000000 1.0
C      1  0.3656150000000  0.4949420000000  0.4898700000000 1.0
C      1  0.5830690000000  0.4506830000000  0.5759180000000 1.0
C      1  0.4598580000000  0.5695180000000  0.4420950000000 1.0
C      1  0.3746740000000  0.4751060000000  0.4717050000000 1.0
C      1  0.5325050000000  0.5997720000000  0.4410590000000 1.0
C      1  0.5314910000000  0.4575960000000  0.3881020000000 1.0
C      1  0.3613810000000  0.5009360000000  0.5463220000000 1.0
C      1  0.4670850000000  0.4345500000000  0.5105060000000 1.0
C      1  0.4147550000000  0.5006710000000  0.4961570000000 1.0
C      1  0.5538470000000  0.5498810000000  0.4429540000000 1.0
C      1  0.5295200000000  0.5012430000000  0.4365130000000 1.0
C      1  0.4967200000000  0.3733580000000  0.4632520000000 1.0
C      1  0.6220580000000  0.4300380000000  0.5564990000000 1.0
C      1  0.5622360000000  0.4339510000000  0.5858250000000 1.0
C      1  0.5377030000000  0.5480920000000  0.4876180000000 1.0
C      1  0.5071790000000  0.4615960000000  0.4519040000000 1.0
C      1  0.5273510000000  0.5468670000000  0.5743120000000 1.0
C      1  0.5824470000000  0.4254520000000  0.4539470000000 1.0
C      1  0.5779420000000  0.4839390000000  0.4417320000000 1.0
C      1  0.5136650000000  0.5725100000000  0.5801270000000 1.0
C      1  0.5138300000000  0.4913390000000  0.5211990000000 1.0
C      1  0.4773080000000  0.5108210000000  0.4401640000000 1.0
C      1  0.5986890000000  0.5945230000000  0.4805200000000 1.0
C      1  0.5088040000000  0.5226160000000  0.6430890000000 1.0
C      1  0.5390240000000  0.4980310000000  0.4115320000000 1.0
C      1  0.4067790000000  0.4301890000000  0.4325890000000 1.0
C      1  0.4579380000000  0.4637360000000  0.4494910000000 1.0
C      1  0.5767350000000  0.4975060000000  0.5210740000000 1.0
C      1  0.4382440000000  0.4953330000000  0.5113940000000 1.0
C      1  0.3440560000000  0.4832910000000  0.5312700000000 1.0
C      1  0.5204250000000  0.5230180000000  0.5928490000000 1.0
C      1  0.4767440000000  0.3761040000000  0.5142280000000 1.0
C      1  0.5178450000000  0.4665000000000  0.5700170000000 1.0
END
