TITL C-247201-3759-532 0.01001235449326 125000 -664.369032372832 0 0 107 (C1) n - 1
REM
REM in /home/nfs/bkarasulu/CARBON/AIRSS/Generating-Clusters/LCBOP/Only-C1/SD-CG/FIRE-HFTN
REM
REM
REM
REM
REM
REM ./C.cell (11c1c37f851c82e70ff6c80c92926a4b)
REM AIRSS Version 0.9.1 bugfix July 2018 build 013d7b7c2542+ Fri, 06 Jul 2018 19:26:36 +0100
REM compiler GCC version 9.2.1 20190827 (Red Hat 9.2.1-1)
REM options -cpp -mtune=generic -march=x86-64 -g -O0 -fpre-include=/usr/include/finclude/math-vector-fortran.h
REM seed 363796778 -1354307599 328725972 -943434287 1175598375 942556500 -437664252 -487390640 -718891069 943393394 751805069 -2111558183 1965523164 -1539677403 -1426616508 -961167016 1079724240 1392131403 -787156156 1408778917 1387539488 289344196 -1556828661 907849853 1883125492 -1001193163 -1073028712 852499236 1714128354 -278307629 972328223 839929299 1044361568
REM
CELL 1.54180   50.00000   50.00000   50.00000   90.00000   90.00000   90.00000
LATT -1
SFAC C  
C      1  0.4842650000000  0.4711510000000  0.5855930000000 1.0
C      1  0.4741620000000  0.5827980000000  0.4753930000000 1.0
C      1  0.4716600000000  0.4344070000000  0.5568570000000 1.0
C      1  0.5711750000000  0.4408680000000  0.5020170000000 1.0
C      1  0.3978980000000  0.5029060000000  0.5443470000000 1.0
C      1  0.4938350000000  0.5774130000000  0.5354450000000 1.0
C      1  0.5127230000000  0.5716600000000  0.5822350000000 1.0
C      1  0.4266190000000  0.5016430000000  0.4357840000000 1.0
C      1  0.5459900000000  0.4300890000000  0.5884370000000 1.0
C      1  0.3937490000000  0.5277840000000  0.5358630000000 1.0
C      1  0.5124060000000  0.4608430000000  0.4741800000000 1.0
C      1  0.4761340000000  0.4349160000000  0.4551090000000 1.0
C      1  0.5323140000000  0.3947650000000  0.5278450000000 1.0
C      1  0.4652440000000  0.5204900000000  0.4040290000000 1.0
C      1  0.4082350000000  0.5941520000000  0.4487570000000 1.0
C      1  0.5647340000000  0.5117540000000  0.4474140000000 1.0
C      1  0.4541480000000  0.5054210000000  0.6035010000000 1.0
C      1  0.5698130000000  0.5000730000000  0.4231480000000 1.0
C      1  0.4347880000000  0.4664460000000  0.5422960000000 1.0
C      1  0.5845500000000  0.4199460000000  0.4894270000000 1.0
C      1  0.4188340000000  0.5029470000000  0.4633260000000 1.0
C      1  0.4324800000000  0.5005010000000  0.6196110000000 1.0
C      1  0.4252980000000  0.4794660000000  0.4776790000000 1.0
C      1  0.4850290000000  0.4997210000000  0.3999590000000 1.0
C      1  0.4568600000000  0.5810470000000  0.4510020000000 1.0
C      1  0.4495500000000  0.4658370000000  0.4820920000000 1.0
C      1  0.4613810000000  0.4603620000000  0.5472750000000 1.0
C      1  0.4774750000000  0.4889370000000  0.6063610000000 1.0
C      1  0.5280770000000  0.5554810000000  0.4390200000000 1.0
C      1  0.5479240000000  0.5315040000000  0.5887080000000 1.0
C      1  0.5062250000000  0.5012810000000  0.4188170000000 1.0
C      1  0.5034130000000  0.5072660000000  0.4449000000000 1.0
C      1  0.5207800000000  0.5593940000000  0.4121470000000 1.0
C      1  0.4790930000000  0.4131630000000  0.5090780000000 1.0
C      1  0.5529250000000  0.5601140000000  0.4519300000000 1.0
C      1  0.5406900000000  0.5236110000000  0.5078940000000 1.0
C      1  0.4297010000000  0.5833800000000  0.4613480000000 1.0
C      1  0.5518070000000  0.5829410000000  0.4701060000000 1.0
C      1  0.4707860000000  0.4818900000000  0.4927000000000 1.0
C      1  0.4985380000000  0.5834530000000  0.5626500000000 1.0
C      1  0.5701540000000  0.5335840000000  0.5715880000000 1.0
C      1  0.4552440000000  0.4188790000000  0.4947470000000 1.0
C      1  0.5856180000000  0.5234100000000  0.5524450000000 1.0
C      1  0.5112410000000  0.4737130000000  0.5210870000000 1.0
C      1  0.4922120000000  0.4900860000000  0.6293910000000 1.0
C      1  0.5376830000000  0.3929460000000  0.5540560000000 1.0
C      1  0.4718350000000  0.5240830000000  0.5228320000000 1.0
C      1  0.5992520000000  0.5453670000000  0.4577600000000 1.0
C      1  0.5295070000000  0.5526340000000  0.5907160000000 1.0
C      1  0.4306890000000  0.5721040000000  0.4882520000000 1.0
C      1  0.4496850000000  0.5158790000000  0.4288750000000 1.0
C      1  0.4207850000000  0.4535470000000  0.4181210000000 1.0
C      1  0.5065240000000  0.5524690000000  0.4579130000000 1.0
C      1  0.4812360000000  0.4500620000000  0.4069250000000 1.0
C      1  0.5449620000000  0.4620760000000  0.5535900000000 1.0
C      1  0.5149160000000  0.5621760000000  0.5238900000000 1.0
C      1  0.5752670000000  0.5952030000000  0.4792870000000 1.0
C      1  0.4777840000000  0.4153490000000  0.5372850000000 1.0
C      1  0.4823130000000  0.4420010000000  0.5829510000000 1.0
C      1  0.6170850000000  0.3566090000000  0.4550740000000 1.0
C      1  0.5462940000000  0.4572470000000  0.5811960000000 1.0
C      1  0.4125140000000  0.4807150000000  0.5445350000000 1.0
C      1  0.5254180000000  0.5903940000000  0.4782920000000 1.0
C      1  0.4144060000000  0.5494530000000  0.4938100000000 1.0
C      1  0.4005760000000  0.5463140000000  0.5179600000000 1.0
C      1  0.4808860000000  0.4798240000000  0.5578280000000 1.0
C      1  0.4504080000000  0.5406010000000  0.5620800000000 1.0
C      1  0.5526180000000  0.4966910000000  0.4684720000000 1.0
C      1  0.4716700000000  0.5502320000000  0.4060120000000 1.0
C      1  0.4620600000000  0.5597960000000  0.4327270000000 1.0
C      1  0.4975250000000  0.5590590000000  0.3984090000000 1.0
C      1  0.5576590000000  0.5053150000000  0.4952160000000 1.0
C      1  0.5437900000000  0.5061630000000  0.6002530000000 1.0
C      1  0.5338160000000  0.4583800000000  0.5282380000000 1.0
C      1  0.6121630000000  0.5657980000000  0.4695580000000 1.0
C      1  0.5956990000000  0.3989100000000  0.4778230000000 1.0
C      1  0.4132080000000  0.5275000000000  0.4758440000000 1.0
C      1  0.4525510000000  0.5260630000000  0.5843990000000 1.0
C      1  0.5444980000000  0.4379600000000  0.5114770000000 1.0
C      1  0.4630210000000  0.5070320000000  0.5028240000000 1.0
C      1  0.5897620000000  0.5077110000000  0.5313250000000 1.0
C      1  0.5788320000000  0.4932310000000  0.5100120000000 1.0
C      1  0.5724270000000  0.5390550000000  0.4518690000000 1.0
C      1  0.5835030000000  0.4659000000000  0.5057890000000 1.0
C      1  0.4675670000000  0.5708290000000  0.5251900000000 1.0
C      1  0.5036420000000  0.4171000000000  0.4936520000000 1.0
C      1  0.5014390000000  0.5762050000000  0.4728460000000 1.0
C      1  0.5454300000000  0.4795610000000  0.5980940000000 1.0
C      1  0.4170610000000  0.4799440000000  0.4207240000000 1.0
C      1  0.5282650000000  0.4146360000000  0.5082100000000 1.0
C      1  0.4982080000000  0.5179120000000  0.5318590000000 1.0
C      1  0.4981400000000  0.4734440000000  0.4956800000000 1.0
C      1  0.4551450000000  0.4389910000000  0.4749440000000 1.0
C      1  0.6013060000000  0.5884310000000  0.4794030000000 1.0
C      1  0.4396740000000  0.4350830000000  0.4230050000000 1.0
C      1  0.4576580000000  0.5775950000000  0.4993010000000 1.0
C      1  0.5426240000000  0.4061570000000  0.5768060000000 1.0
C      1  0.4590060000000  0.5455420000000  0.5358160000000 1.0
C      1  0.4801230000000  0.4729560000000  0.3926020000000 1.0
C      1  0.5193650000000  0.5344070000000  0.5222420000000 1.0
C      1  0.4633850000000  0.5338820000000  0.4474460000000 1.0
C      1  0.5353050000000  0.4744080000000  0.4647890000000 1.0
C      1  0.6064900000000  0.3775920000000  0.4663500000000 1.0
C      1  0.4676410000000  0.4369890000000  0.4279040000000 1.0
C      1  0.4999630000000  0.4911840000000  0.5404800000000 1.0
C      1  0.5016880000000  0.4344780000000  0.4694150000000 1.0
C      1  0.4902710000000  0.5293360000000  0.4562280000000 1.0
END
