TITL C-247202-1916-166 288.753311585019 125000 -251.657153132717 0 0 44 (C1) n - 1
REM
REM in /home/nfs/bkarasulu/CARBON/AIRSS/Generating-Clusters/LCBOP/Only-C1/SD-CG/FIRE-HFTN
REM
REM
REM
REM
REM
REM ./C.cell (11c1c37f851c82e70ff6c80c92926a4b)
REM AIRSS Version 0.9.1 bugfix July 2018 build 013d7b7c2542+ Fri, 06 Jul 2018 19:26:36 +0100
REM compiler GCC version 9.2.1 20190827 (Red Hat 9.2.1-1)
REM options -cpp -mtune=generic -march=x86-64 -g -O0 -fpre-include=/usr/include/finclude/math-vector-fortran.h
REM seed 1971832086 1900476015 -1822250524 -778192978 -1216776825 1487802087 -737851034 -35137417 -821641057 -471681374 -884772440 -1405781651 1532904260 312635295 -163098848 -664434219 -2028477420 1028892211 235320522 -911970590 2006892795 -2000371614 -1664850466 1637959798 -1477321237 913573537 -267021279 63656374 708615621 581753849 -2114398944 -2013082147 129429609
REM
CELL 1.54180   50.00000   50.00000   50.00000   90.00000   90.00000   90.00000
LATT -1
SFAC C  
C      1  0.4789420000000  0.3708010000000  0.5622460000000 1.0
C      1  0.5469230000000  0.3172780000000  0.4996450000000 1.0
C      1  0.4985950000000  0.5771640000000  0.4971350000000 1.0
C      1  0.4692550000000  0.5981460000000  0.4609540000000 1.0
C      1  0.5664960000000  0.5363080000000  0.4997190000000 1.0
C      1  0.5143010000000  0.3837440000000  0.5311490000000 1.0
C      1  0.5139710000000  0.4978470000000  0.5646250000000 1.0
C      1  0.5156330000000  0.4574370000000  0.4986780000000 1.0
C      1  0.4940720000000  0.5304860000000  0.4418850000000 1.0
C      1  0.5193070000000  0.4820310000000  0.4895520000000 1.0
C      1  0.5585940000000  0.3433270000000  0.6277610000000 1.0
C      1  0.5839430000000  0.5520720000000  0.5109720000000 1.0
C      1  0.4450050000000  0.6673480000000  0.3485210000000 1.0
C      1  0.5010280000000  0.5614330000000  0.5198090000000 1.0
C      1  0.4291270000000  0.6138260000000  0.4308050000000 1.0
C      1  0.5038440000000  0.3824900000000  0.5575310000000 1.0
C      1  0.5136890000000  0.4324190000000  0.5071990000000 1.0
C      1  0.4469480000000  0.6535550000000  0.3705490000000 1.0
C      1  0.5094990000000  0.5211800000000  0.5528880000000 1.0
C      1  0.4899350000000  0.6232740000000  0.4241720000000 1.0
C      1  0.5363730000000  0.3389900000000  0.5094890000000 1.0
C      1  0.5047380000000  0.5426710000000  0.5381360000000 1.0
C      1  0.5474880000000  0.5213340000000  0.4889320000000 1.0
C      1  0.5256560000000  0.3610080000000  0.5195990000000 1.0
C      1  0.4554120000000  0.3594960000000  0.5667540000000 1.0
C      1  0.4322590000000  0.3483670000000  0.5711930000000 1.0
C      1  0.5190720000000  0.4475780000000  0.5802490000000 1.0
C      1  0.5205900000000  0.5883270000000  0.4831040000000 1.0
C      1  0.4741660000000  0.6337550000000  0.4054930000000 1.0
C      1  0.4490210000000  0.6387860000000  0.3941370000000 1.0
C      1  0.5327380000000  0.3766280000000  0.5963720000000 1.0
C      1  0.4927800000000  0.6085930000000  0.4477020000000 1.0
C      1  0.5187970000000  0.3934850000000  0.5790370000000 1.0
C      1  0.5133360000000  0.4078240000000  0.5170320000000 1.0
C      1  0.4257190000000  0.6285360000000  0.4071420000000 1.0
C      1  0.5457760000000  0.3598850000000  0.6122330000000 1.0
C      1  0.5252220000000  0.5073890000000  0.4794460000000 1.0
C      1  0.5195790000000  0.4211880000000  0.5824860000000 1.0
C      1  0.5174250000000  0.6026840000000  0.4603060000000 1.0
C      1  0.5172280000000  0.4732380000000  0.5738960000000 1.0
C      1  0.4007180000000  0.6328590000000  0.3969340000000 1.0
C      1  0.5088590000000  0.5188530000000  0.4599200000000 1.0
C      1  0.4440890000000  0.6029840000000  0.4499360000000 1.0
C      1  0.4738550000000  0.5833740000000  0.4846780000000 1.0
END
