TITL C-247201-3759-177 0.105149046578026 125000 -849.639791850333 0 0 140 (C1) n - 1
REM
REM in /home/nfs/bkarasulu/CARBON/AIRSS/Generating-Clusters/LCBOP/Only-C1/SD-CG/FIRE-HFTN
REM
REM
REM
REM
REM
REM ./C.cell (11c1c37f851c82e70ff6c80c92926a4b)
REM AIRSS Version 0.9.1 bugfix July 2018 build 013d7b7c2542+ Fri, 06 Jul 2018 19:26:36 +0100
REM compiler GCC version 9.2.1 20190827 (Red Hat 9.2.1-1)
REM options -cpp -mtune=generic -march=x86-64 -g -O0 -fpre-include=/usr/include/finclude/math-vector-fortran.h
REM seed 1492091849 -1435812176 1784953011 -584301784 1656565625 1627281727 -1188463428 -204295042 1762105615 -1188009810 -1605837509 1951768385 -342714798 803083933 420097887 1922641805 1984846629 1409063453 1334471094 90088420 -1079595611 -850385723 -1968037433 780890141 342189815 988477170 1539511660 872827579 -1416146981 136734811 858500202 561586040 1790352413
REM
CELL 1.54180   50.00000   50.00000   50.00000   90.00000   90.00000   90.00000
LATT -1
SFAC C  
C      1  0.5081140000000  0.5112080000000  0.3838320000000 1.0
C      1  0.4005210000000  0.5057130000000  0.5096400000000 1.0
C      1  0.4806220000000  0.5410320000000  0.4803820000000 1.0
C      1  0.6015700000000  0.5447570000000  0.4875210000000 1.0
C      1  0.4725060000000  0.5151180000000  0.5998870000000 1.0
C      1  0.5351130000000  0.5572960000000  0.4746570000000 1.0
C      1  0.5920360000000  0.4735540000000  0.4868090000000 1.0
C      1  0.4995240000000  0.5997490000000  0.5110220000000 1.0
C      1  0.4840580000000  0.4383350000000  0.4278660000000 1.0
C      1  0.5964380000000  0.5096840000000  0.4230910000000 1.0
C      1  0.5703140000000  0.5063340000000  0.4122540000000 1.0
C      1  0.4859130000000  0.5480610000000  0.5067570000000 1.0
C      1  0.4189370000000  0.5056880000000  0.4887200000000 1.0
C      1  0.4265320000000  0.3857390000000  0.5460060000000 1.0
C      1  0.5400300000000  0.4466850000000  0.4649100000000 1.0
C      1  0.4732110000000  0.3866470000000  0.4770550000000 1.0
C      1  0.5398080000000  0.4146690000000  0.5038350000000 1.0
C      1  0.5030870000000  0.4713020000000  0.6049770000000 1.0
C      1  0.4515380000000  0.4172410000000  0.5114630000000 1.0
C      1  0.4710660000000  0.4617580000000  0.4271770000000 1.0
C      1  0.4176150000000  0.5253460000000  0.4681350000000 1.0
C      1  0.4873740000000  0.4175490000000  0.4461130000000 1.0
C      1  0.4974950000000  0.5001920000000  0.4322720000000 1.0
C      1  0.4711790000000  0.5370030000000  0.5269890000000 1.0
C      1  0.4042030000000  0.4244760000000  0.4980080000000 1.0
C      1  0.5807080000000  0.4044000000000  0.4722040000000 1.0
C      1  0.4685240000000  0.4802560000000  0.5727120000000 1.0
C      1  0.4426760000000  0.5103180000000  0.5948770000000 1.0
C      1  0.4803830000000  0.5129330000000  0.4776340000000 1.0
C      1  0.5145930000000  0.3995660000000  0.5795300000000 1.0
C      1  0.4813900000000  0.5603870000000  0.4595380000000 1.0
C      1  0.5893970000000  0.4706010000000  0.5611550000000 1.0
C      1  0.5099780000000  0.5314210000000  0.5396110000000 1.0
C      1  0.4904140000000  0.5877270000000  0.4640730000000 1.0
C      1  0.4194620000000  0.5085680000000  0.4431150000000 1.0
C      1  0.5119420000000  0.4460470000000  0.6044470000000 1.0
C      1  0.4491180000000  0.6136970000000  0.4413540000000 1.0
C      1  0.5964770000000  0.5123540000000  0.5282040000000 1.0
C      1  0.5226700000000  0.4298240000000  0.4810140000000 1.0
C      1  0.5634460000000  0.4835540000000  0.4856990000000 1.0
C      1  0.6011030000000  0.5072720000000  0.4512290000000 1.0
C      1  0.4283670000000  0.5221190000000  0.4194130000000 1.0
C      1  0.5439240000000  0.4990640000000  0.4181550000000 1.0
C      1  0.4317810000000  0.5653620000000  0.5028420000000 1.0
C      1  0.5229560000000  0.5681560000000  0.5718030000000 1.0
C      1  0.5741930000000  0.4279500000000  0.5391610000000 1.0
C      1  0.4701620000000  0.4868560000000  0.5426540000000 1.0
C      1  0.4469880000000  0.5685570000000  0.5519240000000 1.0
C      1  0.6177950000000  0.5154970000000  0.4060700000000 1.0
C      1  0.5748630000000  0.4841630000000  0.5819450000000 1.0
C      1  0.5102870000000  0.5950980000000  0.4844190000000 1.0
C      1  0.6379230000000  0.5209010000000  0.3904240000000 1.0
C      1  0.4621170000000  0.5149430000000  0.5377100000000 1.0
C      1  0.4446570000000  0.6374750000000  0.4275220000000 1.0
C      1  0.5667200000000  0.5877200000000  0.4859380000000 1.0
C      1  0.4972620000000  0.5188810000000  0.3609230000000 1.0
C      1  0.4746670000000  0.6074480000000  0.4514570000000 1.0
C      1  0.4315320000000  0.4240100000000  0.4917710000000 1.0
C      1  0.5159960000000  0.5039350000000  0.4094000000000 1.0
C      1  0.4334560000000  0.5361450000000  0.5866920000000 1.0
C      1  0.4770670000000  0.4299520000000  0.5136030000000 1.0
C      1  0.3997760000000  0.3858440000000  0.5484240000000 1.0
C      1  0.5164590000000  0.3790490000000  0.5313900000000 1.0
C      1  0.5864620000000  0.4339690000000  0.5134660000000 1.0
C      1  0.5145730000000  0.3843320000000  0.5575640000000 1.0
C      1  0.5404080000000  0.4894070000000  0.4448810000000 1.0
C      1  0.4627050000000  0.4087640000000  0.4592370000000 1.0
C      1  0.5453530000000  0.4269060000000  0.5332690000000 1.0
C      1  0.5972680000000  0.4822410000000  0.5347590000000 1.0
C      1  0.4858550000000  0.4356150000000  0.5398230000000 1.0
C      1  0.5141420000000  0.5055440000000  0.5477740000000 1.0
C      1  0.6075320000000  0.4825530000000  0.4645420000000 1.0
C      1  0.4615270000000  0.4951800000000  0.4657330000000 1.0
C      1  0.4046360000000  0.5448540000000  0.5385890000000 1.0
C      1  0.5023900000000  0.3876470000000  0.4821700000000 1.0
C      1  0.4855140000000  0.4897320000000  0.5937790000000 1.0
C      1  0.5146370000000  0.4210360000000  0.5954320000000 1.0
C      1  0.5052320000000  0.4993900000000  0.4808660000000 1.0
C      1  0.4504910000000  0.5394570000000  0.4217450000000 1.0
C      1  0.4431650000000  0.4694960000000  0.5057560000000 1.0
C      1  0.5523760000000  0.4711290000000  0.4615110000000 1.0
C      1  0.5128070000000  0.5451730000000  0.5160810000000 1.0
C      1  0.5053170000000  0.4553240000000  0.5432110000000 1.0
C      1  0.5100150000000  0.5456800000000  0.5857150000000 1.0
C      1  0.4396120000000  0.4858220000000  0.5793820000000 1.0
C      1  0.4404950000000  0.6597130000000  0.4145850000000 1.0
C      1  0.4267200000000  0.4746680000000  0.5560990000000 1.0
C      1  0.5856210000000  0.4421500000000  0.5606530000000 1.0
C      1  0.4724830000000  0.4872010000000  0.4389970000000 1.0
C      1  0.4710530000000  0.5958800000000  0.5179110000000 1.0
C      1  0.5101790000000  0.4087740000000  0.4621390000000 1.0
C      1  0.5209350000000  0.3890440000000  0.5055210000000 1.0
C      1  0.4282120000000  0.5953050000000  0.4455880000000 1.0
C      1  0.5328580000000  0.4503570000000  0.5423450000000 1.0
C      1  0.5891320000000  0.5252910000000  0.4698690000000 1.0
C      1  0.4833100000000  0.5973370000000  0.5656190000000 1.0
C      1  0.4287680000000  0.4517220000000  0.4507640000000 1.0
C      1  0.4984650000000  0.4833190000000  0.5327900000000 1.0
C      1  0.4449430000000  0.3977620000000  0.5308070000000 1.0
C      1  0.5427820000000  0.4809270000000  0.5083590000000 1.0
C      1  0.5752100000000  0.5298250000000  0.5869790000000 1.0
C      1  0.4156940000000  0.5183820000000  0.3954990000000 1.0
C      1  0.4964430000000  0.4388300000000  0.4943960000000 1.0
C      1  0.5404410000000  0.4968860000000  0.5544450000000 1.0
C      1  0.4546960000000  0.5527780000000  0.5753550000000 1.0
C      1  0.5671850000000  0.5132350000000  0.4837450000000 1.0
C      1  0.4406520000000  0.4277800000000  0.4647000000000 1.0
C      1  0.5136730000000  0.4864360000000  0.5044120000000 1.0
C      1  0.5888020000000  0.5710550000000  0.4879620000000 1.0
C      1  0.4728050000000  0.5345520000000  0.3171010000000 1.0
C      1  0.5341780000000  0.5428780000000  0.4988170000000 1.0
C      1  0.4178790000000  0.5735150000000  0.4571000000000 1.0
C      1  0.5545130000000  0.5074380000000  0.5799740000000 1.0
C      1  0.5170850000000  0.5996540000000  0.5337100000000 1.0
C      1  0.5101470000000  0.5908030000000  0.5600960000000 1.0
C      1  0.4850590000000  0.5267690000000  0.3387550000000 1.0
C      1  0.4808950000000  0.5411770000000  0.5874550000000 1.0
C      1  0.4270900000000  0.5601970000000  0.5315460000000 1.0
C      1  0.4212650000000  0.5534920000000  0.4771480000000 1.0
C      1  0.5714550000000  0.5281090000000  0.5295410000000 1.0
C      1  0.5468470000000  0.4750160000000  0.5364050000000 1.0
C      1  0.4408750000000  0.4878510000000  0.4849860000000 1.0
C      1  0.5660920000000  0.5494830000000  0.5469800000000 1.0
C      1  0.4641650000000  0.5907180000000  0.5458570000000 1.0
C      1  0.4692600000000  0.5529000000000  0.4351760000000 1.0
C      1  0.5563730000000  0.5276600000000  0.5053320000000 1.0
C      1  0.5156850000000  0.4976740000000  0.4547950000000 1.0
C      1  0.5707760000000  0.4173290000000  0.4938080000000 1.0
C      1  0.6128620000000  0.5298910000000  0.5105960000000 1.0
C      1  0.3938890000000  0.5219620000000  0.5298260000000 1.0
C      1  0.3840340000000  0.4154270000000  0.5130450000000 1.0
C      1  0.5493330000000  0.5636050000000  0.5622990000000 1.0
C      1  0.3811490000000  0.3990410000000  0.5341460000000 1.0
C      1  0.4201310000000  0.4778990000000  0.4444110000000 1.0
C      1  0.4508390000000  0.5869240000000  0.5000210000000 1.0
C      1  0.5969720000000  0.4616480000000  0.5120490000000 1.0
C      1  0.5380220000000  0.5854810000000  0.4803660000000 1.0
C      1  0.5286830000000  0.5232760000000  0.5921620000000 1.0
C      1  0.4447420000000  0.4720920000000  0.5332810000000 1.0
C      1  0.5361020000000  0.5484430000000  0.4489790000000 1.0
END
