TITL C-247202-1916-538 0.00887226868137904 125000 -139.542694306706 0 0 25 (C1) n - 1
REM
REM in /home/nfs/bkarasulu/CARBON/AIRSS/Generating-Clusters/LCBOP/Only-C1/SD-CG/FIRE-HFTN
REM
REM
REM
REM
REM
REM ./C.cell (11c1c37f851c82e70ff6c80c92926a4b)
REM AIRSS Version 0.9.1 bugfix July 2018 build 013d7b7c2542+ Fri, 06 Jul 2018 19:26:36 +0100
REM compiler GCC version 9.2.1 20190827 (Red Hat 9.2.1-1)
REM options -cpp -mtune=generic -march=x86-64 -g -O0 -fpre-include=/usr/include/finclude/math-vector-fortran.h
REM seed 880785822 -1484177046 875253705 505255235 -200646983 1410413797 -1169768756 1084547274 1194826062 1147066262 794099822 -1667538327 -700631037 -818912377 -617634711 -1262866983 917453751 -1521428061 248683460 2045213481 1392382871 646954451 1827242325 -1429444410 1653958566 1073622317 567935099 889143966 -1955522452 -398552679 277344312 1355560040 -1710668353
REM
CELL 1.54180   50.00000   50.00000   50.00000   90.00000   90.00000   90.00000
LATT -1
SFAC C  
C      1  0.4633760000000  0.4762260000000  0.5041540000000 1.0
C      1  0.4694780000000  0.5484350000000  0.5575120000000 1.0
C      1  0.4741580000000  0.5262550000000  0.5421610000000 1.0
C      1  0.5761290000000  0.4568930000000  0.5303470000000 1.0
C      1  0.4972410000000  0.4964860000000  0.4572200000000 1.0
C      1  0.5508100000000  0.4666900000000  0.4904890000000 1.0
C      1  0.5521320000000  0.4608570000000  0.5179250000000 1.0
C      1  0.4875480000000  0.4599820000000  0.5042670000000 1.0
C      1  0.5004810000000  0.4618290000000  0.5303690000000 1.0
C      1  0.4804050000000  0.5562280000000  0.4481590000000 1.0
C      1  0.4548760000000  0.4727190000000  0.5321070000000 1.0
C      1  0.4803230000000  0.4757380000000  0.5470360000000 1.0
C      1  0.4711660000000  0.5495530000000  0.4969090000000 1.0
C      1  0.4654680000000  0.6011970000000  0.5106520000000 1.0
C      1  0.4683600000000  0.5262440000000  0.5142220000000 1.0
C      1  0.4781700000000  0.5116770000000  0.4706410000000 1.0
C      1  0.4682010000000  0.5760200000000  0.5045030000000 1.0
C      1  0.4669920000000  0.5029660000000  0.4959600000000 1.0
C      1  0.5443400000000  0.4708210000000  0.4635370000000 1.0
C      1  0.5788680000000  0.4550420000000  0.4251260000000 1.0
C      1  0.5201570000000  0.4830290000000  0.4563470000000 1.0
C      1  0.5621800000000  0.4626720000000  0.4436330000000 1.0
C      1  0.4841890000000  0.5026770000000  0.5545070000000 1.0
C      1  0.5279920000000  0.4592300000000  0.5321720000000 1.0
C      1  0.4769610000000  0.5405340000000  0.4700430000000 1.0
END
