TITL C-247202-1916-370 1.77809517235192e-07 125000 -276.390273504269 0 0 45 (C1) n - 1
REM
REM in /home/nfs/bkarasulu/CARBON/AIRSS/Generating-Clusters/LCBOP/Only-C1/SD-CG/FIRE-HFTN
REM
REM
REM
REM
REM
REM ./C.cell (11c1c37f851c82e70ff6c80c92926a4b)
REM AIRSS Version 0.9.1 bugfix July 2018 build 013d7b7c2542+ Fri, 06 Jul 2018 19:26:36 +0100
REM compiler GCC version 9.2.1 20190827 (Red Hat 9.2.1-1)
REM options -cpp -mtune=generic -march=x86-64 -g -O0 -fpre-include=/usr/include/finclude/math-vector-fortran.h
REM seed 501881260 -463546303 101726439 199876181 1124341614 -554863058 1484481652 -349941122 1134534056 -1798692269 -1695911375 2128860491 -1602289587 461569066 396800693 33447555 -1223791178 1157814707 -1527309321 21838914 -555284031 -936124405 -1646065215 1281843658 1387380033 -483531750 -717420239 1094031741 1466187119 -1978187017 637551309 -2038150727 -1773337050
REM
CELL 1.54180   50.00000   50.00000   50.00000   90.00000   90.00000   90.00000
LATT -1
SFAC C  
C      1  0.4828060000000  0.5565140000000  0.4345680000000 1.0
C      1  0.4531300000000  0.4887110000000  0.5568140000000 1.0
C      1  0.4928750000000  0.3997410000000  0.5297410000000 1.0
C      1  0.4911450000000  0.5490910000000  0.5028640000000 1.0
C      1  0.4734370000000  0.5404730000000  0.4824820000000 1.0
C      1  0.5613990000000  0.5184810000000  0.4853030000000 1.0
C      1  0.5086170000000  0.5561340000000  0.4232850000000 1.0
C      1  0.4779440000000  0.4628480000000  0.5874880000000 1.0
C      1  0.4520830000000  0.4677330000000  0.4713150000000 1.0
C      1  0.5414780000000  0.4889720000000  0.5191200000000 1.0
C      1  0.5187110000000  0.4863250000000  0.5365740000000 1.0
C      1  0.5148100000000  0.6071580000000  0.4628310000000 1.0
C      1  0.4712720000000  0.5014910000000  0.5419950000000 1.0
C      1  0.4405710000000  0.4467040000000  0.4827160000000 1.0
C      1  0.4974400000000  0.5056690000000  0.5331650000000 1.0
C      1  0.5194540000000  0.4876450000000  0.4463800000000 1.0
C      1  0.4366170000000  0.4279050000000  0.5010790000000 1.0
C      1  0.5494860000000  0.4670970000000  0.5033360000000 1.0
C      1  0.4435100000000  0.4154590000000  0.5251960000000 1.0
C      1  0.5332930000000  0.5122800000000  0.4417120000000 1.0
C      1  0.5043420000000  0.5297030000000  0.5202420000000 1.0
C      1  0.4917150000000  0.4872250000000  0.4505440000000 1.0
C      1  0.4664810000000  0.3993590000000  0.5260270000000 1.0
C      1  0.5492040000000  0.5153220000000  0.5105160000000 1.0
C      1  0.5230490000000  0.4381810000000  0.5446650000000 1.0
C      1  0.4692010000000  0.4893910000000  0.4672190000000 1.0
C      1  0.4332250000000  0.4254940000000  0.5493190000000 1.0
C      1  0.4653800000000  0.5135620000000  0.4809950000000 1.0
C      1  0.5347680000000  0.5644640000000  0.5130860000000 1.0
C      1  0.5074300000000  0.5950300000000  0.4854460000000 1.0
C      1  0.5220970000000  0.6022510000000  0.4375430000000 1.0
C      1  0.5210890000000  0.5812490000000  0.4208260000000 1.0
C      1  0.5460820000000  0.4578460000000  0.4784490000000 1.0
C      1  0.5140120000000  0.4145850000000  0.5362600000000 1.0
C      1  0.5344600000000  0.4656330000000  0.4556130000000 1.0
C      1  0.5560050000000  0.5806720000000  0.5178000000000 1.0
C      1  0.5093500000000  0.5720520000000  0.5010390000000 1.0
C      1  0.4709410000000  0.5547980000000  0.4584420000000 1.0
C      1  0.5543830000000  0.5183400000000  0.4594580000000 1.0
C      1  0.5327690000000  0.5365600000000  0.5194200000000 1.0
C      1  0.5231950000000  0.5322120000000  0.4247760000000 1.0
C      1  0.4370430000000  0.4443390000000  0.5678530000000 1.0
C      1  0.5032400000000  0.4652360000000  0.5787200000000 1.0
C      1  0.5168950000000  0.4639240000000  0.5541240000000 1.0
C      1  0.4535680000000  0.4661440000000  0.5736530000000 1.0
END
