TITL C-247201-3759-105 -1.29164100693803e-07 125000 -871.361578303535 0 0 142 (C1) n - 1
REM
REM in /home/nfs/bkarasulu/CARBON/AIRSS/Generating-Clusters/LCBOP/Only-C1/SD-CG/FIRE-HFTN
REM
REM
REM
REM
REM
REM ./C.cell (11c1c37f851c82e70ff6c80c92926a4b)
REM AIRSS Version 0.9.1 bugfix July 2018 build 013d7b7c2542+ Fri, 06 Jul 2018 19:26:36 +0100
REM compiler GCC version 9.2.1 20190827 (Red Hat 9.2.1-1)
REM options -cpp -mtune=generic -march=x86-64 -g -O0 -fpre-include=/usr/include/finclude/math-vector-fortran.h
REM seed 1687710520 -599799494 1846287635 1184226338 -2081831259 950204622 -490597946 -1020281078 1588689653 -1353328508 -972052015 -1779973169 74848748 -1215074549 888228308 150913930 -123412804 -752047721 -471336819 -1829631103 2082759333 -590723467 2146815786 -828660564 -1548501049 205467896 2071537332 1205161390 -1999974506 688269004 -1115348824 -1771461962 501664334
REM
CELL 1.54180   50.00000   50.00000   50.00000   90.00000   90.00000   90.00000
LATT -1
SFAC C  
C      1  0.5161240000000  0.5232120000000  0.5179790000000 1.0
C      1  0.6083050000000  0.4359270000000  0.5348970000000 1.0
C      1  0.4696980000000  0.5048050000000  0.4971720000000 1.0
C      1  0.4494600000000  0.5453410000000  0.4193430000000 1.0
C      1  0.5696160000000  0.5434750000000  0.4611860000000 1.0
C      1  0.4412370000000  0.4667770000000  0.4862270000000 1.0
C      1  0.4570410000000  0.5881080000000  0.5202440000000 1.0
C      1  0.4002520000000  0.5279770000000  0.4570460000000 1.0
C      1  0.5709410000000  0.4647550000000  0.5394110000000 1.0
C      1  0.5202880000000  0.4948590000000  0.4044280000000 1.0
C      1  0.5222680000000  0.4456250000000  0.5761940000000 1.0
C      1  0.5563640000000  0.4892750000000  0.5370590000000 1.0
C      1  0.5573850000000  0.5709600000000  0.4601100000000 1.0
C      1  0.5103740000000  0.3985140000000  0.5123410000000 1.0
C      1  0.4864580000000  0.4625510000000  0.4772470000000 1.0
C      1  0.5553380000000  0.4430660000000  0.4652790000000 1.0
C      1  0.4382380000000  0.4883760000000  0.4655040000000 1.0
C      1  0.5407600000000  0.4279430000000  0.5609720000000 1.0
C      1  0.5910880000000  0.5705710000000  0.4940250000000 1.0
C      1  0.4404420000000  0.5224600000000  0.4057170000000 1.0
C      1  0.4761210000000  0.5238190000000  0.6003220000000 1.0
C      1  0.4889530000000  0.5110820000000  0.5569720000000 1.0
C      1  0.4527060000000  0.3977690000000  0.4694910000000 1.0
C      1  0.6075510000000  0.4792000000000  0.5084830000000 1.0
C      1  0.4575430000000  0.4699630000000  0.5811940000000 1.0
C      1  0.5242470000000  0.4710990000000  0.6182360000000 1.0
C      1  0.4377550000000  0.5417010000000  0.5194560000000 1.0
C      1  0.5453480000000  0.5354150000000  0.5542590000000 1.0
C      1  0.6022460000000  0.4509640000000  0.4633230000000 1.0
C      1  0.5369400000000  0.5822290000000  0.5383470000000 1.0
C      1  0.5160210000000  0.5240450000000  0.4048690000000 1.0
C      1  0.6054690000000  0.5247530000000  0.4936110000000 1.0
C      1  0.5150410000000  0.4599960000000  0.5280570000000 1.0
C      1  0.4928920000000  0.4389270000000  0.5827780000000 1.0
C      1  0.4847470000000  0.3870530000000  0.4321660000000 1.0
C      1  0.4871310000000  0.5867180000000  0.4434480000000 1.0
C      1  0.3956580000000  0.4673850000000  0.4692520000000 1.0
C      1  0.5324860000000  0.5821710000000  0.4522310000000 1.0
C      1  0.4943040000000  0.6103860000000  0.4585640000000 1.0
C      1  0.4289070000000  0.4885200000000  0.4379670000000 1.0
C      1  0.4712770000000  0.5440870000000  0.4376050000000 1.0
C      1  0.4445510000000  0.4195360000000  0.5166120000000 1.0
C      1  0.5183860000000  0.4686070000000  0.5557500000000 1.0
C      1  0.4856220000000  0.4806690000000  0.4992950000000 1.0
C      1  0.4999770000000  0.4835240000000  0.6110020000000 1.0
C      1  0.4604510000000  0.5047940000000  0.4703350000000 1.0
C      1  0.4910820000000  0.5618790000000  0.5073940000000 1.0
C      1  0.5619700000000  0.4639500000000  0.4067360000000 1.0
C      1  0.5014590000000  0.5534550000000  0.5517560000000 1.0
C      1  0.5104070000000  0.5841600000000  0.5970010000000 1.0
C      1  0.6073840000000  0.5069880000000  0.5151640000000 1.0
C      1  0.4803540000000  0.6334050000000  0.4611990000000 1.0
C      1  0.4883760000000  0.3979690000000  0.5276640000000 1.0
C      1  0.4205090000000  0.5079610000000  0.4193640000000 1.0
C      1  0.5123110000000  0.6010130000000  0.5268730000000 1.0
C      1  0.5710080000000  0.5873310000000  0.4802480000000 1.0
C      1  0.4879760000000  0.4666370000000  0.5227020000000 1.0
C      1  0.5637050000000  0.5290080000000  0.5749970000000 1.0
C      1  0.5291200000000  0.4107200000000  0.4975840000000 1.0
C      1  0.5295910000000  0.5587860000000  0.5515300000000 1.0
C      1  0.5859520000000  0.5750080000000  0.5220680000000 1.0
C      1  0.5197760000000  0.6032090000000  0.4698960000000 1.0
C      1  0.4272840000000  0.5601370000000  0.4304270000000 1.0
C      1  0.4357350000000  0.5555930000000  0.5467510000000 1.0
C      1  0.6100620000000  0.4680290000000  0.4825700000000 1.0
C      1  0.5572040000000  0.5178030000000  0.4587170000000 1.0
C      1  0.5161630000000  0.5599640000000  0.6076490000000 1.0
C      1  0.3985220000000  0.4565510000000  0.4982650000000 1.0
C      1  0.4522430000000  0.4514710000000  0.4224700000000 1.0
C      1  0.5894500000000  0.5222320000000  0.5647450000000 1.0
C      1  0.4573670000000  0.4524400000000  0.5587130000000 1.0
C      1  0.4840940000000  0.4260030000000  0.3972500000000 1.0
C      1  0.5000160000000  0.4717270000000  0.4077730000000 1.0
C      1  0.4577040000000  0.4182060000000  0.4901480000000 1.0
C      1  0.5158640000000  0.5501260000000  0.4144120000000 1.0
C      1  0.5061790000000  0.6039640000000  0.5790200000000 1.0
C      1  0.5542060000000  0.4936190000000  0.4424210000000 1.0
C      1  0.4251150000000  0.4947600000000  0.5568300000000 1.0
C      1  0.4898450000000  0.5575620000000  0.4802160000000 1.0
C      1  0.4759800000000  0.4530580000000  0.4038700000000 1.0
C      1  0.4728100000000  0.3829630000000  0.4561610000000 1.0
C      1  0.5753000000000  0.4450050000000  0.4209310000000 1.0
C      1  0.4625440000000  0.4625620000000  0.5332230000000 1.0
C      1  0.3975650000000  0.4814070000000  0.5151390000000 1.0
C      1  0.4642500000000  0.5250730000000  0.5165210000000 1.0
C      1  0.5471950000000  0.4868540000000  0.4152980000000 1.0
C      1  0.4257540000000  0.4624880000000  0.4280630000000 1.0
C      1  0.5422560000000  0.4814710000000  0.4877760000000 1.0
C      1  0.4412430000000  0.4707560000000  0.5165720000000 1.0
C      1  0.5800800000000  0.4348920000000  0.4494280000000 1.0
C      1  0.4101510000000  0.4222310000000  0.4494040000000 1.0
C      1  0.5612980000000  0.5891440000000  0.5261750000000 1.0
C      1  0.5883640000000  0.4210280000000  0.5465890000000 1.0
C      1  0.4697540000000  0.5664650000000  0.4586710000000 1.0
C      1  0.4947340000000  0.4756450000000  0.4544650000000 1.0
C      1  0.4900460000000  0.5369460000000  0.5282120000000 1.0
C      1  0.5918280000000  0.5452680000000  0.4808270000000 1.0
C      1  0.5230560000000  0.5318700000000  0.6087500000000 1.0
C      1  0.5219270000000  0.5244860000000  0.4906700000000 1.0
C      1  0.4055390000000  0.4504290000000  0.4464130000000 1.0
C      1  0.5055940000000  0.6144640000000  0.5538200000000 1.0
C      1  0.4123490000000  0.5277640000000  0.5115920000000 1.0
C      1  0.4821410000000  0.5006090000000  0.4516690000000 1.0
C      1  0.4163260000000  0.4329280000000  0.5108570000000 1.0
C      1  0.4430610000000  0.5680080000000  0.5017300000000 1.0
C      1  0.4197330000000  0.4818240000000  0.5324590000000 1.0
C      1  0.5498410000000  0.5256950000000  0.5998630000000 1.0
C      1  0.5057450000000  0.5361650000000  0.4706870000000 1.0
C      1  0.3942880000000  0.5035950000000  0.4731810000000 1.0
C      1  0.5282610000000  0.6076300000000  0.4965170000000 1.0
C      1  0.4471260000000  0.4954690000000  0.5745690000000 1.0
C      1  0.5509970000000  0.4713200000000  0.4617140000000 1.0
C      1  0.4452840000000  0.5816190000000  0.5460480000000 1.0
C      1  0.4920190000000  0.5260370000000  0.4472340000000 1.0
C      1  0.5853220000000  0.4054730000000  0.4501620000000 1.0
C      1  0.4816270000000  0.4646150000000  0.5970980000000 1.0
C      1  0.4194620000000  0.5522960000000  0.4578640000000 1.0
C      1  0.4658970000000  0.4123610000000  0.5382960000000 1.0
C      1  0.4677840000000  0.5148290000000  0.5749090000000 1.0
C      1  0.4861310000000  0.5877170000000  0.5179940000000 1.0
C      1  0.5435980000000  0.5094950000000  0.4832560000000 1.0
C      1  0.5611780000000  0.4412220000000  0.6086530000000 1.0
C      1  0.5005010000000  0.5129040000000  0.6103740000000 1.0
C      1  0.5330930000000  0.4592470000000  0.5049670000000 1.0
C      1  0.4876210000000  0.4026050000000  0.4103520000000 1.0
C      1  0.5645920000000  0.4370490000000  0.5494090000000 1.0
C      1  0.5983050000000  0.4619840000000  0.5284700000000 1.0
C      1  0.5409020000000  0.4348610000000  0.4895220000000 1.0
C      1  0.5132590000000  0.4968920000000  0.5569460000000 1.0
C      1  0.3975110000000  0.5213830000000  0.4288420000000 1.0
C      1  0.3963880000000  0.5065770000000  0.5011710000000 1.0
C      1  0.5345400000000  0.5111830000000  0.5402150000000 1.0
C      1  0.6032210000000  0.5157930000000  0.5421940000000 1.0
C      1  0.4619380000000  0.4453880000000  0.4757080000000 1.0
C      1  0.4370420000000  0.4133960000000  0.4505880000000 1.0
C      1  0.4723900000000  0.4281700000000  0.5629840000000 1.0
C      1  0.5556320000000  0.6016460000000  0.5000880000000 1.0
C      1  0.5373540000000  0.4525520000000  0.6016850000000 1.0
C      1  0.4559600000000  0.4361380000000  0.4464580000000 1.0
C      1  0.5079060000000  0.4628640000000  0.4342250000000 1.0
C      1  0.4418820000000  0.5645530000000  0.4735600000000 1.0
C      1  0.5124830000000  0.5729820000000  0.4323520000000 1.0
END
