TITL C-247195-3186-505 -8.55871801963824e-07 125000 -338.389763543083 0 0 56 (C1) n - 1
REM
REM in /home/nfs/bkarasulu/CARBON/AIRSS/Generating-Clusters/LCBOP/Only-C1/SD-CG/FIRE-HFTN
REM
REM
REM
REM
REM
REM ./C.cell (11c1c37f851c82e70ff6c80c92926a4b)
REM AIRSS Version 0.9.1 bugfix July 2018 build 013d7b7c2542+ Fri, 06 Jul 2018 19:26:36 +0100
REM compiler GCC version 9.2.1 20190827 (Red Hat 9.2.1-1)
REM options -cpp -mtune=generic -march=x86-64 -g -O0 -fpre-include=/usr/include/finclude/math-vector-fortran.h
REM seed -1628921273 232381496 101024737 -915610324 -1994898916 62084392 63135806 446621204 -531426710 887345450 -489630759 -1853811137 1459591474 1913454205 1696417154 -1767088293 1090861888 -1209339261 -1991662598 834112397 344328189 903265703 -1748985057 -163808840 552913012 1623197257 701847735 1004743933 1720088787 -1312901224 1431769374 -1675755549 1754133467
REM
CELL 1.54180   50.00000   50.00000   50.00000   90.00000   90.00000   90.00000
LATT -1
SFAC C  
C      1  0.4385490000000  0.4786600000000  0.5207910000000 1.0
C      1  0.5193840000000  0.5521060000000  0.4630030000000 1.0
C      1  0.5728340000000  0.5135060000000  0.5022530000000 1.0
C      1  0.4831680000000  0.4246410000000  0.4649770000000 1.0
C      1  0.4427630000000  0.5053150000000  0.5310820000000 1.0
C      1  0.4793730000000  0.4756390000000  0.4333860000000 1.0
C      1  0.4150630000000  0.4719960000000  0.5069330000000 1.0
C      1  0.4934340000000  0.4273510000000  0.5268340000000 1.0
C      1  0.4656400000000  0.5089530000000  0.5485740000000 1.0
C      1  0.4942890000000  0.4782080000000  0.5770050000000 1.0
C      1  0.5558550000000  0.5065990000000  0.5719500000000 1.0
C      1  0.4752300000000  0.5347300000000  0.4542680000000 1.0
C      1  0.4816550000000  0.5080520000000  0.4929060000000 1.0
C      1  0.4287270000000  0.4661880000000  0.4371260000000 1.0
C      1  0.4991390000000  0.5082700000000  0.5145890000000 1.0
C      1  0.5036480000000  0.5322950000000  0.4500280000000 1.0
C      1  0.4053760000000  0.4665360000000  0.4826960000000 1.0
C      1  0.5477540000000  0.5569770000000  0.5581470000000 1.0
C      1  0.5829420000000  0.4665740000000  0.4963730000000 1.0
C      1  0.4107370000000  0.4645660000000  0.4566780000000 1.0
C      1  0.5010790000000  0.4820960000000  0.4498150000000 1.0
C      1  0.4601000000000  0.4607180000000  0.5182500000000 1.0
C      1  0.5283610000000  0.5537230000000  0.5375630000000 1.0
C      1  0.5939630000000  0.5275970000000  0.5122110000000 1.0
C      1  0.5733670000000  0.4616060000000  0.5225080000000 1.0
C      1  0.5066770000000  0.4664280000000  0.4734020000000 1.0
C      1  0.4267890000000  0.5392800000000  0.4391430000000 1.0
C      1  0.5441150000000  0.5033560000000  0.4448390000000 1.0
C      1  0.5369480000000  0.5464990000000  0.5112420000000 1.0
C      1  0.5764170000000  0.4916130000000  0.4843050000000 1.0
C      1  0.4720010000000  0.4913910000000  0.5697750000000 1.0
C      1  0.4056460000000  0.5362560000000  0.4553600000000 1.0
C      1  0.3964230000000  0.5319230000000  0.4801990000000 1.0
C      1  0.5570870000000  0.5815140000000  0.5655040000000 1.0
C      1  0.5983780000000  0.4477130000000  0.4828850000000 1.0
C      1  0.4898450000000  0.4450310000000  0.4819990000000 1.0
C      1  0.4493990000000  0.5409850000000  0.4984560000000 1.0
C      1  0.5603930000000  0.4663390000000  0.5453800000000 1.0
C      1  0.5253340000000  0.4996320000000  0.5083530000000 1.0
C      1  0.4810100000000  0.4443070000000  0.5092280000000 1.0
C      1  0.4048350000000  0.5278380000000  0.5055400000000 1.0
C      1  0.5657910000000  0.4951600000000  0.4584110000000 1.0
C      1  0.4888400000000  0.5215530000000  0.5374460000000 1.0
C      1  0.5023510000000  0.5450040000000  0.5448240000000 1.0
C      1  0.5159660000000  0.5063990000000  0.4455130000000 1.0
C      1  0.4677820000000  0.5290320000000  0.4810740000000 1.0
C      1  0.4537000000000  0.4703320000000  0.4289500000000 1.0
C      1  0.5461260000000  0.4812660000000  0.5645080000000 1.0
C      1  0.5204530000000  0.4739220000000  0.5734560000000 1.0
C      1  0.5253890000000  0.4765450000000  0.4921230000000 1.0
C      1  0.5297590000000  0.5587380000000  0.4869200000000 1.0
C      1  0.5459590000000  0.5193490000000  0.5087720000000 1.0
C      1  0.5566030000000  0.5331720000000  0.5702590000000 1.0
C      1  0.6126160000000  0.4302480000000  0.4697920000000 1.0
C      1  0.4313330000000  0.5268760000000  0.5153960000000 1.0
C      1  0.4536040000000  0.5393970000000  0.4369990000000 1.0
END
