TITL C-247202-1916-683 0.00983030357355272 125000 -421.729328072217 0 0 69 (C1) n - 1
REM
REM in /home/nfs/bkarasulu/CARBON/AIRSS/Generating-Clusters/LCBOP/Only-C1/SD-CG/FIRE-HFTN
REM
REM
REM
REM
REM
REM ./C.cell (11c1c37f851c82e70ff6c80c92926a4b)
REM AIRSS Version 0.9.1 bugfix July 2018 build 013d7b7c2542+ Fri, 06 Jul 2018 19:26:36 +0100
REM compiler GCC version 9.2.1 20190827 (Red Hat 9.2.1-1)
REM options -cpp -mtune=generic -march=x86-64 -g -O0 -fpre-include=/usr/include/finclude/math-vector-fortran.h
REM seed -1673719601 -136853928 168949106 -154967022 310166196 -1496567381 1813936901 1661545967 -855550641 -639339209 -396853514 1544524765 1861596610 146373256 -1804089782 -2090550873 2123856134 -737377353 1677554790 1884353155 1083612783 1387675038 2004308811 773390316 -1734898355 -1142408718 -754722484 491499791 -2024504487 2113395061 1841422596 -1590913578 125040043
REM
CELL 1.54180   50.00000   50.00000   50.00000   90.00000   90.00000   90.00000
LATT -1
SFAC C  
C      1  0.4237140000000  0.5242990000000  0.4449260000000 1.0
C      1  0.5414840000000  0.5511190000000  0.5786120000000 1.0
C      1  0.4222820000000  0.4982540000000  0.4382860000000 1.0
C      1  0.6057410000000  0.5119690000000  0.5525850000000 1.0
C      1  0.4485860000000  0.4454280000000  0.5125530000000 1.0
C      1  0.5961030000000  0.5159220000000  0.4555420000000 1.0
C      1  0.4764180000000  0.5165670000000  0.4684490000000 1.0
C      1  0.5224470000000  0.5243200000000  0.4648360000000 1.0
C      1  0.3797280000000  0.4213860000000  0.6128800000000 1.0
C      1  0.4970120000000  0.5330970000000  0.4618900000000 1.0
C      1  0.5261750000000  0.4792540000000  0.4277630000000 1.0
C      1  0.4748740000000  0.5200200000000  0.4088550000000 1.0
C      1  0.4734780000000  0.5154630000000  0.5460200000000 1.0
C      1  0.5668330000000  0.5585350000000  0.5882360000000 1.0
C      1  0.5071800000000  0.5756660000000  0.5468050000000 1.0
C      1  0.5057530000000  0.4872250000000  0.4912400000000 1.0
C      1  0.4987510000000  0.4110700000000  0.4981040000000 1.0
C      1  0.4312980000000  0.4616840000000  0.5277380000000 1.0
C      1  0.5063930000000  0.4896840000000  0.5194720000000 1.0
C      1  0.4437420000000  0.5442340000000  0.4432660000000 1.0
C      1  0.5631430000000  0.4369960000000  0.5054520000000 1.0
C      1  0.4367130000000  0.4758260000000  0.4348680000000 1.0
C      1  0.5771040000000  0.5005670000000  0.5095430000000 1.0
C      1  0.4277060000000  0.4886880000000  0.5205380000000 1.0
C      1  0.5459660000000  0.4547880000000  0.4639520000000 1.0
C      1  0.4530810000000  0.5907240000000  0.4575860000000 1.0
C      1  0.4990270000000  0.5624880000000  0.5230160000000 1.0
C      1  0.4857430000000  0.4955300000000  0.4077100000000 1.0
C      1  0.4851230000000  0.4280030000000  0.4802800000000 1.0
C      1  0.5372770000000  0.4796960000000  0.4536540000000 1.0
C      1  0.5262140000000  0.4972760000000  0.4728230000000 1.0
C      1  0.4178820000000  0.4511360000000  0.5498040000000 1.0
C      1  0.4792820000000  0.4910600000000  0.4800990000000 1.0
C      1  0.4495290000000  0.5632110000000  0.4640330000000 1.0
C      1  0.4617820000000  0.5396870000000  0.4216890000000 1.0
C      1  0.4630570000000  0.4690810000000  0.4740390000000 1.0
C      1  0.5610760000000  0.5250040000000  0.5066150000000 1.0
C      1  0.4986960000000  0.4358400000000  0.4553010000000 1.0
C      1  0.5388350000000  0.5286650000000  0.5239950000000 1.0
C      1  0.4789420000000  0.5718090000000  0.5046580000000 1.0
C      1  0.6056680000000  0.5307880000000  0.5714780000000 1.0
C      1  0.4933580000000  0.5144660000000  0.5274020000000 1.0
C      1  0.4416570000000  0.5373190000000  0.5055180000000 1.0
C      1  0.5274400000000  0.4855710000000  0.5385330000000 1.0
C      1  0.4993280000000  0.4742170000000  0.4204400000000 1.0
C      1  0.5394120000000  0.5102270000000  0.5471580000000 1.0
C      1  0.5941920000000  0.4909690000000  0.4657050000000 1.0
C      1  0.4051680000000  0.4412210000000  0.5708200000000 1.0
C      1  0.5917500000000  0.5492520000000  0.5848610000000 1.0
C      1  0.4685250000000  0.6073720000000  0.4724500000000 1.0
C      1  0.5946600000000  0.4999530000000  0.5315340000000 1.0
C      1  0.5389310000000  0.5235820000000  0.5718080000000 1.0
C      1  0.5646930000000  0.4568080000000  0.4856660000000 1.0
C      1  0.4810100000000  0.5985620000000  0.4948750000000 1.0
C      1  0.3672160000000  0.4116300000000  0.6335660000000 1.0
C      1  0.5106650000000  0.5366950000000  0.5208000000000 1.0
C      1  0.5216390000000  0.4084640000000  0.5116810000000 1.0
C      1  0.5461790000000  0.4185800000000  0.5148860000000 1.0
C      1  0.4850070000000  0.4545060000000  0.4362820000000 1.0
C      1  0.4569630000000  0.5566440000000  0.4918950000000 1.0
C      1  0.4308850000000  0.5140770000000  0.5130050000000 1.0
C      1  0.5851370000000  0.5388460000000  0.4646920000000 1.0
C      1  0.5273840000000  0.4344000000000  0.4569540000000 1.0
C      1  0.4594670000000  0.4640750000000  0.4461240000000 1.0
C      1  0.4646900000000  0.4456170000000  0.4897930000000 1.0
C      1  0.3924500000000  0.4313050000000  0.5918470000000 1.0
C      1  0.5796620000000  0.4812620000000  0.4881410000000 1.0
C      1  0.5697670000000  0.5428100000000  0.4865310000000 1.0
C      1  0.5229250000000  0.5695140000000  0.5678380000000 1.0
END
