TITL C-247198-3593-512 502.126997516112 125000 -1031.2930896891 0 0 168 (C1) n - 1
REM
REM in /home/nfs/bkarasulu/CARBON/AIRSS/Generating-Clusters/LCBOP/Only-C1/SD-CG/FIRE-HFTN
REM
REM
REM
REM
REM
REM ./C.cell (11c1c37f851c82e70ff6c80c92926a4b)
REM AIRSS Version 0.9.1 bugfix July 2018 build 013d7b7c2542+ Fri, 06 Jul 2018 19:26:36 +0100
REM compiler GCC version 9.2.1 20190827 (Red Hat 9.2.1-1)
REM options -cpp -mtune=generic -march=x86-64 -g -O0 -fpre-include=/usr/include/finclude/math-vector-fortran.h
REM seed 1463833484 1763995397 434142499 1632236323 1052292675 -499967136 484504631 -542011061 206785324 21596657 1951905575 1620910899 -1242803280 -785060668 1578709661 390424854 612273339 1526675171 703070316 -461920598 -2053841107 -1286046674 -1247280041 -1555830729 1677875945 395251160 1232389357 -1617618891 856319649 -1659366575 -1211020932 634554545 -514342375
REM
CELL 1.54180   50.00000   50.00000   50.00000   90.00000   90.00000   90.00000
LATT -1
SFAC C  
C      1  0.5537780000000  0.5975620000000  0.4790130000000 1.0
C      1  0.5504920000000  0.4241980000000  0.5399420000000 1.0
C      1  0.5286250000000  0.4814190000000  0.5668400000000 1.0
C      1  0.4817560000000  0.4758310000000  0.5598560000000 1.0
C      1  0.4440480000000  0.4444130000000  0.5662640000000 1.0
C      1  0.4647870000000  0.4767170000000  0.6039780000000 1.0
C      1  0.5002960000000  0.4948310000000  0.4122140000000 1.0
C      1  0.4823400000000  0.4492580000000  0.4976760000000 1.0
C      1  0.5095890000000  0.4764150000000  0.4325340000000 1.0
C      1  0.5552160000000  0.6112640000000  0.5392080000000 1.0
C      1  0.4321280000000  0.4038440000000  0.4349360000000 1.0
C      1  0.4534270000000  0.5202630000000  0.4994370000000 1.0
C      1  0.5524990000000  0.5184520000000  0.4763070000000 1.0
C      1  0.5127850000000  0.5205210000000  0.4086020000000 1.0
C      1  0.3735070000000  0.4682790000000  0.4637930000000 1.0
C      1  0.4289790000000  0.5743780000000  0.5074490000000 1.0
C      1  0.5114640000000  0.5604280000000  0.3778630000000 1.0
C      1  0.3789680000000  0.3985230000000  0.5028640000000 1.0
C      1  0.3221780000000  0.4814330000000  0.4548980000000 1.0
C      1  0.5625400000000  0.4504040000000  0.5803750000000 1.0
C      1  0.4006490000000  0.5131390000000  0.5098090000000 1.0
C      1  0.4488390000000  0.5651150000000  0.4372470000000 1.0
C      1  0.4960740000000  0.6221050000000  0.4548390000000 1.0
C      1  0.4647420000000  0.4515350000000  0.4761990000000 1.0
C      1  0.3984190000000  0.5380350000000  0.4956210000000 1.0
C      1  0.4652270000000  0.4587250000000  0.5801710000000 1.0
C      1  0.3990440000000  0.4419330000000  0.4954730000000 1.0
C      1  0.6094650000000  0.5385280000000  0.5009470000000 1.0
C      1  0.4559490000000  0.5604610000000  0.5400460000000 1.0
C      1  0.5266400000000  0.3942120000000  0.5103060000000 1.0
C      1  0.5296030000000  0.4168090000000  0.4247570000000 1.0
C      1  0.5301910000000  0.4850610000000  0.5391410000000 1.0
C      1  0.5514460000000  0.4761770000000  0.5826680000000 1.0
C      1  0.4942380000000  0.4867740000000  0.6065930000000 1.0
C      1  0.6058690000000  0.5197270000000  0.5220960000000 1.0
C      1  0.4619540000000  0.4976620000000  0.5465330000000 1.0
C      1  0.4952380000000  0.5240510000000  0.4855580000000 1.0
C      1  0.5079430000000  0.4068560000000  0.4902950000000 1.0
C      1  0.5741390000000  0.4410120000000  0.4235210000000 1.0
C      1  0.5505480000000  0.4283140000000  0.4785420000000 1.0
C      1  0.5702290000000  0.5055660000000  0.4581240000000 1.0
C      1  0.3960810000000  0.4355200000000  0.5646110000000 1.0
C      1  0.4541510000000  0.5180630000000  0.5702480000000 1.0
C      1  0.5009090000000  0.5189430000000  0.5743380000000 1.0
C      1  0.4936070000000  0.4532420000000  0.5424350000000 1.0
C      1  0.3869230000000  0.4683160000000  0.4900470000000 1.0
C      1  0.5134050000000  0.4284140000000  0.4447310000000 1.0
C      1  0.5930480000000  0.4997920000000  0.5384850000000 1.0
C      1  0.6215730000000  0.5507960000000  0.4317910000000 1.0
C      1  0.4364210000000  0.4863040000000  0.6024720000000 1.0
C      1  0.4469230000000  0.4299680000000  0.4717610000000 1.0
C      1  0.4772060000000  0.5308500000000  0.5819390000000 1.0
C      1  0.5320270000000  0.4798760000000  0.4502330000000 1.0
C      1  0.6187240000000  0.4634650000000  0.4597300000000 1.0
C      1  0.5051310000000  0.4703680000000  0.4969170000000 1.0
C      1  0.4284460000000  0.5586670000000  0.5331400000000 1.0
C      1  0.3711440000000  0.3764160000000  0.4914970000000 1.0
C      1  0.5032300000000  0.6049110000000  0.4042120000000 1.0
C      1  0.4422300000000  0.5354560000000  0.4772900000000 1.0
C      1  0.5788010000000  0.5879900000000  0.4703030000000 1.0
C      1  0.4865440000000  0.4951850000000  0.4845420000000 1.0
C      1  0.4971830000000  0.5995090000000  0.5013870000000 1.0
C      1  0.4461370000000  0.4518380000000  0.5373700000000 1.0
C      1  0.6030460000000  0.4786110000000  0.4782940000000 1.0
C      1  0.5619070000000  0.4016250000000  0.4815120000000 1.0
C      1  0.5585340000000  0.4862360000000  0.4405300000000 1.0
C      1  0.4180720000000  0.4627280000000  0.4578460000000 1.0
C      1  0.5114720000000  0.4026760000000  0.5562100000000 1.0
C      1  0.5159460000000  0.5347490000000  0.3845280000000 1.0
C      1  0.5401950000000  0.5900970000000  0.5815260000000 1.0
C      1  0.4984400000000  0.4506370000000  0.4357260000000 1.0
C      1  0.4723950000000  0.5580940000000  0.5900860000000 1.0
C      1  0.5287930000000  0.5524140000000  0.5320650000000 1.0
C      1  0.5322520000000  0.5461400000000  0.6019390000000 1.0
C      1  0.5893660000000  0.4732050000000  0.5260060000000 1.0
C      1  0.4726520000000  0.3885270000000  0.4618440000000 1.0
C      1  0.4542190000000  0.5382230000000  0.4501850000000 1.0
C      1  0.4052900000000  0.5143190000000  0.5388430000000 1.0
C      1  0.5401090000000  0.5062620000000  0.5242170000000 1.0
C      1  0.5186080000000  0.6301830000000  0.4719630000000 1.0
C      1  0.5702380000000  0.4364180000000  0.5566910000000 1.0
C      1  0.4940280000000  0.3599650000000  0.5846720000000 1.0
C      1  0.3470800000000  0.4750610000000  0.4591870000000 1.0
C      1  0.4919360000000  0.5828880000000  0.5529630000000 1.0
C      1  0.5566430000000  0.5636270000000  0.4318390000000 1.0
C      1  0.4657480000000  0.5877230000000  0.5390910000000 1.0
C      1  0.5217330000000  0.4251640000000  0.4720770000000 1.0
C      1  0.4977910000000  0.3840440000000  0.4740080000000 1.0
C      1  0.4853500000000  0.3393390000000  0.5980460000000 1.0
C      1  0.6025220000000  0.5495240000000  0.4515860000000 1.0
C      1  0.4511710000000  0.4063530000000  0.4560430000000 1.0
C      1  0.6014010000000  0.4803910000000  0.4177440000000 1.0
C      1  0.4610270000000  0.5845310000000  0.4556010000000 1.0
C      1  0.5327020000000  0.4757450000000  0.4818350000000 1.0
C      1  0.4824580000000  0.5336010000000  0.4427080000000 1.0
C      1  0.4516090000000  0.5963450000000  0.5132660000000 1.0
C      1  0.3936960000000  0.4376910000000  0.4262200000000 1.0
C      1  0.5442310000000  0.3799500000000  0.4904190000000 1.0
C      1  0.4167560000000  0.4789120000000  0.5809240000000 1.0
C      1  0.5419570000000  0.6225870000000  0.4878150000000 1.0
C      1  0.5994870000000  0.5867430000000  0.4898170000000 1.0
C      1  0.5663500000000  0.5371340000000  0.5551560000000 1.0
C      1  0.5022220000000  0.5578470000000  0.5383700000000 1.0
C      1  0.5008780000000  0.6182140000000  0.4272300000000 1.0
C      1  0.5722610000000  0.5652060000000  0.5571800000000 1.0
C      1  0.4704840000000  0.6083760000000  0.4949390000000 1.0
C      1  0.5174110000000  0.5011180000000  0.6187010000000 1.0
C      1  0.4155060000000  0.5393070000000  0.5496300000000 1.0
C      1  0.5775520000000  0.5135540000000  0.5664520000000 1.0
C      1  0.4066510000000  0.4903500000000  0.4932810000000 1.0
C      1  0.5024570000000  0.4894530000000  0.5765940000000 1.0
C      1  0.5387630000000  0.5402730000000  0.4675980000000 1.0
C      1  0.5027690000000  0.3809110000000  0.5710070000000 1.0
C      1  0.5473760000000  0.6250220000000  0.5166000000000 1.0
C      1  0.5110960000000  0.5767010000000  0.4912550000000 1.0
C      1  0.5794780000000  0.5672880000000  0.4500320000000 1.0
C      1  0.5589850000000  0.5726120000000  0.4060880000000 1.0
C      1  0.5213460000000  0.5710830000000  0.5913990000000 1.0
C      1  0.6129660000000  0.4360060000000  0.4560800000000 1.0
C      1  0.5090400000000  0.5374670000000  0.4313680000000 1.0
C      1  0.4151190000000  0.4907760000000  0.5527920000000 1.0
C      1  0.6063260000000  0.5305280000000  0.4734470000000 1.0
C      1  0.6100720000000  0.5665970000000  0.5043960000000 1.0
C      1  0.4172760000000  0.4496400000000  0.5760890000000 1.0
C      1  0.5422620000000  0.5017830000000  0.4962100000000 1.0
C      1  0.5163410000000  0.4636400000000  0.5250170000000 1.0
C      1  0.6226670000000  0.4770640000000  0.4346320000000 1.0
C      1  0.5906170000000  0.4500920000000  0.5424260000000 1.0
C      1  0.4679940000000  0.5176890000000  0.5242130000000 1.0
C      1  0.3930190000000  0.4599380000000  0.4437270000000 1.0
C      1  0.4202790000000  0.4387440000000  0.4760580000000 1.0
C      1  0.5384780000000  0.5779280000000  0.4923650000000 1.0
C      1  0.4212480000000  0.5536030000000  0.4875960000000 1.0
C      1  0.4429440000000  0.5588570000000  0.5894430000000 1.0
C      1  0.4740260000000  0.4947470000000  0.4010970000000 1.0
C      1  0.5228360000000  0.3679710000000  0.4728920000000 1.0
C      1  0.4945140000000  0.5538290000000  0.4853470000000 1.0
C      1  0.4711550000000  0.5673460000000  0.4770230000000 1.0
C      1  0.4591970000000  0.4810700000000  0.4753360000000 1.0
C      1  0.5330870000000  0.5498670000000  0.4420120000000 1.0
C      1  0.5440190000000  0.5301610000000  0.5385930000000 1.0
C      1  0.5526080000000  0.4257810000000  0.4143590000000 1.0
C      1  0.5752920000000  0.4699810000000  0.4236110000000 1.0
C      1  0.4707470000000  0.4462430000000  0.5238940000000 1.0
C      1  0.5376850000000  0.4433870000000  0.5235530000000 1.0
C      1  0.5610850000000  0.5029350000000  0.5890900000000 1.0
C      1  0.5002400000000  0.4285320000000  0.5581340000000 1.0
C      1  0.4557910000000  0.5133510000000  0.3938240000000 1.0
C      1  0.4297330000000  0.4847830000000  0.4738750000000 1.0
C      1  0.5944630000000  0.4275860000000  0.4382340000000 1.0
C      1  0.4775970000000  0.5426240000000  0.5337690000000 1.0
C      1  0.4311500000000  0.5364470000000  0.5738030000000 1.0
C      1  0.5327980000000  0.4014110000000  0.5372800000000 1.0
C      1  0.4709190000000  0.6106480000000  0.4652420000000 1.0
C      1  0.5837570000000  0.4677010000000  0.4973900000000 1.0
C      1  0.4461300000000  0.5384890000000  0.3950680000000 1.0
C      1  0.5464730000000  0.5679590000000  0.5164860000000 1.0
C      1  0.5394410000000  0.5179040000000  0.6056990000000 1.0
C      1  0.5062510000000  0.5852540000000  0.3863890000000 1.0
C      1  0.3884440000000  0.4227390000000  0.5131500000000 1.0
C      1  0.4938850000000  0.5754240000000  0.5817010000000 1.0
C      1  0.5582040000000  0.5905180000000  0.5594800000000 1.0
C      1  0.3871780000000  0.4274060000000  0.5407930000000 1.0
C      1  0.5962710000000  0.5046160000000  0.4685750000000 1.0
C      1  0.4105040000000  0.4164030000000  0.4245070000000 1.0
C      1  0.5580270000000  0.4555760000000  0.4862150000000 1.0
C      1  0.4433380000000  0.5611170000000  0.4097840000000 1.0
C      1  0.4383690000000  0.4799480000000  0.5385450000000 1.0
END
