TITL C-247201-3759-690 1.34843682879431e-07 125000 -332.119443545011 0 0 54 (C1) n - 1
REM
REM in /home/nfs/bkarasulu/CARBON/AIRSS/Generating-Clusters/LCBOP/Only-C1/SD-CG/FIRE-HFTN
REM
REM
REM
REM
REM
REM ./C.cell (11c1c37f851c82e70ff6c80c92926a4b)
REM AIRSS Version 0.9.1 bugfix July 2018 build 013d7b7c2542+ Fri, 06 Jul 2018 19:26:36 +0100
REM compiler GCC version 9.2.1 20190827 (Red Hat 9.2.1-1)
REM options -cpp -mtune=generic -march=x86-64 -g -O0 -fpre-include=/usr/include/finclude/math-vector-fortran.h
REM seed 732369831 -1581720614 -1438939237 -902483099 1830598697 1600443088 1069522943 -44597198 -2022877861 -1460183056 -1083056042 953496733 523181028 1979473938 -793572580 334497037 1691851795 -1351660376 1195912450 1655716527 1284625087 -502157161 -1421295865 -937431319 903586493 395722206 -1705951077 1013880015 240266321 1764326477 -90051927 539035015 1067685597
REM
CELL 1.54180   50.00000   50.00000   50.00000   90.00000   90.00000   90.00000
LATT -1
SFAC C  
C      1  0.4920470000000  0.6014130000000  0.5694120000000 1.0
C      1  0.4850350000000  0.4820330000000  0.4710930000000 1.0
C      1  0.5204040000000  0.5685290000000  0.5476510000000 1.0
C      1  0.5372170000000  0.5694200000000  0.4788870000000 1.0
C      1  0.4819630000000  0.5030740000000  0.5142850000000 1.0
C      1  0.5510920000000  0.5561340000000  0.4599750000000 1.0
C      1  0.5056820000000  0.4914810000000  0.5245420000000 1.0
C      1  0.4985700000000  0.5170290000000  0.5646010000000 1.0
C      1  0.4005120000000  0.5281140000000  0.5006460000000 1.0
C      1  0.4661450000000  0.4477830000000  0.5036760000000 1.0
C      1  0.4845610000000  0.4315240000000  0.5178630000000 1.0
C      1  0.4160960000000  0.5235860000000  0.5218160000000 1.0
C      1  0.5289190000000  0.4087380000000  0.4442430000000 1.0
C      1  0.4598240000000  0.4234830000000  0.4445730000000 1.0
C      1  0.3944790000000  0.5196790000000  0.4760980000000 1.0
C      1  0.5326710000000  0.5545280000000  0.5265050000000 1.0
C      1  0.4534890000000  0.4475680000000  0.4558210000000 1.0
C      1  0.5216490000000  0.5600340000000  0.5004370000000 1.0
C      1  0.4958360000000  0.5511970000000  0.4932180000000 1.0
C      1  0.5267960000000  0.4320090000000  0.4557740000000 1.0
C      1  0.5454800000000  0.5088440000000  0.5441460000000 1.0
C      1  0.5249650000000  0.4564960000000  0.4686100000000 1.0
C      1  0.4439450000000  0.4573340000000  0.5182790000000 1.0
C      1  0.5806490000000  0.5319220000000  0.4875100000000 1.0
C      1  0.3994100000000  0.5021340000000  0.4566960000000 1.0
C      1  0.4748160000000  0.5575370000000  0.5576110000000 1.0
C      1  0.5525770000000  0.5335190000000  0.5306090000000 1.0
C      1  0.5582630000000  0.4822880000000  0.5407670000000 1.0
C      1  0.4910310000000  0.5342710000000  0.4481360000000 1.0
C      1  0.4363920000000  0.5066490000000  0.5308820000000 1.0
C      1  0.5114180000000  0.5214270000000  0.4358580000000 1.0
C      1  0.5543410000000  0.5059020000000  0.4561470000000 1.0
C      1  0.4752100000000  0.5296870000000  0.5543320000000 1.0
C      1  0.5250140000000  0.4372490000000  0.5492840000000 1.0
C      1  0.4313590000000  0.4623400000000  0.4470200000000 1.0
C      1  0.4848190000000  0.5320700000000  0.4756330000000 1.0
C      1  0.5752170000000  0.5340330000000  0.5137650000000 1.0
C      1  0.5171750000000  0.5056220000000  0.5471660000000 1.0
C      1  0.5376970000000  0.4609680000000  0.5405580000000 1.0
C      1  0.5222930000000  0.4696290000000  0.5166400000000 1.0
C      1  0.5109380000000  0.4789430000000  0.4585210000000 1.0
C      1  0.4803060000000  0.5059110000000  0.4861510000000 1.0
C      1  0.5640590000000  0.4722900000000  0.4922670000000 1.0
C      1  0.4326500000000  0.4787460000000  0.5295460000000 1.0
C      1  0.5642250000000  0.5316450000000  0.4642020000000 1.0
C      1  0.5752960000000  0.4787390000000  0.5177790000000 1.0
C      1  0.5029900000000  0.4268230000000  0.5370420000000 1.0
C      1  0.4956570000000  0.5766480000000  0.5585900000000 1.0
C      1  0.4692740000000  0.4584510000000  0.4769280000000 1.0
C      1  0.5695980000000  0.4846190000000  0.4675320000000 1.0
C      1  0.5268720000000  0.5008440000000  0.4476530000000 1.0
C      1  0.4633290000000  0.5151280000000  0.5328070000000 1.0
C      1  0.5368850000000  0.4625410000000  0.4933100000000 1.0
C      1  0.4128600000000  0.4813950000000  0.4469070000000 1.0
END
