TITL C-247195-3186-63 -1.06969824387959e-06 125000 -384.669361558316 0 0 65 (C1) n - 1
REM
REM in /home/nfs/bkarasulu/CARBON/AIRSS/Generating-Clusters/LCBOP/Only-C1/SD-CG/FIRE-HFTN
REM
REM
REM
REM
REM
REM ./C.cell (11c1c37f851c82e70ff6c80c92926a4b)
REM AIRSS Version 0.9.1 bugfix July 2018 build 013d7b7c2542+ Fri, 06 Jul 2018 19:26:36 +0100
REM compiler GCC version 9.2.1 20190827 (Red Hat 9.2.1-1)
REM options -cpp -mtune=generic -march=x86-64 -g -O0 -fpre-include=/usr/include/finclude/math-vector-fortran.h
REM seed -854744436 -1503781228 575274411 -1509830569 132971131 1185803348 1926679083 -1465041700 -1406294169 1041971423 1736762839 -938553165 1036532273 620630937 -1110497732 -892138588 1101430121 -1740588516 -1849595921 -685297346 52746294 -1604183257 -1208542599 1914537626 -220572023 -148426083 -2007653876 1321145216 1675254681 -1857399641 1447851638 1850617530 -934326702
REM
CELL 1.54180   50.00000   50.00000   50.00000   90.00000   90.00000   90.00000
LATT -1
SFAC C  
C      1  0.4408070000000  0.5035270000000  0.5012040000000 1.0
C      1  0.4902350000000  0.5141480000000  0.5028310000000 1.0
C      1  0.5454390000000  0.4558740000000  0.5330270000000 1.0
C      1  0.4181990000000  0.5199090000000  0.4966420000000 1.0
C      1  0.5334430000000  0.4407690000000  0.5118240000000 1.0
C      1  0.3998890000000  0.5260930000000  0.5156200000000 1.0
C      1  0.4760230000000  0.4552960000000  0.4460040000000 1.0
C      1  0.5083670000000  0.4811240000000  0.5906660000000 1.0
C      1  0.4790360000000  0.4906320000000  0.5569050000000 1.0
C      1  0.4885520000000  0.4793920000000  0.4372710000000 1.0
C      1  0.5708760000000  0.4676130000000  0.5287190000000 1.0
C      1  0.4530710000000  0.4580150000000  0.4909920000000 1.0
C      1  0.5639550000000  0.5410100000000  0.4382710000000 1.0
C      1  0.5167640000000  0.5720170000000  0.4880710000000 1.0
C      1  0.5394070000000  0.5382830000000  0.4499430000000 1.0
C      1  0.4961490000000  0.4963840000000  0.4815040000000 1.0
C      1  0.5002570000000  0.4690960000000  0.4894610000000 1.0
C      1  0.5830570000000  0.4628810000000  0.5034060000000 1.0
C      1  0.4490390000000  0.5269110000000  0.4515730000000 1.0
C      1  0.4193090000000  0.4716080000000  0.5288540000000 1.0
C      1  0.4774780000000  0.5262750000000  0.4440740000000 1.0
C      1  0.5437540000000  0.4396150000000  0.4390510000000 1.0
C      1  0.5285950000000  0.5588990000000  0.4658710000000 1.0
C      1  0.5781650000000  0.4589320000000  0.4117970000000 1.0
C      1  0.4653450000000  0.5076440000000  0.5419320000000 1.0
C      1  0.4087230000000  0.4904630000000  0.5456470000000 1.0
C      1  0.5121530000000  0.4233230000000  0.5195130000000 1.0
C      1  0.4872260000000  0.4367400000000  0.5247330000000 1.0
C      1  0.4642960000000  0.5125360000000  0.5142350000000 1.0
C      1  0.5351360000000  0.5771970000000  0.5088890000000 1.0
C      1  0.5883000000000  0.4966370000000  0.5645030000000 1.0
C      1  0.4723290000000  0.5668480000000  0.4675710000000 1.0
C      1  0.5257430000000  0.4569120000000  0.4897390000000 1.0
C      1  0.5207270000000  0.5055610000000  0.5888110000000 1.0
C      1  0.5240340000000  0.5149260000000  0.4460490000000 1.0
C      1  0.4578350000000  0.5695950000000  0.5353520000000 1.0
C      1  0.4057220000000  0.5187820000000  0.5425900000000 1.0
C      1  0.5191010000000  0.4293740000000  0.4404800000000 1.0
C      1  0.5542060000000  0.5626540000000  0.5212680000000 1.0
C      1  0.5775320000000  0.4933260000000  0.5396700000000 1.0
C      1  0.4395890000000  0.5570850000000  0.5505330000000 1.0
C      1  0.5782360000000  0.5087480000000  0.4939090000000 1.0
C      1  0.5739000000000  0.4740360000000  0.4570840000000 1.0
C      1  0.5549730000000  0.5357540000000  0.5295290000000 1.0
C      1  0.4746420000000  0.5757950000000  0.5154110000000 1.0
C      1  0.4521280000000  0.4592990000000  0.4618250000000 1.0
C      1  0.4926010000000  0.4327240000000  0.4435540000000 1.0
C      1  0.4209630000000  0.5384240000000  0.5561180000000 1.0
C      1  0.4878760000000  0.5738500000000  0.4904910000000 1.0
C      1  0.4966480000000  0.5041940000000  0.4517130000000 1.0
C      1  0.4335700000000  0.4777500000000  0.4506980000000 1.0
C      1  0.4330610000000  0.5044410000000  0.4472200000000 1.0
C      1  0.5804870000000  0.4824720000000  0.4828600000000 1.0
C      1  0.5102670000000  0.5228030000000  0.5206400000000 1.0
C      1  0.5265380000000  0.4661040000000  0.5511140000000 1.0
C      1  0.4467720000000  0.5522350000000  0.4664800000000 1.0
C      1  0.4788970000000  0.4535960000000  0.5024130000000 1.0
C      1  0.4988880000000  0.4690820000000  0.5644970000000 1.0
C      1  0.5300310000000  0.5266040000000  0.5403370000000 1.0
C      1  0.4863670000000  0.5536390000000  0.4458250000000 1.0
C      1  0.4356250000000  0.4752960000000  0.5057890000000 1.0
C      1  0.5653170000000  0.4575100000000  0.4359580000000 1.0
C      1  0.5269770000000  0.5215410000000  0.5679380000000 1.0
C      1  0.4845520000000  0.4449540000000  0.5521890000000 1.0
C      1  0.5728190000000  0.5152440000000  0.5213140000000 1.0
END
