TITL C-247197-3123-324 0.445522892981452 125000 -463.336350166005 0 0 77 (C1) n - 1
REM
REM in /home/nfs/bkarasulu/CARBON/AIRSS/Generating-Clusters/LCBOP/Only-C1/SD-CG/FIRE-HFTN
REM
REM
REM
REM
REM
REM ./C.cell (11c1c37f851c82e70ff6c80c92926a4b)
REM AIRSS Version 0.9.1 bugfix July 2018 build 013d7b7c2542+ Fri, 06 Jul 2018 19:26:36 +0100
REM compiler GCC version 9.2.1 20190827 (Red Hat 9.2.1-1)
REM options -cpp -mtune=generic -march=x86-64 -g -O0 -fpre-include=/usr/include/finclude/math-vector-fortran.h
REM seed -2127633054 -1282571173 1723346109 -1513133522 1063903984 1364314970 180189413 721782857 -313932186 -339119867 -2079266939 1283331869 1892174321 -1811978843 -1216489201 -79324232 -1885766463 1773112043 -1145789807 1086670425 -331590749 183509705 -243348400 -1971001251 394167167 477604197 -1735108522 -1209348790 -362393612 161161816 -1456833519 993238265 1839282248
REM
CELL 1.54180   50.00000   50.00000   50.00000   90.00000   90.00000   90.00000
LATT -1
SFAC C  
C      1  0.5515180000000  0.4466330000000  0.4550410000000 1.0
C      1  0.4752680000000  0.4799150000000  0.4870520000000 1.0
C      1  0.5430910000000  0.5767380000000  0.5042090000000 1.0
C      1  0.4503740000000  0.5226060000000  0.5478560000000 1.0
C      1  0.4837530000000  0.4642160000000  0.4160390000000 1.0
C      1  0.4280210000000  0.4889610000000  0.4936320000000 1.0
C      1  0.4023500000000  0.5093500000000  0.5499010000000 1.0
C      1  0.5515080000000  0.4609230000000  0.4975070000000 1.0
C      1  0.5306450000000  0.3903870000000  0.4926360000000 1.0
C      1  0.4578170000000  0.4631510000000  0.5285310000000 1.0
C      1  0.5327060000000  0.5494410000000  0.4316660000000 1.0
C      1  0.5846870000000  0.4975130000000  0.5003480000000 1.0
C      1  0.4501810000000  0.5619640000000  0.4783370000000 1.0
C      1  0.5859890000000  0.4959470000000  0.5290060000000 1.0
C      1  0.5083220000000  0.3972370000000  0.5571330000000 1.0
C      1  0.4864870000000  0.4719060000000  0.4626990000000 1.0
C      1  0.5394430000000  0.5175860000000  0.4813330000000 1.0
C      1  0.5064480000000  0.5568210000000  0.4679090000000 1.0
C      1  0.4494590000000  0.5117490000000  0.4382240000000 1.0
C      1  0.5500550000000  0.4937120000000  0.4319300000000 1.0
C      1  0.4846330000000  0.5419660000000  0.5788660000000 1.0
C      1  0.4280920000000  0.4769070000000  0.4670800000000 1.0
C      1  0.4282610000000  0.5051340000000  0.5404580000000 1.0
C      1  0.5089060000000  0.4692500000000  0.4075520000000 1.0
C      1  0.4763370000000  0.5217460000000  0.4423110000000 1.0
C      1  0.4344850000000  0.5378120000000  0.4746670000000 1.0
C      1  0.5768550000000  0.5050940000000  0.5529050000000 1.0
C      1  0.5077130000000  0.4619800000000  0.5825010000000 1.0
C      1  0.5572770000000  0.5152890000000  0.5689240000000 1.0
C      1  0.5314190000000  0.3642030000000  0.4886820000000 1.0
C      1  0.4643200000000  0.5477230000000  0.5550140000000 1.0
C      1  0.5050370000000  0.4223120000000  0.5467230000000 1.0
C      1  0.5321220000000  0.3384120000000  0.4849500000000 1.0
C      1  0.5345410000000  0.4944280000000  0.5261030000000 1.0
C      1  0.4791670000000  0.4633340000000  0.5090550000000 1.0
C      1  0.5123270000000  0.4285120000000  0.5193800000000 1.0
C      1  0.4569500000000  0.5677580000000  0.5065310000000 1.0
C      1  0.5208810000000  0.5140060000000  0.5395100000000 1.0
C      1  0.3780480000000  0.5134540000000  0.5583630000000 1.0
C      1  0.4817050000000  0.5692980000000  0.4318390000000 1.0
C      1  0.5851920000000  0.5241990000000  0.4906620000000 1.0
C      1  0.5233950000000  0.5792650000000  0.5225750000000 1.0
C      1  0.4944010000000  0.5161080000000  0.5319150000000 1.0
C      1  0.4844420000000  0.5603080000000  0.5992780000000 1.0
C      1  0.4938930000000  0.4439210000000  0.5627330000000 1.0
C      1  0.4694520000000  0.4595550000000  0.5549450000000 1.0
C      1  0.5464830000000  0.5233270000000  0.4290980000000 1.0
C      1  0.5332360000000  0.4792670000000  0.4132940000000 1.0
C      1  0.5293310000000  0.5196640000000  0.5661190000000 1.0
C      1  0.4689910000000  0.5075180000000  0.4918170000000 1.0
C      1  0.5302110000000  0.4710370000000  0.5127800000000 1.0
C      1  0.5613190000000  0.4757890000000  0.4539710000000 1.0
C      1  0.5168710000000  0.5099870000000  0.4670000000000 1.0
C      1  0.4738150000000  0.4857280000000  0.5662790000000 1.0
C      1  0.5293830000000  0.4177090000000  0.4979030000000 1.0
C      1  0.4630060000000  0.5713630000000  0.4527280000000 1.0
C      1  0.4983160000000  0.5761030000000  0.5320330000000 1.0
C      1  0.5448460000000  0.4371080000000  0.4822630000000 1.0
C      1  0.4297170000000  0.5299310000000  0.4476720000000 1.0
C      1  0.5515170000000  0.5624020000000  0.4809840000000 1.0
C      1  0.4695530000000  0.4684390000000  0.4401370000000 1.0
C      1  0.4957250000000  0.5780140000000  0.4813160000000 1.0
C      1  0.4873330000000  0.5225880000000  0.5060340000000 1.0
C      1  0.4452010000000  0.4833710000000  0.4438700000000 1.0
C      1  0.5061610000000  0.5599110000000  0.4212540000000 1.0
C      1  0.4414520000000  0.5151250000000  0.4902930000000 1.0
C      1  0.5049430000000  0.5177720000000  0.5823480000000 1.0
C      1  0.4344250000000  0.4819200000000  0.5222130000000 1.0
C      1  0.4715040000000  0.5656890000000  0.5321370000000 1.0
C      1  0.4732040000000  0.5057790000000  0.5472430000000 1.0
C      1  0.5115000000000  0.4836040000000  0.4595830000000 1.0
C      1  0.4977180000000  0.5301750000000  0.4596970000000 1.0
C      1  0.5336290000000  0.5617240000000  0.4586300000000 1.0
C      1  0.5062360000000  0.4557780000000  0.5138960000000 1.0
C      1  0.4960370000000  0.4891270000000  0.5842960000000 1.0
C      1  0.5606190000000  0.5360610000000  0.4851690000000 1.0
C      1  0.5697460000000  0.4792550000000  0.4834300000000 1.0
END
