TITL C-247196-3112-411 172483.619321068 125000 -986.285880522394 0 0 162 (C1) n - 1
REM
REM in /home/nfs/bkarasulu/CARBON/AIRSS/Generating-Clusters/LCBOP/Only-C1/SD-CG/FIRE-HFTN
REM
REM
REM
REM
REM
REM ./C.cell (11c1c37f851c82e70ff6c80c92926a4b)
REM AIRSS Version 0.9.1 bugfix July 2018 build 013d7b7c2542+ Fri, 06 Jul 2018 19:26:36 +0100
REM compiler GCC version 9.2.1 20190827 (Red Hat 9.2.1-1)
REM options -cpp -mtune=generic -march=x86-64 -g -O0 -fpre-include=/usr/include/finclude/math-vector-fortran.h
REM seed -1392740697 -431725593 -214242147 2126494575 49559415 1269725227 -953055041 -1917407597 187722641 514409694 1402832481 -1261950890 -401052429 1346442461 859023031 1539801030 -1038266350 1839026532 -924645002 -1241752693 -637623641 1369462136 -55693268 1819367244 1877701117 2111241363 396997169 -157809647 2026208881 -1161550191 -1393836093 119609188 1703441283
REM
CELL 1.54180   50.00000   50.00000   50.00000   90.00000   90.00000   90.00000
LATT -1
SFAC C  
C      1  0.4873420000000  0.4715540000000  0.3792230000000 1.0
C      1  0.5492080000000  0.4467160000000  0.5014020000000 1.0
C      1  0.4987870000000  0.5863840000000  0.4109250000000 1.0
C      1  0.4397820000000  0.4912680000000  0.5214770000000 1.0
C      1  0.4739790000000  0.5258020000000  0.5151190000000 1.0
C      1  0.4839500000000  0.6053720000000  0.5438350000000 1.0
C      1  0.3995010000000  0.5474190000000  0.4686450000000 1.0
C      1  0.5278750000000  0.4950500000000  0.4767650000000 1.0
C      1  0.5144800000000  0.5773170000000  0.5679800000000 1.0
C      1  0.5465050000000  0.4666610000000  0.6020600000000 1.0
C      1  0.5233140000000  0.4482840000000  0.6047330000000 1.0
C      1  0.5404550000000  0.5572470000000  0.4129190000000 1.0
C      1  0.4409660000000  0.6146890000000  0.4972160000000 1.0
C      1  0.4521320000000  0.5030350000000  0.5781900000000 1.0
C      1  0.5206960000000  0.5303880000000  0.5267790000000 1.0
C      1  0.5462980000000  0.4048990000000  0.4573470000000 1.0
C      1  0.5261010000000  0.4671450000000  0.4314710000000 1.0
C      1  0.5047160000000  0.3870140000000  0.4863920000000 1.0
C      1  0.4576800000000  0.5272960000000  0.5618420000000 1.0
C      1  0.5230560000000  0.5750040000000  0.4792340000000 1.0
C      1  0.5466360000000  0.4861040000000  0.5580200000000 1.0
C      1  0.5167330000000  0.5192960000000  0.4375330000000 1.0
C      1  0.4817010000000  0.4399930000000  0.4614240000000 1.0
C      1  0.4379780000000  0.5010720000000  0.4014430000000 1.0
C      1  0.5048550000000  0.5441750000000  0.6008910000000 1.0
C      1  0.6081410000000  0.5014490000000  0.5326030000000 1.0
C      1  0.5945100000000  0.4530440000000  0.4541570000000 1.0
C      1  0.5144410000000  0.4960890000000  0.5934270000000 1.0
C      1  0.4604740000000  0.6299860000000  0.5074980000000 1.0
C      1  0.5748380000000  0.5620240000000  0.4626350000000 1.0
C      1  0.4588370000000  0.4050240000000  0.3950550000000 1.0
C      1  0.4192060000000  0.5416160000000  0.4152020000000 1.0
C      1  0.5668550000000  0.5494070000000  0.4357870000000 1.0
C      1  0.4266970000000  0.4213960000000  0.5329890000000 1.0
C      1  0.5209940000000  0.5010460000000  0.5657190000000 1.0
C      1  0.4220620000000  0.4928510000000  0.5702570000000 1.0
C      1  0.6036620000000  0.4679080000000  0.6002740000000 1.0
C      1  0.4632240000000  0.4437740000000  0.5046050000000 1.0
C      1  0.4688040000000  0.5098520000000  0.6031690000000 1.0
C      1  0.5377100000000  0.5219590000000  0.4777110000000 1.0
C      1  0.5089090000000  0.6031020000000  0.5586100000000 1.0
C      1  0.4769510000000  0.4192590000000  0.5042050000000 1.0
C      1  0.5430790000000  0.4862160000000  0.4155370000000 1.0
C      1  0.5961380000000  0.4659430000000  0.5016650000000 1.0
C      1  0.4623270000000  0.4808900000000  0.5351540000000 1.0
C      1  0.4957520000000  0.5389710000000  0.3897430000000 1.0
C      1  0.4266150000000  0.5755110000000  0.5216570000000 1.0
C      1  0.4611030000000  0.4129020000000  0.4198060000000 1.0
C      1  0.4606140000000  0.5552950000000  0.4664170000000 1.0
C      1  0.5084990000000  0.5504950000000  0.5730700000000 1.0
C      1  0.4393350000000  0.5299990000000  0.3972330000000 1.0
C      1  0.5078600000000  0.5270870000000  0.5537290000000 1.0
C      1  0.5306860000000  0.5402940000000  0.6127860000000 1.0
C      1  0.4452140000000  0.4970880000000  0.4630680000000 1.0
C      1  0.5343670000000  0.5069140000000  0.5193880000000 1.0
C      1  0.5513800000000  0.5234560000000  0.6001010000000 1.0
C      1  0.4957250000000  0.4648380000000  0.3554820000000 1.0
C      1  0.5501650000000  0.4392140000000  0.5617730000000 1.0
C      1  0.4720820000000  0.5879170000000  0.4143020000000 1.0
C      1  0.5204050000000  0.3861250000000  0.5118550000000 1.0
C      1  0.4196860000000  0.4495440000000  0.5371360000000 1.0
C      1  0.5609060000000  0.4633440000000  0.5753140000000 1.0
C      1  0.4790660000000  0.5243930000000  0.5442650000000 1.0
C      1  0.5009070000000  0.3899500000000  0.5412640000000 1.0
C      1  0.4619810000000  0.4968500000000  0.4149500000000 1.0
C      1  0.4858980000000  0.4851710000000  0.4511610000000 1.0
C      1  0.5122740000000  0.4471950000000  0.5293170000000 1.0
C      1  0.4486930000000  0.5700220000000  0.5401880000000 1.0
C      1  0.5906980000000  0.4630770000000  0.5766220000000 1.0
C      1  0.5412590000000  0.4950930000000  0.6055830000000 1.0
C      1  0.4406870000000  0.5487980000000  0.5580880000000 1.0
C      1  0.4055780000000  0.5134120000000  0.5550930000000 1.0
C      1  0.4519520000000  0.3823930000000  0.4860940000000 1.0
C      1  0.6254650000000  0.5159320000000  0.5157390000000 1.0
C      1  0.4017840000000  0.4792080000000  0.4610840000000 1.0
C      1  0.5322350000000  0.4719720000000  0.4615160000000 1.0
C      1  0.6074250000000  0.4888120000000  0.4806960000000 1.0
C      1  0.4758380000000  0.4669220000000  0.5155300000000 1.0
C      1  0.4560280000000  0.4542130000000  0.5724720000000 1.0
C      1  0.5186060000000  0.4896060000000  0.5032920000000 1.0
C      1  0.5743950000000  0.5372920000000  0.5463180000000 1.0
C      1  0.5539340000000  0.4225050000000  0.5173200000000 1.0
C      1  0.5752110000000  0.4462170000000  0.4346480000000 1.0
C      1  0.4829290000000  0.4799820000000  0.4050960000000 1.0
C      1  0.4994750000000  0.5417060000000  0.5060570000000 1.0
C      1  0.4270290000000  0.3889900000000  0.4939260000000 1.0
C      1  0.5087860000000  0.6162080000000  0.5070350000000 1.0
C      1  0.3905770000000  0.5156830000000  0.5062390000000 1.0
C      1  0.4128690000000  0.5416520000000  0.5543380000000 1.0
C      1  0.4607150000000  0.5560690000000  0.6202800000000 1.0
C      1  0.4777940000000  0.5370530000000  0.6091900000000 1.0
C      1  0.5300910000000  0.5118960000000  0.4135850000000 1.0
C      1  0.5696320000000  0.4776770000000  0.4201390000000 1.0
C      1  0.4168270000000  0.5663300000000  0.4564150000000 1.0
C      1  0.5807830000000  0.5243240000000  0.4312240000000 1.0
C      1  0.4199390000000  0.4701430000000  0.5146460000000 1.0
C      1  0.4337010000000  0.5874520000000  0.4968450000000 1.0
C      1  0.5659640000000  0.4693840000000  0.5099490000000 1.0
C      1  0.6091100000000  0.4725700000000  0.5288580000000 1.0
C      1  0.5582800000000  0.4926540000000  0.5303930000000 1.0
C      1  0.4984200000000  0.4748050000000  0.4278950000000 1.0
C      1  0.4013100000000  0.5227290000000  0.4291080000000 1.0
C      1  0.5076280000000  0.5888250000000  0.4986170000000 1.0
C      1  0.4904180000000  0.4919310000000  0.6067720000000 1.0
C      1  0.6242120000000  0.5093960000000  0.4895140000000 1.0
C      1  0.4774100000000  0.4328420000000  0.5763610000000 1.0
C      1  0.5314940000000  0.4386720000000  0.4242410000000 1.0
C      1  0.4265340000000  0.4604340000000  0.5644020000000 1.0
C      1  0.5316380000000  0.6244970000000  0.5220120000000 1.0
C      1  0.5538920000000  0.4258380000000  0.4370010000000 1.0
C      1  0.4167260000000  0.4847140000000  0.4114850000000 1.0
C      1  0.4067170000000  0.5250650000000  0.4846960000000 1.0
C      1  0.5475480000000  0.3971280000000  0.5057000000000 1.0
C      1  0.4743030000000  0.5798580000000  0.5343600000000 1.0
C      1  0.5303620000000  0.6193020000000  0.5488710000000 1.0
C      1  0.5758150000000  0.5553310000000  0.5213850000000 1.0
C      1  0.4161140000000  0.4059880000000  0.5117570000000 1.0
C      1  0.4494900000000  0.4091230000000  0.5459650000000 1.0
C      1  0.5035850000000  0.4703960000000  0.5159990000000 1.0
C      1  0.5636120000000  0.5259430000000  0.4865090000000 1.0
C      1  0.5959460000000  0.4412300000000  0.4809880000000 1.0
C      1  0.5648960000000  0.5351990000000  0.5751440000000 1.0
C      1  0.5375170000000  0.5985100000000  0.4364300000000 1.0
C      1  0.4244930000000  0.5661980000000  0.4285610000000 1.0
C      1  0.5235880000000  0.4431800000000  0.5539480000000 1.0
C      1  0.4653990000000  0.5064760000000  0.4440100000000 1.0
C      1  0.4461860000000  0.5823940000000  0.4194780000000 1.0
C      1  0.6052490000000  0.4582530000000  0.5527450000000 1.0
C      1  0.4079810000000  0.4703870000000  0.4871360000000 1.0
C      1  0.5747850000000  0.5518820000000  0.4911990000000 1.0
C      1  0.5087810000000  0.4315780000000  0.4690870000000 1.0
C      1  0.5018780000000  0.5365150000000  0.4537460000000 1.0
C      1  0.6005600000000  0.4817960000000  0.4544600000000 1.0
C      1  0.3897390000000  0.5072760000000  0.5320490000000 1.0
C      1  0.5162700000000  0.5442230000000  0.4786560000000 1.0
C      1  0.5375180000000  0.5914980000000  0.4621830000000 1.0
C      1  0.5306840000000  0.4485980000000  0.4780760000000 1.0
C      1  0.5876680000000  0.4140350000000  0.4826780000000 1.0
C      1  0.4715780000000  0.4667020000000  0.4656360000000 1.0
C      1  0.5631660000000  0.3988820000000  0.4802020000000 1.0
C      1  0.5017630000000  0.4252750000000  0.5163520000000 1.0
C      1  0.4678190000000  0.4239960000000  0.4429290000000 1.0
C      1  0.5817160000000  0.5107480000000  0.5370250000000 1.0
C      1  0.4485860000000  0.5142240000000  0.5064290000000 1.0
C      1  0.4739680000000  0.5344130000000  0.4525000000000 1.0
C      1  0.4448730000000  0.5761580000000  0.6252640000000 1.0
C      1  0.4388960000000  0.5718400000000  0.4736000000000 1.0
C      1  0.5247940000000  0.5360600000000  0.3981100000000 1.0
C      1  0.4029020000000  0.4939930000000  0.4352680000000 1.0
C      1  0.4675710000000  0.5387810000000  0.3902280000000 1.0
C      1  0.4668600000000  0.4798560000000  0.5633210000000 1.0
C      1  0.5641140000000  0.4235670000000  0.5434660000000 1.0
C      1  0.4841970000000  0.6238520000000  0.5209220000000 1.0
C      1  0.4044160000000  0.5609330000000  0.5335870000000 1.0
C      1  0.4762930000000  0.4097900000000  0.5568660000000 1.0
C      1  0.4914630000000  0.5702050000000  0.5134090000000 1.0
C      1  0.4337300000000  0.5141710000000  0.4823140000000 1.0
C      1  0.5264120000000  0.5821140000000  0.4165490000000 1.0
C      1  0.4769150000000  0.3939800000000  0.4908700000000 1.0
C      1  0.5177210000000  0.4041890000000  0.4659680000000 1.0
C      1  0.5867180000000  0.4965100000000  0.4339320000000 1.0
C      1  0.4997680000000  0.4379010000000  0.5945890000000 1.0
END
