TITL C-247199-3331-222 -0.00222246180944126 125000 -382.600115833694 0 0 64 (C1) n - 1
REM
REM in /home/nfs/bkarasulu/CARBON/AIRSS/Generating-Clusters/LCBOP/Only-C1/SD-CG/FIRE-HFTN
REM
REM
REM
REM
REM
REM ./C.cell (11c1c37f851c82e70ff6c80c92926a4b)
REM AIRSS Version 0.9.1 bugfix July 2018 build 013d7b7c2542+ Fri, 06 Jul 2018 19:26:36 +0100
REM compiler GCC version 9.2.1 20190827 (Red Hat 9.2.1-1)
REM options -cpp -mtune=generic -march=x86-64 -g -O0 -fpre-include=/usr/include/finclude/math-vector-fortran.h
REM seed 1200755926 -1306786312 660513838 120428069 2104367709 -422245833 -119705309 -1987042777 116580824 -1653020862 1074442832 1075784403 -1396143366 -1155175112 1033891909 -413929239 -1652384212 -2103287130 1538346975 2069035617 1531486520 -2140677682 -2095539949 -273794170 598108229 -738733132 -1070211322 -491709334 633337534 353634539 -1631660717 939536724 -963807980
REM
CELL 1.54180   50.00000   50.00000   50.00000   90.00000   90.00000   90.00000
LATT -1
SFAC C  
C      1  0.4376170000000  0.5216500000000  0.4750520000000 1.0
C      1  0.6004150000000  0.4383180000000  0.4908740000000 1.0
C      1  0.4482300000000  0.5461270000000  0.4869740000000 1.0
C      1  0.5190190000000  0.5581420000000  0.5502740000000 1.0
C      1  0.5721580000000  0.4826280000000  0.4784280000000 1.0
C      1  0.5107010000000  0.3982780000000  0.5308810000000 1.0
C      1  0.5307930000000  0.4407830000000  0.5215090000000 1.0
C      1  0.5424290000000  0.5577800000000  0.5373230000000 1.0
C      1  0.5873280000000  0.4599580000000  0.4845760000000 1.0
C      1  0.5370170000000  0.4875140000000  0.4355320000000 1.0
C      1  0.4395590000000  0.4310240000000  0.5146810000000 1.0
C      1  0.4458800000000  0.4799430000000  0.5023230000000 1.0
C      1  0.5505680000000  0.5175260000000  0.3825720000000 1.0
C      1  0.5491630000000  0.5513540000000  0.4197140000000 1.0
C      1  0.4707750000000  0.4923820000000  0.5717610000000 1.0
C      1  0.4898880000000  0.4964910000000  0.4485760000000 1.0
C      1  0.5161810000000  0.5056850000000  0.4421220000000 1.0
C      1  0.4684690000000  0.4718980000000  0.4859100000000 1.0
C      1  0.4435310000000  0.5138920000000  0.4488080000000 1.0
C      1  0.5327940000000  0.4488630000000  0.4063260000000 1.0
C      1  0.5549100000000  0.5701700000000  0.4924400000000 1.0
C      1  0.4642250000000  0.4031150000000  0.5484890000000 1.0
C      1  0.4478690000000  0.5402540000000  0.5141910000000 1.0
C      1  0.4871950000000  0.4906170000000  0.4766230000000 1.0
C      1  0.4689540000000  0.4445190000000  0.4787370000000 1.0
C      1  0.5084730000000  0.4821170000000  0.5406550000000 1.0
C      1  0.4985030000000  0.4365170000000  0.5557980000000 1.0
C      1  0.4579150000000  0.4694560000000  0.5807450000000 1.0
C      1  0.4568920000000  0.5532740000000  0.5372540000000 1.0
C      1  0.4339090000000  0.4588640000000  0.5172550000000 1.0
C      1  0.4438210000000  0.4503790000000  0.5925550000000 1.0
C      1  0.4426540000000  0.4131900000000  0.5360350000000 1.0
C      1  0.4714880000000  0.5392880000000  0.5571420000000 1.0
C      1  0.5011620000000  0.5093310000000  0.4934910000000 1.0
C      1  0.5519790000000  0.5409080000000  0.3953780000000 1.0
C      1  0.4357350000000  0.5054620000000  0.4979550000000 1.0
C      1  0.4984450000000  0.4934240000000  0.5647790000000 1.0
C      1  0.5080050000000  0.5823110000000  0.4914990000000 1.0
C      1  0.5290250000000  0.4137800000000  0.5178230000000 1.0
C      1  0.4514140000000  0.5798750000000  0.5409480000000 1.0
C      1  0.5439620000000  0.5476240000000  0.4469210000000 1.0
C      1  0.4913950000000  0.4098830000000  0.5483880000000 1.0
C      1  0.5595220000000  0.5606630000000  0.4663860000000 1.0
C      1  0.4670020000000  0.5627270000000  0.4746390000000 1.0
C      1  0.5098230000000  0.4991750000000  0.5181440000000 1.0
C      1  0.4655620000000  0.5041240000000  0.4365100000000 1.0
C      1  0.5139080000000  0.4545490000000  0.5398510000000 1.0
C      1  0.4998800000000  0.5414780000000  0.5619900000000 1.0
C      1  0.5075650000000  0.5342930000000  0.4798580000000 1.0
C      1  0.5725330000000  0.5045530000000  0.4959550000000 1.0
C      1  0.5580970000000  0.5523800000000  0.5145810000000 1.0
C      1  0.5692790000000  0.5271130000000  0.5097210000000 1.0
C      1  0.5383080000000  0.4753710000000  0.4098240000000 1.0
C      1  0.5229740000000  0.5303610000000  0.4554720000000 1.0
C      1  0.4298720000000  0.4318150000000  0.6044020000000 1.0
C      1  0.4539980000000  0.4253810000000  0.4907600000000 1.0
C      1  0.4332000000000  0.5219990000000  0.5823740000000 1.0
C      1  0.4575720000000  0.5178480000000  0.5706670000000 1.0
C      1  0.5452640000000  0.4919960000000  0.3883010000000 1.0
C      1  0.4599660000000  0.5808780000000  0.4554980000000 1.0
C      1  0.5567350000000  0.4828450000000  0.4549920000000 1.0
C      1  0.5338510000000  0.5888520000000  0.4947190000000 1.0
C      1  0.4940380000000  0.5594760000000  0.4829100000000 1.0
C      1  0.5106080000000  0.5175310000000  0.5731310000000 1.0
END
