TITL C-247197-3123-543 1.8739565427115e-08 125000 -608.914162004422 0 0 100 (C1) n - 1
REM
REM in /home/nfs/bkarasulu/CARBON/AIRSS/Generating-Clusters/LCBOP/Only-C1/SD-CG/FIRE-HFTN
REM
REM
REM
REM
REM
REM ./C.cell (11c1c37f851c82e70ff6c80c92926a4b)
REM AIRSS Version 0.9.1 bugfix July 2018 build 013d7b7c2542+ Fri, 06 Jul 2018 19:26:36 +0100
REM compiler GCC version 9.2.1 20190827 (Red Hat 9.2.1-1)
REM options -cpp -mtune=generic -march=x86-64 -g -O0 -fpre-include=/usr/include/finclude/math-vector-fortran.h
REM seed 1365975732 -73047319 -1394195300 -865716638 -997880702 79185447 407595780 510129828 512460429 218084033 1204602016 1082253653 747214112 159112438 866666898 1448593284 -890927028 -1571337671 -419165196 -208336107 -2013063671 1896429582 489606468 -1887277945 677953985 -587777736 -1141873236 1655970188 328979824 967801902 1360624447 1572389540 1088012507
REM
CELL 1.54180   50.00000   50.00000   50.00000   90.00000   90.00000   90.00000
LATT -1
SFAC C  
C      1  0.4455370000000  0.4482390000000  0.5454610000000 1.0
C      1  0.4750260000000  0.4944280000000  0.5816660000000 1.0
C      1  0.5219190000000  0.4488410000000  0.4032930000000 1.0
C      1  0.5586990000000  0.4044660000000  0.4355730000000 1.0
C      1  0.5148970000000  0.4065810000000  0.4959780000000 1.0
C      1  0.5000400000000  0.4990050000000  0.4339990000000 1.0
C      1  0.5908350000000  0.5081630000000  0.4626800000000 1.0
C      1  0.4760590000000  0.5499820000000  0.4887460000000 1.0
C      1  0.4737010000000  0.5724290000000  0.5385590000000 1.0
C      1  0.4514270000000  0.4848420000000  0.4858230000000 1.0
C      1  0.4911400000000  0.4523810000000  0.4886650000000 1.0
C      1  0.4695620000000  0.5030900000000  0.4983650000000 1.0
C      1  0.5899870000000  0.5330230000000  0.5485680000000 1.0
C      1  0.4538030000000  0.5496070000000  0.4707880000000 1.0
C      1  0.6085960000000  0.5438810000000  0.5651380000000 1.0
C      1  0.5421440000000  0.4306500000000  0.5285600000000 1.0
C      1  0.4450570000000  0.5025510000000  0.5417570000000 1.0
C      1  0.5250850000000  0.5902310000000  0.4427420000000 1.0
C      1  0.4481410000000  0.5566430000000  0.5738670000000 1.0
C      1  0.5304310000000  0.5404060000000  0.5129910000000 1.0
C      1  0.4767060000000  0.4510970000000  0.4633350000000 1.0
C      1  0.4881350000000  0.5246140000000  0.4916760000000 1.0
C      1  0.4564780000000  0.4711310000000  0.4614600000000 1.0
C      1  0.5151050000000  0.6124520000000  0.5098810000000 1.0
C      1  0.5634230000000  0.4940450000000  0.5319430000000 1.0
C      1  0.4303300000000  0.5777210000000  0.5010510000000 1.0
C      1  0.4269920000000  0.5777390000000  0.5294120000000 1.0
C      1  0.4926640000000  0.4304540000000  0.5568160000000 1.0
C      1  0.4756000000000  0.4140300000000  0.4299070000000 1.0
C      1  0.5215470000000  0.4778020000000  0.5154780000000 1.0
C      1  0.5215750000000  0.4943690000000  0.5618310000000 1.0
C      1  0.4481910000000  0.5976050000000  0.4891930000000 1.0
C      1  0.5451030000000  0.5085040000000  0.4868330000000 1.0
C      1  0.4787760000000  0.5669560000000  0.5114560000000 1.0
C      1  0.5562030000000  0.4724710000000  0.4632590000000 1.0
C      1  0.4304250000000  0.5510130000000  0.4885400000000 1.0
C      1  0.5020580000000  0.6059470000000  0.4847740000000 1.0
C      1  0.5082870000000  0.5254450000000  0.4295880000000 1.0
C      1  0.5043970000000  0.4747080000000  0.5745490000000 1.0
C      1  0.4317310000000  0.4840250000000  0.4154060000000 1.0
C      1  0.4583700000000  0.4080240000000  0.4870710000000 1.0
C      1  0.5656570000000  0.4651400000000  0.4906090000000 1.0
C      1  0.4872230000000  0.4005380000000  0.4875950000000 1.0
C      1  0.5382280000000  0.4199910000000  0.4828640000000 1.0
C      1  0.5548830000000  0.4869950000000  0.4027450000000 1.0
C      1  0.4629080000000  0.5486100000000  0.4439980000000 1.0
C      1  0.4858190000000  0.4372680000000  0.4396850000000 1.0
C      1  0.5902360000000  0.5154280000000  0.4913300000000 1.0
C      1  0.4920040000000  0.5678920000000  0.5608860000000 1.0
C      1  0.5611040000000  0.5578070000000  0.4849210000000 1.0
C      1  0.4694450000000  0.5057600000000  0.5276950000000 1.0
C      1  0.5179750000000  0.5784600000000  0.5582870000000 1.0
C      1  0.4868780000000  0.5439980000000  0.4318040000000 1.0
C      1  0.4433290000000  0.4774810000000  0.4378020000000 1.0
C      1  0.5688280000000  0.4946030000000  0.5023420000000 1.0
C      1  0.4242030000000  0.5023540000000  0.5202270000000 1.0
C      1  0.5034240000000  0.4063920000000  0.5457380000000 1.0
C      1  0.5416600000000  0.5363510000000  0.4869630000000 1.0
C      1  0.5839940000000  0.5441810000000  0.4998220000000 1.0
C      1  0.4497160000000  0.4898490000000  0.5677160000000 1.0
C      1  0.4340110000000  0.4490660000000  0.5183070000000 1.0
C      1  0.5817190000000  0.5060730000000  0.5495160000000 1.0
C      1  0.5564880000000  0.5046830000000  0.4249590000000 1.0
C      1  0.4929040000000  0.5191610000000  0.5360490000000 1.0
C      1  0.5482500000000  0.5533210000000  0.5314120000000 1.0
C      1  0.5530340000000  0.4394470000000  0.5018120000000 1.0
C      1  0.5217000000000  0.4092440000000  0.5242370000000 1.0
C      1  0.5061880000000  0.4517010000000  0.4263780000000 1.0
C      1  0.4051940000000  0.4654560000000  0.4844410000000 1.0
C      1  0.4366940000000  0.4028200000000  0.4696030000000 1.0
C      1  0.5382870000000  0.5788550000000  0.5383990000000 1.0
C      1  0.5061260000000  0.5284660000000  0.5139110000000 1.0
C      1  0.5240970000000  0.5924920000000  0.4698830000000 1.0
C      1  0.5478470000000  0.4127310000000  0.4577750000000 1.0
C      1  0.4150580000000  0.4185300000000  0.4647640000000 1.0
C      1  0.5362750000000  0.4877300000000  0.5379950000000 1.0
C      1  0.5418900000000  0.4648580000000  0.3946040000000 1.0
C      1  0.4211560000000  0.5274850000000  0.5039750000000 1.0
C      1  0.4269040000000  0.4759050000000  0.5028730000000 1.0
C      1  0.5274700000000  0.4722960000000  0.4643700000000 1.0
C      1  0.5061390000000  0.5179720000000  0.5604690000000 1.0
C      1  0.4859940000000  0.5221100000000  0.5807920000000 1.0
C      1  0.5123220000000  0.4481840000000  0.5674550000000 1.0
C      1  0.4525670000000  0.4308150000000  0.5034180000000 1.0
C      1  0.5121790000000  0.4752140000000  0.4411040000000 1.0
C      1  0.4735430000000  0.6057210000000  0.4826840000000 1.0
C      1  0.4780390000000  0.4426300000000  0.5117050000000 1.0
C      1  0.4032790000000  0.4420810000000  0.4707480000000 1.0
C      1  0.4737470000000  0.4428480000000  0.5403930000000 1.0
C      1  0.5699220000000  0.4940620000000  0.4484240000000 1.0
C      1  0.5368340000000  0.5260700000000  0.4262080000000 1.0
C      1  0.5141200000000  0.4684360000000  0.4897880000000 1.0
C      1  0.4463670000000  0.5704100000000  0.5484070000000 1.0
C      1  0.5765160000000  0.5474570000000  0.5282450000000 1.0
C      1  0.5380220000000  0.5957000000000  0.5150950000000 1.0
C      1  0.5382250000000  0.4431180000000  0.5543890000000 1.0
C      1  0.4390670000000  0.4637000000000  0.5677850000000 1.0
C      1  0.5465500000000  0.5837070000000  0.4883270000000 1.0
C      1  0.4273720000000  0.5515420000000  0.5906650000000 1.0
C      1  0.4762150000000  0.5492140000000  0.5789270000000 1.0
END
