TITL C-247195-3186-282 2.44221376333437 125000 -421.164454609068 0 0 70 (C1) n - 1
REM
REM in /home/nfs/bkarasulu/CARBON/AIRSS/Generating-Clusters/LCBOP/Only-C1/SD-CG/FIRE-HFTN
REM
REM
REM
REM
REM
REM ./C.cell (11c1c37f851c82e70ff6c80c92926a4b)
REM AIRSS Version 0.9.1 bugfix July 2018 build 013d7b7c2542+ Fri, 06 Jul 2018 19:26:36 +0100
REM compiler GCC version 9.2.1 20190827 (Red Hat 9.2.1-1)
REM options -cpp -mtune=generic -march=x86-64 -g -O0 -fpre-include=/usr/include/finclude/math-vector-fortran.h
REM seed -244175796 806291357 -536427895 -983810021 1769859857 -879692073 539638990 1082380428 -818533623 1712365123 1098009009 285549683 391386507 -1271870995 596120097 -436619906 -1253618182 756758348 1786751273 -592236373 1042693047 181363493 92333398 -149153890 953007391 1827862958 394730186 93873661 -31444628 -1018292279 -605204972 -162467522 1570701167
REM
CELL 1.54180   50.00000   50.00000   50.00000   90.00000   90.00000   90.00000
LATT -1
SFAC C  
C      1  0.5158640000000  0.5797170000000  0.4896210000000 1.0
C      1  0.4868050000000  0.5329340000000  0.4341980000000 1.0
C      1  0.5452100000000  0.4823760000000  0.5528960000000 1.0
C      1  0.4925700000000  0.4517770000000  0.4193440000000 1.0
C      1  0.5486990000000  0.4894790000000  0.4387840000000 1.0
C      1  0.4566110000000  0.4607470000000  0.5860640000000 1.0
C      1  0.4393090000000  0.5362860000000  0.4786900000000 1.0
C      1  0.4603650000000  0.5215290000000  0.4314670000000 1.0
C      1  0.5112490000000  0.4624850000000  0.4675640000000 1.0
C      1  0.5658530000000  0.5479340000000  0.4513080000000 1.0
C      1  0.5243880000000  0.4765600000000  0.4881290000000 1.0
C      1  0.5472420000000  0.5367430000000  0.4352900000000 1.0
C      1  0.4819660000000  0.4274690000000  0.4841950000000 1.0
C      1  0.5728640000000  0.4816440000000  0.4517780000000 1.0
C      1  0.3796680000000  0.5571870000000  0.5129130000000 1.0
C      1  0.5251500000000  0.4221670000000  0.4496670000000 1.0
C      1  0.4776190000000  0.4544100000000  0.6023970000000 1.0
C      1  0.5458600000000  0.5107660000000  0.5143020000000 1.0
C      1  0.4321150000000  0.5441700000000  0.5051660000000 1.0
C      1  0.5266750000000  0.4610990000000  0.5963590000000 1.0
C      1  0.4797200000000  0.4866670000000  0.5099180000000 1.0
C      1  0.4051310000000  0.5508890000000  0.5092290000000 1.0
C      1  0.3287050000000  0.5697730000000  0.5202090000000 1.0
C      1  0.4731080000000  0.4793840000000  0.4827100000000 1.0
C      1  0.4968510000000  0.5347190000000  0.4982390000000 1.0
C      1  0.5028520000000  0.4472610000000  0.5911880000000 1.0
C      1  0.5780210000000  0.4551190000000  0.4593560000000 1.0
C      1  0.5881440000000  0.5016320000000  0.4649390000000 1.0
C      1  0.5501680000000  0.4300570000000  0.4939960000000 1.0
C      1  0.5422930000000  0.5820520000000  0.4841380000000 1.0
C      1  0.5726840000000  0.4368320000000  0.4782000000000 1.0
C      1  0.5611350000000  0.4656830000000  0.5340420000000 1.0
C      1  0.5835460000000  0.5196920000000  0.4864500000000 1.0
C      1  0.4842300000000  0.4537360000000  0.4746480000000 1.0
C      1  0.4831250000000  0.4521290000000  0.5461070000000 1.0
C      1  0.5742550000000  0.5460720000000  0.4785900000000 1.0
C      1  0.5616820000000  0.5658270000000  0.5239950000000 1.0
C      1  0.4824530000000  0.4967660000000  0.4619550000000 1.0
C      1  0.5319610000000  0.5125290000000  0.4374780000000 1.0
C      1  0.5145990000000  0.5238670000000  0.4789870000000 1.0
C      1  0.5325470000000  0.5051890000000  0.5398020000000 1.0
C      1  0.5104520000000  0.4341760000000  0.4299710000000 1.0
C      1  0.5818310000000  0.4817510000000  0.5216310000000 1.0
C      1  0.5035230000000  0.4101070000000  0.4908870000000 1.0
C      1  0.2781480000000  0.5822580000000  0.5274470000000 1.0
C      1  0.3032170000000  0.5760670000000  0.5238580000000 1.0
C      1  0.4939960000000  0.4654150000000  0.5239510000000 1.0
C      1  0.5396430000000  0.5670040000000  0.5398180000000 1.0
C      1  0.5282620000000  0.4177200000000  0.4783390000000 1.0
C      1  0.5010340000000  0.3886170000000  0.5074070000000 1.0
C      1  0.5201250000000  0.4616870000000  0.5130150000000 1.0
C      1  0.4749040000000  0.4721470000000  0.4157740000000 1.0
C      1  0.4586750000000  0.4598190000000  0.5588090000000 1.0
C      1  0.4610780000000  0.4954700000000  0.4188890000000 1.0
C      1  0.5054140000000  0.5159340000000  0.5417140000000 1.0
C      1  0.4966500000000  0.5426590000000  0.5500590000000 1.0
C      1  0.3541870000000  0.5634800000000  0.5165610000000 1.0
C      1  0.4681970000000  0.5465260000000  0.5473380000000 1.0
C      1  0.5121550000000  0.5619000000000  0.5353050000000 1.0
C      1  0.5002030000000  0.4380000000000  0.5641140000000 1.0
C      1  0.5038320000000  0.5612890000000  0.5073160000000 1.0
C      1  0.4892460000000  0.5128480000000  0.5167810000000 1.0
C      1  0.5046860000000  0.5163830000000  0.4517380000000 1.0
C      1  0.4491440000000  0.5460070000000  0.5279950000000 1.0
C      1  0.5632350000000  0.5662440000000  0.4956620000000 1.0
C      1  0.5311310000000  0.5039670000000  0.4908850000000 1.0
C      1  0.4428390000000  0.5291750000000  0.4527990000000 1.0
C      1  0.5420910000000  0.4754940000000  0.5797990000000 1.0
C      1  0.5447490000000  0.4474140000000  0.5173830000000 1.0
C      1  0.5740590000000  0.5070870000000  0.5104490000000 1.0
END
