TITL C-247201-3759-552 -1.07223030730299e-06 125000 -619.957135921138 0 0 102 (C1) n - 1
REM
REM in /home/nfs/bkarasulu/CARBON/AIRSS/Generating-Clusters/LCBOP/Only-C1/SD-CG/FIRE-HFTN
REM
REM
REM
REM
REM
REM ./C.cell (11c1c37f851c82e70ff6c80c92926a4b)
REM AIRSS Version 0.9.1 bugfix July 2018 build 013d7b7c2542+ Fri, 06 Jul 2018 19:26:36 +0100
REM compiler GCC version 9.2.1 20190827 (Red Hat 9.2.1-1)
REM options -cpp -mtune=generic -march=x86-64 -g -O0 -fpre-include=/usr/include/finclude/math-vector-fortran.h
REM seed 2084084859 -676653389 -1482096313 -67652663 1441546060 1104056015 -1138469614 1123855809 -2090036344 871132401 992502144 621035868 538017296 -1617326241 1242371741 -1409907699 -938934789 -2019503122 1676213849 1973494852 -1843273502 -1699944442 1175225316 -1832918369 -361428742 -1429115658 1636050894 1136114476 1212970747 1850324357 -311948169 619554561 837676148
REM
CELL 1.54180   50.00000   50.00000   50.00000   90.00000   90.00000   90.00000
LATT -1
SFAC C  
C      1  0.4597450000000  0.5645470000000  0.4379750000000 1.0
C      1  0.4520410000000  0.4884080000000  0.4063170000000 1.0
C      1  0.5247550000000  0.5563690000000  0.5681440000000 1.0
C      1  0.4688920000000  0.4882680000000  0.4568480000000 1.0
C      1  0.5995570000000  0.5188720000000  0.4748730000000 1.0
C      1  0.4550360000000  0.5639810000000  0.5430820000000 1.0
C      1  0.5485670000000  0.5211620000000  0.4793720000000 1.0
C      1  0.5437170000000  0.4362340000000  0.5464820000000 1.0
C      1  0.4546190000000  0.4688360000000  0.5971590000000 1.0
C      1  0.5384590000000  0.5055610000000  0.4986240000000 1.0
C      1  0.4127230000000  0.4980100000000  0.4926420000000 1.0
C      1  0.5571800000000  0.4457150000000  0.5195390000000 1.0
C      1  0.4352510000000  0.5262980000000  0.4272990000000 1.0
C      1  0.4922190000000  0.4005680000000  0.4964800000000 1.0
C      1  0.4448420000000  0.4664460000000  0.5392750000000 1.0
C      1  0.4599350000000  0.5703140000000  0.5153470000000 1.0
C      1  0.5269070000000  0.4432810000000  0.4741580000000 1.0
C      1  0.5926180000000  0.5436620000000  0.4870870000000 1.0
C      1  0.5466930000000  0.5621690000000  0.5509450000000 1.0
C      1  0.4983970000000  0.5162600000000  0.4046930000000 1.0
C      1  0.4541900000000  0.5336450000000  0.4050290000000 1.0
C      1  0.5785010000000  0.4365700000000  0.5004570000000 1.0
C      1  0.5129440000000  0.4598930000000  0.4301580000000 1.0
C      1  0.4344600000000  0.5362570000000  0.5791610000000 1.0
C      1  0.4402360000000  0.4853730000000  0.4532210000000 1.0
C      1  0.4256990000000  0.4776970000000  0.4773570000000 1.0
C      1  0.5576440000000  0.4778230000000  0.4431150000000 1.0
C      1  0.4575620000000  0.4141140000000  0.5509810000000 1.0
C      1  0.4329410000000  0.5125030000000  0.5920700000000 1.0
C      1  0.4094270000000  0.5009080000000  0.5476880000000 1.0
C      1  0.5838220000000  0.4916210000000  0.5124200000000 1.0
C      1  0.5324020000000  0.4419820000000  0.5015380000000 1.0
C      1  0.5833680000000  0.5233120000000  0.5520560000000 1.0
C      1  0.5147980000000  0.4411240000000  0.5478060000000 1.0
C      1  0.4543900000000  0.5305130000000  0.4730700000000 1.0
C      1  0.4685750000000  0.3965220000000  0.4535410000000 1.0
C      1  0.4791540000000  0.5741260000000  0.5569990000000 1.0
C      1  0.5778430000000  0.5625520000000  0.4991910000000 1.0
C      1  0.4920340000000  0.4473770000000  0.4152330000000 1.0
C      1  0.5221540000000  0.5541570000000  0.4226750000000 1.0
C      1  0.4266570000000  0.4803770000000  0.5569220000000 1.0
C      1  0.4594510000000  0.4243910000000  0.5239350000000 1.0
C      1  0.4677050000000  0.5198790000000  0.5218780000000 1.0
C      1  0.4861840000000  0.4229420000000  0.5123500000000 1.0
C      1  0.5413140000000  0.5804160000000  0.5292860000000 1.0
C      1  0.4960950000000  0.5023040000000  0.5914440000000 1.0
C      1  0.4975380000000  0.5185910000000  0.4856900000000 1.0
C      1  0.5352740000000  0.5916130000000  0.4567470000000 1.0
C      1  0.6187460000000  0.5181760000000  0.4546190000000 1.0
C      1  0.4715800000000  0.5559990000000  0.4131140000000 1.0
C      1  0.4406430000000  0.4330110000000  0.4673640000000 1.0
C      1  0.4785960000000  0.4829790000000  0.6021520000000 1.0
C      1  0.4817200000000  0.5657580000000  0.4997640000000 1.0
C      1  0.5763400000000  0.4738410000000  0.4654480000000 1.0
C      1  0.5179950000000  0.5965560000000  0.5327970000000 1.0
C      1  0.4341740000000  0.5443940000000  0.5516080000000 1.0
C      1  0.5079220000000  0.4447870000000  0.5183580000000 1.0
C      1  0.4991310000000  0.5463530000000  0.4925930000000 1.0
C      1  0.4571920000000  0.4215400000000  0.4468480000000 1.0
C      1  0.4826330000000  0.5143980000000  0.5438230000000 1.0
C      1  0.5553150000000  0.5790360000000  0.5042630000000 1.0
C      1  0.5327710000000  0.4806240000000  0.4269610000000 1.0
C      1  0.5496750000000  0.5288970000000  0.4540010000000 1.0
C      1  0.4900740000000  0.4462920000000  0.5612350000000 1.0
C      1  0.5008560000000  0.5037350000000  0.5630720000000 1.0
C      1  0.5443720000000  0.5919860000000  0.4817650000000 1.0
C      1  0.5361340000000  0.5300550000000  0.4298440000000 1.0
C      1  0.5699030000000  0.5027450000000  0.5662330000000 1.0
C      1  0.5869210000000  0.4943960000000  0.4835230000000 1.0
C      1  0.4767280000000  0.5132290000000  0.4673910000000 1.0
C      1  0.5232860000000  0.5064680000000  0.4179660000000 1.0
C      1  0.4707000000000  0.5091660000000  0.3987640000000 1.0
C      1  0.5250690000000  0.4922590000000  0.5542390000000 1.0
C      1  0.5115680000000  0.4981630000000  0.5013320000000 1.0
C      1  0.4932020000000  0.5958070000000  0.5439290000000 1.0
C      1  0.4995150000000  0.4732240000000  0.5101710000000 1.0
C      1  0.5076430000000  0.4552170000000  0.4576780000000 1.0
C      1  0.4175310000000  0.5253340000000  0.5351920000000 1.0
C      1  0.4722210000000  0.4663240000000  0.5491320000000 1.0
C      1  0.4979780000000  0.5588830000000  0.5718050000000 1.0
C      1  0.5712470000000  0.5486190000000  0.5532290000000 1.0
C      1  0.4416170000000  0.4472350000000  0.5166960000000 1.0
C      1  0.4776700000000  0.4666370000000  0.4937670000000 1.0
C      1  0.5954000000000  0.5124240000000  0.5287180000000 1.0
C      1  0.6358990000000  0.5168270000000  0.4350470000000 1.0
C      1  0.4562600000000  0.4404920000000  0.5938270000000 1.0
C      1  0.4487430000000  0.5268690000000  0.5008600000000 1.0
C      1  0.4831890000000  0.4663060000000  0.4664730000000 1.0
C      1  0.5100890000000  0.5182690000000  0.6087800000000 1.0
C      1  0.4705250000000  0.4278490000000  0.5726320000000 1.0
C      1  0.4349020000000  0.4850040000000  0.5843780000000 1.0
C      1  0.5819640000000  0.4475980000000  0.4755970000000 1.0
C      1  0.4843200000000  0.3888130000000  0.4738120000000 1.0
C      1  0.4695310000000  0.4349670000000  0.4247240000000 1.0
C      1  0.4223190000000  0.5204450000000  0.5075440000000 1.0
C      1  0.4436430000000  0.5434380000000  0.4502280000000 1.0
C      1  0.4332450000000  0.4515800000000  0.4883680000000 1.0
C      1  0.5644700000000  0.4748520000000  0.5268730000000 1.0
C      1  0.4339450000000  0.4969460000000  0.4281330000000 1.0
C      1  0.5278450000000  0.5785090000000  0.4347780000000 1.0
C      1  0.4982360000000  0.5463670000000  0.4095270000000 1.0
C      1  0.5522910000000  0.4867800000000  0.5506640000000 1.0
END
