TITL C-247199-3331-522 -1.21582500089523e-06 125000 -779.546371197494 0 0 129 (C1) n - 1
REM
REM in /home/nfs/bkarasulu/CARBON/AIRSS/Generating-Clusters/LCBOP/Only-C1/SD-CG/FIRE-HFTN
REM
REM
REM
REM
REM
REM ./C.cell (11c1c37f851c82e70ff6c80c92926a4b)
REM AIRSS Version 0.9.1 bugfix July 2018 build 013d7b7c2542+ Fri, 06 Jul 2018 19:26:36 +0100
REM compiler GCC version 9.2.1 20190827 (Red Hat 9.2.1-1)
REM options -cpp -mtune=generic -march=x86-64 -g -O0 -fpre-include=/usr/include/finclude/math-vector-fortran.h
REM seed 110243948 1060017561 -283427532 -155741158 -1489342652 -167916004 2075592626 1477496786 -211409968 1182003138 -1926047270 1755691233 1082969187 -1095597743 -433727254 1550995584 164222029 343411139 -1991643513 -23963797 257077811 490297480 202230271 548162686 -1516787146 261575039 -79081037 1167109100 319190616 -1386088020 900198099 -1561822909 -1018151267
REM
CELL 1.54180   50.00000   50.00000   50.00000   90.00000   90.00000   90.00000
LATT -1
SFAC C  
C      1  0.4334700000000  0.5456450000000  0.4390770000000 1.0
C      1  0.5944440000000  0.4868050000000  0.5534250000000 1.0
C      1  0.5931540000000  0.4746730000000  0.4495780000000 1.0
C      1  0.5417910000000  0.5198480000000  0.5308620000000 1.0
C      1  0.5225020000000  0.5228840000000  0.5536110000000 1.0
C      1  0.4261640000000  0.4587890000000  0.5234650000000 1.0
C      1  0.4679190000000  0.5583060000000  0.4897420000000 1.0
C      1  0.4798330000000  0.5155790000000  0.4709170000000 1.0
C      1  0.5542730000000  0.5418100000000  0.5186410000000 1.0
C      1  0.6194120000000  0.4992680000000  0.5174140000000 1.0
C      1  0.4411710000000  0.4905920000000  0.4903050000000 1.0
C      1  0.5063890000000  0.4651960000000  0.4184440000000 1.0
C      1  0.4449950000000  0.4138190000000  0.4719900000000 1.0
C      1  0.5788560000000  0.4995530000000  0.4470620000000 1.0
C      1  0.5600480000000  0.5721600000000  0.4757070000000 1.0
C      1  0.5217020000000  0.4291130000000  0.5530300000000 1.0
C      1  0.4900890000000  0.4773130000000  0.3961320000000 1.0
C      1  0.4756560000000  0.4748750000000  0.5280780000000 1.0
C      1  0.5420550000000  0.5362300000000  0.5736240000000 1.0
C      1  0.4917080000000  0.4670780000000  0.5964020000000 1.0
C      1  0.5725210000000  0.5559850000000  0.5354360000000 1.0
C      1  0.5528590000000  0.5792630000000  0.4247010000000 1.0
C      1  0.5364580000000  0.4126950000000  0.5004600000000 1.0
C      1  0.5622460000000  0.4231130000000  0.4912240000000 1.0
C      1  0.5993280000000  0.5301210000000  0.4871480000000 1.0
C      1  0.5185940000000  0.5866570000000  0.4565080000000 1.0
C      1  0.4317800000000  0.5196180000000  0.4513400000000 1.0
C      1  0.4573630000000  0.4567740000000  0.4247040000000 1.0
C      1  0.4827540000000  0.5002790000000  0.5170760000000 1.0
C      1  0.4245850000000  0.5771230000000  0.4743440000000 1.0
C      1  0.3946920000000  0.4202620000000  0.4737070000000 1.0
C      1  0.4704890000000  0.4777530000000  0.6111920000000 1.0
C      1  0.4833000000000  0.5545700000000  0.4162850000000 1.0
C      1  0.4776080000000  0.4070500000000  0.5544480000000 1.0
C      1  0.3945610000000  0.5423580000000  0.5157210000000 1.0
C      1  0.4945290000000  0.5431780000000  0.4760120000000 1.0
C      1  0.3795740000000  0.4657870000000  0.4654390000000 1.0
C      1  0.4808900000000  0.5271470000000  0.5256390000000 1.0
C      1  0.4755110000000  0.4529540000000  0.4800860000000 1.0
C      1  0.4148620000000  0.5638010000000  0.4522700000000 1.0
C      1  0.4024530000000  0.4725180000000  0.4495730000000 1.0
C      1  0.4994630000000  0.5139530000000  0.4276630000000 1.0
C      1  0.5005600000000  0.4743830000000  0.4458330000000 1.0
C      1  0.4766670000000  0.3834860000000  0.5418480000000 1.0
C      1  0.4803710000000  0.5384830000000  0.5707560000000 1.0
C      1  0.4624860000000  0.5471750000000  0.5150290000000 1.0
C      1  0.5324270000000  0.6296560000000  0.5091190000000 1.0
C      1  0.5158180000000  0.4314850000000  0.4500900000000 1.0
C      1  0.5401730000000  0.4677310000000  0.5907660000000 1.0
C      1  0.5255520000000  0.5317270000000  0.4574580000000 1.0
C      1  0.4181540000000  0.5340490000000  0.5273250000000 1.0
C      1  0.5280710000000  0.4467760000000  0.4258160000000 1.0
C      1  0.4994860000000  0.5399540000000  0.5459640000000 1.0
C      1  0.5478410000000  0.5833470000000  0.4524060000000 1.0
C      1  0.4627060000000  0.5820510000000  0.4490290000000 1.0
C      1  0.5464540000000  0.5644150000000  0.5746000000000 1.0
C      1  0.5283860000000  0.4270400000000  0.5242960000000 1.0
C      1  0.5311540000000  0.5845080000000  0.5325490000000 1.0
C      1  0.6030200000000  0.4776320000000  0.5270670000000 1.0
C      1  0.4446270000000  0.4162210000000  0.5003410000000 1.0
C      1  0.4946250000000  0.4999590000000  0.4917200000000 1.0
C      1  0.3713090000000  0.5477860000000  0.5052780000000 1.0
C      1  0.4633470000000  0.5039840000000  0.6030050000000 1.0
C      1  0.5437450000000  0.5795540000000  0.5970380000000 1.0
C      1  0.5922630000000  0.4517870000000  0.4638630000000 1.0
C      1  0.4532200000000  0.5777850000000  0.4756060000000 1.0
C      1  0.5146310000000  0.3984410000000  0.4854140000000 1.0
C      1  0.4872580000000  0.5203240000000  0.5944080000000 1.0
C      1  0.4419940000000  0.5491430000000  0.5345840000000 1.0
C      1  0.5329310000000  0.4735940000000  0.5415370000000 1.0
C      1  0.5165720000000  0.4703210000000  0.6068930000000 1.0
C      1  0.4923450000000  0.4756140000000  0.5690480000000 1.0
C      1  0.5509360000000  0.4934960000000  0.5289610000000 1.0
C      1  0.4374570000000  0.5049740000000  0.5905030000000 1.0
C      1  0.5929310000000  0.5350740000000  0.5397640000000 1.0
C      1  0.4341910000000  0.4337140000000  0.5180270000000 1.0
C      1  0.5061270000000  0.5719730000000  0.4254540000000 1.0
C      1  0.5494730000000  0.4662710000000  0.4277580000000 1.0
C      1  0.5486380000000  0.4956770000000  0.5921000000000 1.0
C      1  0.5037780000000  0.4539070000000  0.4677030000000 1.0
C      1  0.4487010000000  0.5146000000000  0.4748460000000 1.0
C      1  0.5627710000000  0.5161560000000  0.5788680000000 1.0
C      1  0.4247480000000  0.5068850000000  0.5370900000000 1.0
C      1  0.4821830000000  0.4970580000000  0.4455630000000 1.0
C      1  0.4702380000000  0.4129070000000  0.4557770000000 1.0
C      1  0.4816990000000  0.4575000000000  0.5499020000000 1.0
C      1  0.4884630000000  0.5053900000000  0.3864530000000 1.0
C      1  0.5540890000000  0.5749520000000  0.5488790000000 1.0
C      1  0.5856060000000  0.5137560000000  0.5604760000000 1.0
C      1  0.4567170000000  0.4785000000000  0.4447900000000 1.0
C      1  0.5201620000000  0.4898950000000  0.4878320000000 1.0
C      1  0.6067340000000  0.5250190000000  0.5146180000000 1.0
C      1  0.4645420000000  0.4301230000000  0.4327010000000 1.0
C      1  0.5149310000000  0.5586220000000  0.4962090000000 1.0
C      1  0.5202240000000  0.4621210000000  0.4909450000000 1.0
C      1  0.5264830000000  0.6024770000000  0.5090980000000 1.0
C      1  0.5155680000000  0.5085710000000  0.6036840000000 1.0
C      1  0.4145940000000  0.4985660000000  0.6039430000000 1.0
C      1  0.5633790000000  0.4875040000000  0.5043480000000 1.0
C      1  0.5302500000000  0.5734730000000  0.4101590000000 1.0
C      1  0.4870140000000  0.3715170000000  0.5202970000000 1.0
C      1  0.5385310000000  0.6549870000000  0.5087000000000 1.0
C      1  0.4586620000000  0.5598470000000  0.4306280000000 1.0
C      1  0.4198990000000  0.4242380000000  0.4602900000000 1.0
C      1  0.4522050000000  0.5390710000000  0.5608560000000 1.0
C      1  0.5113120000000  0.5624690000000  0.5277590000000 1.0
C      1  0.5444410000000  0.5271830000000  0.4764030000000 1.0
C      1  0.4644340000000  0.4645470000000  0.3984090000000 1.0
C      1  0.5836300000000  0.4676430000000  0.5076020000000 1.0
C      1  0.5370020000000  0.4527730000000  0.5650610000000 1.0
C      1  0.4373360000000  0.5135350000000  0.5636390000000 1.0
C      1  0.4176330000000  0.4483680000000  0.4444060000000 1.0
C      1  0.5459060000000  0.5009160000000  0.4859090000000 1.0
C      1  0.4533480000000  0.4697860000000  0.4733440000000 1.0
C      1  0.4889160000000  0.5276500000000  0.4053860000000 1.0
C      1  0.4921430000000  0.4309240000000  0.5541730000000 1.0
C      1  0.4125010000000  0.4989670000000  0.4455130000000 1.0
C      1  0.5272900000000  0.5143710000000  0.4354300000000 1.0
C      1  0.5006100000000  0.4089980000000  0.4614520000000 1.0
C      1  0.3765910000000  0.4407260000000  0.4761340000000 1.0
C      1  0.5812430000000  0.4451610000000  0.4892330000000 1.0
C      1  0.5022030000000  0.3769930000000  0.4990080000000 1.0
C      1  0.5130840000000  0.4927700000000  0.5567740000000 1.0
C      1  0.5260910000000  0.4549010000000  0.5173030000000 1.0
C      1  0.5147900000000  0.5881010000000  0.4855020000000 1.0
C      1  0.5900050000000  0.5206210000000  0.4632720000000 1.0
C      1  0.4293090000000  0.4862910000000  0.5168130000000 1.0
C      1  0.5461160000000  0.5512960000000  0.4926220000000 1.0
C      1  0.5519000000000  0.4952820000000  0.4344630000000 1.0
END
