TITL C-247197-3123-653 -0.157410325898545 125000 -400.764828046923 0 0 67 (C1) n - 1
REM
REM in /home/nfs/bkarasulu/CARBON/AIRSS/Generating-Clusters/LCBOP/Only-C1/SD-CG/FIRE-HFTN
REM
REM
REM
REM
REM
REM ./C.cell (11c1c37f851c82e70ff6c80c92926a4b)
REM AIRSS Version 0.9.1 bugfix July 2018 build 013d7b7c2542+ Fri, 06 Jul 2018 19:26:36 +0100
REM compiler GCC version 9.2.1 20190827 (Red Hat 9.2.1-1)
REM options -cpp -mtune=generic -march=x86-64 -g -O0 -fpre-include=/usr/include/finclude/math-vector-fortran.h
REM seed -594914964 2041331970 -360642569 -1355449299 393258291 -1602924910 936540313 1419828700 -1342377034 501031920 1879800633 65190091 1310018953 -1261314194 1754245461 86480466 1470085470 -747682265 -637644905 251332468 -968759190 1991514019 310835392 2021686792 72874242 484304870 1920241031 1342701427 1547921984 2080401879 955233082 -133326759 -718839976
REM
CELL 1.54180   50.00000   50.00000   50.00000   90.00000   90.00000   90.00000
LATT -1
SFAC C  
C      1  0.4599820000000  0.4520580000000  0.4842740000000 1.0
C      1  0.4704800000000  0.5637520000000  0.4615420000000 1.0
C      1  0.5620860000000  0.5196170000000  0.4133690000000 1.0
C      1  0.5595270000000  0.4979720000000  0.4288990000000 1.0
C      1  0.4696510000000  0.5081360000000  0.4946870000000 1.0
C      1  0.4997670000000  0.4776580000000  0.4688310000000 1.0
C      1  0.5369790000000  0.5043460000000  0.5477390000000 1.0
C      1  0.4455490000000  0.4744000000000  0.4724760000000 1.0
C      1  0.4930130000000  0.5604250000000  0.5350130000000 1.0
C      1  0.5004590000000  0.5336220000000  0.4311180000000 1.0
C      1  0.4952220000000  0.5392720000000  0.5546160000000 1.0
C      1  0.4714260000000  0.5781050000000  0.5301740000000 1.0
C      1  0.4512000000000  0.6055010000000  0.4747870000000 1.0
C      1  0.5162790000000  0.4162130000000  0.4994180000000 1.0
C      1  0.4921550000000  0.4652780000000  0.5207620000000 1.0
C      1  0.4538790000000  0.5713690000000  0.5085360000000 1.0
C      1  0.4728020000000  0.5233070000000  0.5653750000000 1.0
C      1  0.4435500000000  0.4975800000000  0.4892960000000 1.0
C      1  0.4488960000000  0.4349220000000  0.5048980000000 1.0
C      1  0.5046840000000  0.3983770000000  0.4301850000000 1.0
C      1  0.4853620000000  0.4323650000000  0.5705470000000 1.0
C      1  0.4741760000000  0.5079510000000  0.5220890000000 1.0
C      1  0.4255150000000  0.5071600000000  0.5095450000000 1.0
C      1  0.5218550000000  0.5466500000000  0.4188960000000 1.0
C      1  0.5449190000000  0.4885230000000  0.4514270000000 1.0
C      1  0.4674120000000  0.4993060000000  0.4318840000000 1.0
C      1  0.5288350000000  0.4813140000000  0.5639300000000 1.0
C      1  0.4586600000000  0.5799370000000  0.4816060000000 1.0
C      1  0.5027390000000  0.4264880000000  0.4763300000000 1.0
C      1  0.5464910000000  0.5411750000000  0.4099780000000 1.0
C      1  0.4755890000000  0.5459510000000  0.4405170000000 1.0
C      1  0.4312210000000  0.5286810000000  0.5282600000000 1.0
C      1  0.5520100000000  0.5070290000000  0.5224850000000 1.0
C      1  0.6204510000000  0.5752430000000  0.5029800000000 1.0
C      1  0.5148790000000  0.4644450000000  0.5078700000000 1.0
C      1  0.4561090000000  0.5261800000000  0.4326870000000 1.0
C      1  0.4528090000000  0.4374280000000  0.5333020000000 1.0
C      1  0.5421590000000  0.4624320000000  0.5131400000000 1.0
C      1  0.4641990000000  0.4466890000000  0.5582040000000 1.0
C      1  0.5757760000000  0.5480940000000  0.5084320000000 1.0
C      1  0.5130520000000  0.5602830000000  0.5150150000000 1.0
C      1  0.4674370000000  0.6004740000000  0.5453260000000 1.0
C      1  0.5526370000000  0.5328850000000  0.5103820000000 1.0
C      1  0.5889520000000  0.4827790000000  0.4704670000000 1.0
C      1  0.5131490000000  0.5237870000000  0.4835920000000 1.0
C      1  0.4463290000000  0.5263830000000  0.5530850000000 1.0
C      1  0.5121680000000  0.4358680000000  0.5713580000000 1.0
C      1  0.4672550000000  0.4753900000000  0.5597230000000 1.0
C      1  0.4934730000000  0.5036030000000  0.4810330000000 1.0
C      1  0.4328560000000  0.5541050000000  0.5157480000000 1.0
C      1  0.5213240000000  0.5273930000000  0.5552780000000 1.0
C      1  0.5554500000000  0.4850960000000  0.5041460000000 1.0
C      1  0.4879800000000  0.4514550000000  0.4755190000000 1.0
C      1  0.4976740000000  0.5038060000000  0.4311860000000 1.0
C      1  0.5038850000000  0.4114580000000  0.4527100000000 1.0
C      1  0.4758050000000  0.4830360000000  0.5337410000000 1.0
C      1  0.4517810000000  0.4796650000000  0.4449870000000 1.0
C      1  0.5426260000000  0.4424860000000  0.5338330000000 1.0
C      1  0.5160940000000  0.4860770000000  0.4465670000000 1.0
C      1  0.5274490000000  0.5413600000000  0.5002240000000 1.0
C      1  0.4331020000000  0.4139990000000  0.4963660000000 1.0
C      1  0.5323250000000  0.4184630000000  0.5213950000000 1.0
C      1  0.5317280000000  0.4525110000000  0.5588510000000 1.0
C      1  0.5069670000000  0.4889490000000  0.5820370000000 1.0
C      1  0.5617870000000  0.4858240000000  0.4757540000000 1.0
C      1  0.4796930000000  0.4960830000000  0.5758520000000 1.0
C      1  0.5982650000000  0.5618300000000  0.5057220000000 1.0
END
