TITL C-247201-3759-511 5.56047196353498e-05 125000 -209.966502046695 0 0 35 (C1) n - 1
REM
REM in /home/nfs/bkarasulu/CARBON/AIRSS/Generating-Clusters/LCBOP/Only-C1/SD-CG/FIRE-HFTN
REM
REM
REM
REM
REM
REM ./C.cell (11c1c37f851c82e70ff6c80c92926a4b)
REM AIRSS Version 0.9.1 bugfix July 2018 build 013d7b7c2542+ Fri, 06 Jul 2018 19:26:36 +0100
REM compiler GCC version 9.2.1 20190827 (Red Hat 9.2.1-1)
REM options -cpp -mtune=generic -march=x86-64 -g -O0 -fpre-include=/usr/include/finclude/math-vector-fortran.h
REM seed -1444936851 -1471584863 -1396942624 -1341457485 -817319529 1172774507 -1323399871 -1545041400 -794762933 1037083385 53797740 999699552 415879948 -491652214 1487002562 -2122299874 228867917 -2011196362 1390189159 570261884 633592482 -575064134 1633720040 1617979640 2003063358 1404851669 -1787213030 -862090796 -136638859 -823069794 -1705212941 285598252 851036826
REM
CELL 1.54180   50.00000   50.00000   50.00000   90.00000   90.00000   90.00000
LATT -1
SFAC C  
C      1  0.4293290000000  0.5169040000000  0.5105050000000 1.0
C      1  0.5519170000000  0.4508650000000  0.4763600000000 1.0
C      1  0.5325330000000  0.5209810000000  0.4598210000000 1.0
C      1  0.5348260000000  0.4830410000000  0.5458970000000 1.0
C      1  0.3766510000000  0.4901000000000  0.5883970000000 1.0
C      1  0.5432800000000  0.5010040000000  0.5024180000000 1.0
C      1  0.4750820000000  0.5426310000000  0.4573630000000 1.0
C      1  0.4769170000000  0.5274730000000  0.4099450000000 1.0
C      1  0.5448850000000  0.4733410000000  0.4613540000000 1.0
C      1  0.5113860000000  0.5244030000000  0.5309140000000 1.0
C      1  0.5430900000000  0.4448840000000  0.5751140000000 1.0
C      1  0.5046660000000  0.4910870000000  0.3982480000000 1.0
C      1  0.5305920000000  0.5036010000000  0.5273510000000 1.0
C      1  0.5435320000000  0.4340510000000  0.5992890000000 1.0
C      1  0.4874850000000  0.5194230000000  0.5445900000000 1.0
C      1  0.5425850000000  0.4563090000000  0.5497260000000 1.0
C      1  0.5137590000000  0.5159830000000  0.4389610000000 1.0
C      1  0.5439660000000  0.4233930000000  0.6230760000000 1.0
C      1  0.5532170000000  0.4397650000000  0.5005640000000 1.0
C      1  0.5188070000000  0.4924260000000  0.4226390000000 1.0
C      1  0.4890230000000  0.5600570000000  0.4747320000000 1.0
C      1  0.4888010000000  0.5303980000000  0.4356130000000 1.0
C      1  0.4147540000000  0.5044380000000  0.5551460000000 1.0
C      1  0.3955480000000  0.4972110000000  0.5719060000000 1.0
C      1  0.5497930000000  0.4415750000000  0.5269210000000 1.0
C      1  0.5338980000000  0.5463190000000  0.4720080000000 1.0
C      1  0.5132450000000  0.5562320000000  0.4885890000000 1.0
C      1  0.4349660000000  0.5120440000000  0.5375090000000 1.0
C      1  0.4613660000000  0.5149960000000  0.5463990000000 1.0
C      1  0.5134240000000  0.5479320000000  0.5154370000000 1.0
C      1  0.4501640000000  0.5332070000000  0.4659630000000 1.0
C      1  0.5348970000000  0.4728850000000  0.4349340000000 1.0
C      1  0.5425500000000  0.4986320000000  0.4745640000000 1.0
C      1  0.4345660000000  0.5241280000000  0.4854850000000 1.0
C      1  0.4844990000000  0.5082830000000  0.3922610000000 1.0
END
