TITL C-247195-3186-153 -5.3222007067406e-05 125000 -191.899738855155 0 0 33 (C1) n - 1
REM
REM in /home/nfs/bkarasulu/CARBON/AIRSS/Generating-Clusters/LCBOP/Only-C1/SD-CG/FIRE-HFTN
REM
REM
REM
REM
REM
REM ./C.cell (11c1c37f851c82e70ff6c80c92926a4b)
REM AIRSS Version 0.9.1 bugfix July 2018 build 013d7b7c2542+ Fri, 06 Jul 2018 19:26:36 +0100
REM compiler GCC version 9.2.1 20190827 (Red Hat 9.2.1-1)
REM options -cpp -mtune=generic -march=x86-64 -g -O0 -fpre-include=/usr/include/finclude/math-vector-fortran.h
REM seed -2032605670 2050386267 1753612068 1447748411 336283065 -105847924 -1184367255 -1593301321 -1880043224 111979808 -1763426240 -159803084 108597369 1077206249 -1026275205 -1678978334 588903820 -1548799710 -1195247588 -1640561319 -2066213352 339708623 -1181710084 -526795964 -828803581 -455520882 -1292366976 617987614 334486951 -1942453846 -754558930 -1591699052 2138459663
REM
CELL 1.54180   50.00000   50.00000   50.00000   90.00000   90.00000   90.00000
LATT -1
SFAC C  
C      1  0.5427460000000  0.5024800000000  0.4657690000000 1.0
C      1  0.5002230000000  0.5211990000000  0.5579770000000 1.0
C      1  0.5487190000000  0.4397020000000  0.5107590000000 1.0
C      1  0.4737560000000  0.4605800000000  0.4639310000000 1.0
C      1  0.5197370000000  0.4394490000000  0.5875720000000 1.0
C      1  0.4643950000000  0.4943530000000  0.5353870000000 1.0
C      1  0.4874900000000  0.4963920000000  0.5528300000000 1.0
C      1  0.5212560000000  0.4951330000000  0.4512070000000 1.0
C      1  0.4937790000000  0.5372850000000  0.4826370000000 1.0
C      1  0.5610640000000  0.5616910000000  0.5438270000000 1.0
C      1  0.5130900000000  0.4568740000000  0.5693730000000 1.0
C      1  0.5235960000000  0.4501860000000  0.5096900000000 1.0
C      1  0.5061980000000  0.4747390000000  0.5493410000000 1.0
C      1  0.4870170000000  0.5510820000000  0.4354830000000 1.0
C      1  0.5103770000000  0.4978080000000  0.5079020000000 1.0
C      1  0.4646800000000  0.5120790000000  0.5127390000000 1.0
C      1  0.5216430000000  0.5349450000000  0.5492770000000 1.0
C      1  0.4584090000000  0.4510120000000  0.5095060000000 1.0
C      1  0.4911880000000  0.5182290000000  0.5032630000000 1.0
C      1  0.4766850000000  0.4465710000000  0.4882800000000 1.0
C      1  0.4538200000000  0.4686420000000  0.5294410000000 1.0
C      1  0.5447950000000  0.5416920000000  0.5344650000000 1.0
C      1  0.5165690000000  0.4743940000000  0.5226920000000 1.0
C      1  0.4779570000000  0.5867670000000  0.3979690000000 1.0
C      1  0.4914520000000  0.5318870000000  0.4549690000000 1.0
C      1  0.5528000000000  0.5158310000000  0.4868010000000 1.0
C      1  0.4943030000000  0.5037230000000  0.4493780000000 1.0
C      1  0.4824680000000  0.5690910000000  0.4165930000000 1.0
C      1  0.5518150000000  0.5286230000000  0.5103490000000 1.0
C      1  0.4487950000000  0.5010990000000  0.4671020000000 1.0
C      1  0.4452280000000  0.5108730000000  0.4921570000000 1.0
C      1  0.4713570000000  0.4875440000000  0.4559720000000 1.0
C      1  0.5025930000000  0.4380440000000  0.4953620000000 1.0
END
