TITL C-247197-3123-151 -2.26617730828325e-06 125000 -776.968856434624 0 0 128 (C1) n - 1
REM
REM in /home/nfs/bkarasulu/CARBON/AIRSS/Generating-Clusters/LCBOP/Only-C1/SD-CG/FIRE-HFTN
REM
REM
REM
REM
REM
REM ./C.cell (11c1c37f851c82e70ff6c80c92926a4b)
REM AIRSS Version 0.9.1 bugfix July 2018 build 013d7b7c2542+ Fri, 06 Jul 2018 19:26:36 +0100
REM compiler GCC version 9.2.1 20190827 (Red Hat 9.2.1-1)
REM options -cpp -mtune=generic -march=x86-64 -g -O0 -fpre-include=/usr/include/finclude/math-vector-fortran.h
REM seed -778952469 -529874812 -366880073 223623532 947459507 -1736204951 123539366 1148858152 1576900186 1152044545 577776703 1428158448 -2127559760 101124186 898923730 -528294083 1339492905 -979924829 -925694415 -898512375 1706782238 -1020941361 -1879685734 897934090 -522052189 2121765951 2096393506 -982829247 -1336607251 1854905744 -1864435146 -1495599533 -1302343360
REM
CELL 1.54180   50.00000   50.00000   50.00000   90.00000   90.00000   90.00000
LATT -1
SFAC C  
C      1  0.5604820000000  0.5038370000000  0.4126220000000 1.0
C      1  0.4247360000000  0.5292810000000  0.5613010000000 1.0
C      1  0.4381610000000  0.5891140000000  0.5631240000000 1.0
C      1  0.5712390000000  0.4903950000000  0.5639630000000 1.0
C      1  0.4207470000000  0.5491280000000  0.5413000000000 1.0
C      1  0.4672170000000  0.4747750000000  0.6003270000000 1.0
C      1  0.4205090000000  0.4906880000000  0.4778160000000 1.0
C      1  0.4924560000000  0.4871420000000  0.4013970000000 1.0
C      1  0.4550920000000  0.4442200000000  0.4588680000000 1.0
C      1  0.5725440000000  0.5754520000000  0.5058840000000 1.0
C      1  0.4864590000000  0.4242030000000  0.4251860000000 1.0
C      1  0.4329920000000  0.5217180000000  0.4342980000000 1.0
C      1  0.4912260000000  0.4046520000000  0.5382610000000 1.0
C      1  0.5333390000000  0.5988760000000  0.4825310000000 1.0
C      1  0.4845980000000  0.5276630000000  0.5000700000000 1.0
C      1  0.5720530000000  0.4109980000000  0.5004210000000 1.0
C      1  0.5177970000000  0.5530480000000  0.4406320000000 1.0
C      1  0.5404610000000  0.4366140000000  0.5394910000000 1.0
C      1  0.5865990000000  0.5490900000000  0.4616840000000 1.0
C      1  0.4407360000000  0.5454130000000  0.4860940000000 1.0
C      1  0.5242600000000  0.5741960000000  0.5225190000000 1.0
C      1  0.4401680000000  0.6033420000000  0.5848640000000 1.0
C      1  0.4995880000000  0.5711680000000  0.5094500000000 1.0
C      1  0.4453580000000  0.4910090000000  0.5921820000000 1.0
C      1  0.5260840000000  0.5138040000000  0.5547840000000 1.0
C      1  0.4005020000000  0.5454930000000  0.5216090000000 1.0
C      1  0.5471110000000  0.5299100000000  0.5639450000000 1.0
C      1  0.4814910000000  0.3831030000000  0.4975410000000 1.0
C      1  0.3953080000000  0.5421380000000  0.4951670000000 1.0
C      1  0.4727700000000  0.5762430000000  0.4488380000000 1.0
C      1  0.5031000000000  0.4257550000000  0.4041770000000 1.0
C      1  0.4571210000000  0.3965170000000  0.4890020000000 1.0
C      1  0.4479980000000  0.3869820000000  0.4637600000000 1.0
C      1  0.5463090000000  0.5039750000000  0.4798020000000 1.0
C      1  0.5383070000000  0.4131210000000  0.5534930000000 1.0
C      1  0.5739380000000  0.5646930000000  0.5546150000000 1.0
C      1  0.4316450000000  0.5096940000000  0.5784270000000 1.0
C      1  0.4589150000000  0.4718130000000  0.4987900000000 1.0
C      1  0.4406750000000  0.4225620000000  0.5286460000000 1.0
C      1  0.4531500000000  0.5806290000000  0.5178840000000 1.0
C      1  0.4785030000000  0.5118980000000  0.5576610000000 1.0
C      1  0.5808830000000  0.4306710000000  0.5168850000000 1.0
C      1  0.5847890000000  0.5413560000000  0.5394180000000 1.0
C      1  0.5197310000000  0.5057550000000  0.4357990000000 1.0
C      1  0.4649860000000  0.3742220000000  0.4466170000000 1.0
C      1  0.4166650000000  0.4745840000000  0.4564100000000 1.0
C      1  0.4966720000000  0.4285830000000  0.5275450000000 1.0
C      1  0.5486720000000  0.4878890000000  0.5227950000000 1.0
C      1  0.4433730000000  0.4956450000000  0.4939250000000 1.0
C      1  0.4491330000000  0.4320490000000  0.5816900000000 1.0
C      1  0.5495830000000  0.4631470000000  0.4436750000000 1.0
C      1  0.5943830000000  0.5352770000000  0.4861590000000 1.0
C      1  0.5431070000000  0.5903460000000  0.4574480000000 1.0
C      1  0.5304570000000  0.4512810000000  0.4634250000000 1.0
C      1  0.4635520000000  0.5899250000000  0.4721530000000 1.0
C      1  0.5178840000000  0.4488190000000  0.5226590000000 1.0
C      1  0.4983490000000  0.5027370000000  0.4543620000000 1.0
C      1  0.4985770000000  0.5585940000000  0.5605010000000 1.0
C      1  0.4188780000000  0.4066030000000  0.6185540000000 1.0
C      1  0.4884810000000  0.5348180000000  0.5720820000000 1.0
C      1  0.5737650000000  0.5187680000000  0.5569960000000 1.0
C      1  0.4428230000000  0.4292290000000  0.5544150000000 1.0
C      1  0.5218080000000  0.4995480000000  0.5295520000000 1.0
C      1  0.5784980000000  0.4661960000000  0.4508430000000 1.0
C      1  0.4793940000000  0.5237650000000  0.4487430000000 1.0
C      1  0.4151310000000  0.5403660000000  0.4461360000000 1.0
C      1  0.5357420000000  0.4560430000000  0.4912510000000 1.0
C      1  0.5373160000000  0.4993360000000  0.6028630000000 1.0
C      1  0.5239580000000  0.4412380000000  0.5938160000000 1.0
C      1  0.5175440000000  0.5354910000000  0.3952630000000 1.0
C      1  0.4799550000000  0.5915460000000  0.5141340000000 1.0
C      1  0.4956660000000  0.4803100000000  0.4711830000000 1.0
C      1  0.5189500000000  0.5312470000000  0.4222040000000 1.0
C      1  0.4117550000000  0.5637820000000  0.4305890000000 1.0
C      1  0.5308560000000  0.5244090000000  0.4900160000000 1.0
C      1  0.5481350000000  0.4807580000000  0.4958570000000 1.0
C      1  0.5098710000000  0.5054020000000  0.6080550000000 1.0
C      1  0.5675040000000  0.5499080000000  0.4402670000000 1.0
C      1  0.4929000000000  0.5530490000000  0.4879050000000 1.0
C      1  0.5018630000000  0.4764270000000  0.5263660000000 1.0
C      1  0.5686780000000  0.5291310000000  0.4199430000000 1.0
C      1  0.4333830000000  0.4186870000000  0.6005900000000 1.0
C      1  0.5885180000000  0.4912460000000  0.4619020000000 1.0
C      1  0.4561910000000  0.5221490000000  0.4955930000000 1.0
C      1  0.5668830000000  0.4748690000000  0.5402910000000 1.0
C      1  0.4811740000000  0.4867450000000  0.5467950000000 1.0
C      1  0.4989290000000  0.5293120000000  0.5978620000000 1.0
C      1  0.5379500000000  0.4846370000000  0.4230290000000 1.0
C      1  0.5468130000000  0.5587390000000  0.5623390000000 1.0
C      1  0.4375740000000  0.5728050000000  0.5403230000000 1.0
C      1  0.5105370000000  0.5181610000000  0.5087140000000 1.0
C      1  0.4682370000000  0.5019900000000  0.4049130000000 1.0
C      1  0.5432290000000  0.5654690000000  0.4446500000000 1.0
C      1  0.4910750000000  0.5532250000000  0.4562970000000 1.0
C      1  0.5525610000000  0.3958330000000  0.4897070000000 1.0
C      1  0.5124150000000  0.6426380000000  0.4773580000000 1.0
C      1  0.6038580000000  0.5078450000000  0.4804630000000 1.0
C      1  0.4824520000000  0.6060600000000  0.4882180000000 1.0
C      1  0.5445870000000  0.5837110000000  0.5051430000000 1.0
C      1  0.5181050000000  0.4461520000000  0.3950690000000 1.0
C      1  0.4326850000000  0.4554640000000  0.4458240000000 1.0
C      1  0.4147300000000  0.5416010000000  0.4746310000000 1.0
C      1  0.4810870000000  0.4398670000000  0.4478040000000 1.0
C      1  0.5844150000000  0.5481670000000  0.5107150000000 1.0
C      1  0.4511580000000  0.5030690000000  0.3833010000000 1.0
C      1  0.5025190000000  0.4551500000000  0.4586230000000 1.0
C      1  0.5468200000000  0.4550950000000  0.5907490000000 1.0
C      1  0.4912810000000  0.3702280000000  0.4527740000000 1.0
C      1  0.5092500000000  0.6157950000000  0.4826570000000 1.0
C      1  0.5547780000000  0.4822440000000  0.5875640000000 1.0
C      1  0.5178060000000  0.4731770000000  0.4029330000000 1.0
C      1  0.4487390000000  0.4210540000000  0.5017020000000 1.0
C      1  0.4709230000000  0.4478670000000  0.5909950000000 1.0
C      1  0.4579620000000  0.5802090000000  0.4253290000000 1.0
C      1  0.4472300000000  0.5729170000000  0.4904520000000 1.0
C      1  0.5667650000000  0.4470370000000  0.5352260000000 1.0
C      1  0.5646920000000  0.5070510000000  0.4600250000000 1.0
C      1  0.4897880000000  0.4862190000000  0.6133730000000 1.0
C      1  0.4316450000000  0.5785270000000  0.4197440000000 1.0
C      1  0.4528470000000  0.4455840000000  0.4877440000000 1.0
C      1  0.4867380000000  0.4774280000000  0.4984890000000 1.0
C      1  0.5911500000000  0.5958000000000  0.5024800000000 1.0
C      1  0.5233730000000  0.5684260000000  0.5502170000000 1.0
C      1  0.4974270000000  0.4380380000000  0.5920420000000 1.0
C      1  0.4601260000000  0.5162720000000  0.4289080000000 1.0
C      1  0.5290850000000  0.3849070000000  0.4825560000000 1.0
C      1  0.4864060000000  0.3818820000000  0.5250180000000 1.0
C      1  0.5020970000000  0.3780540000000  0.4779470000000 1.0
END
