TITL C-247200-3482-162 -4.21756631513095e-07 125000 -267.76677104942 0 0 45 (C1) n - 1
REM
REM in /home/nfs/bkarasulu/CARBON/AIRSS/Generating-Clusters/LCBOP/Only-C1/SD-CG/FIRE-HFTN
REM
REM
REM
REM
REM
REM ./C.cell (11c1c37f851c82e70ff6c80c92926a4b)
REM AIRSS Version 0.9.1 bugfix July 2018 build 013d7b7c2542+ Fri, 06 Jul 2018 19:26:36 +0100
REM compiler GCC version 9.2.1 20190827 (Red Hat 9.2.1-1)
REM options -cpp -mtune=generic -march=x86-64 -g -O0 -fpre-include=/usr/include/finclude/math-vector-fortran.h
REM seed -2102699847 952314658 -978999900 -1209699800 -576917442 493022159 60118687 -366614027 1254723966 -118540245 1297844622 336999229 330203270 -533668123 1940314458 -1929704748 1864998204 -1160921451 327305681 1523591353 392062546 -465123174 -46371036 -1568511142 1676695570 922697120 -818870788 -2070849200 948979602 1645550176 239968757 -905725583 121011227
REM
CELL 1.54180   50.00000   50.00000   50.00000   90.00000   90.00000   90.00000
LATT -1
SFAC C  
C      1  0.4706010000000  0.5417030000000  0.4633970000000 1.0
C      1  0.5342220000000  0.5384090000000  0.5313880000000 1.0
C      1  0.4738790000000  0.5014760000000  0.5078930000000 1.0
C      1  0.4876610000000  0.4490260000000  0.4709920000000 1.0
C      1  0.4729440000000  0.5362900000000  0.5390780000000 1.0
C      1  0.4568740000000  0.5179180000000  0.5241400000000 1.0
C      1  0.4697290000000  0.4805170000000  0.5736170000000 1.0
C      1  0.4678200000000  0.4498180000000  0.5349040000000 1.0
C      1  0.5155230000000  0.4762130000000  0.5610940000000 1.0
C      1  0.4948450000000  0.4467280000000  0.5249290000000 1.0
C      1  0.5422520000000  0.4541080000000  0.4312450000000 1.0
C      1  0.5202250000000  0.4389770000000  0.4323950000000 1.0
C      1  0.5035760000000  0.5740790000000  0.5280540000000 1.0
C      1  0.4939960000000  0.5195890000000  0.5523700000000 1.0
C      1  0.5273410000000  0.5587460000000  0.4888240000000 1.0
C      1  0.4985090000000  0.4378320000000  0.4478760000000 1.0
C      1  0.5043460000000  0.5668400000000  0.4748470000000 1.0
C      1  0.5357060000000  0.5325220000000  0.4808340000000 1.0
C      1  0.5584240000000  0.4738250000000  0.4720320000000 1.0
C      1  0.4312260000000  0.5241960000000  0.4423240000000 1.0
C      1  0.4297240000000  0.5170580000000  0.5251540000000 1.0
C      1  0.5200280000000  0.5106300000000  0.4852790000000 1.0
C      1  0.5028620000000  0.5070160000000  0.5073850000000 1.0
C      1  0.4617920000000  0.4577710000000  0.5612500000000 1.0
C      1  0.5538830000000  0.4677000000000  0.4976880000000 1.0
C      1  0.5112970000000  0.5407020000000  0.4323120000000 1.0
C      1  0.4795100000000  0.5596210000000  0.5224030000000 1.0
C      1  0.5542910000000  0.4711980000000  0.5983750000000 1.0
C      1  0.5403070000000  0.4631870000000  0.5203000000000 1.0
C      1  0.4507380000000  0.4597180000000  0.5144400000000 1.0
C      1  0.4614960000000  0.4787500000000  0.4965990000000 1.0
C      1  0.5460190000000  0.5019880000000  0.4331790000000 1.0
C      1  0.4740220000000  0.5583770000000  0.4944590000000 1.0
C      1  0.5171580000000  0.4608930000000  0.5365610000000 1.0
C      1  0.4562350000000  0.5199660000000  0.4527320000000 1.0
C      1  0.5514120000000  0.4769830000000  0.4448730000000 1.0
C      1  0.4931450000000  0.4944230000000  0.5662290000000 1.0
C      1  0.5302430000000  0.5226180000000  0.4268840000000 1.0
C      1  0.4668510000000  0.4934330000000  0.4525220000000 1.0
C      1  0.4961540000000  0.4401700000000  0.4969310000000 1.0
C      1  0.5276110000000  0.5625460000000  0.5175340000000 1.0
C      1  0.5354320000000  0.4734600000000  0.5805340000000 1.0
C      1  0.4952100000000  0.5525570000000  0.4516430000000 1.0
C      1  0.5142430000000  0.5183230000000  0.5318300000000 1.0
C      1  0.4706330000000  0.4721060000000  0.4706700000000 1.0
END
