TITL C-247200-3482-482 -494.482705668696 125000 -351.351664149958 0 0 60 (C1) n - 1
REM
REM in /home/nfs/bkarasulu/CARBON/AIRSS/Generating-Clusters/LCBOP/Only-C1/SD-CG/FIRE-HFTN
REM
REM
REM
REM
REM
REM ./C.cell (11c1c37f851c82e70ff6c80c92926a4b)
REM AIRSS Version 0.9.1 bugfix July 2018 build 013d7b7c2542+ Fri, 06 Jul 2018 19:26:36 +0100
REM compiler GCC version 9.2.1 20190827 (Red Hat 9.2.1-1)
REM options -cpp -mtune=generic -march=x86-64 -g -O0 -fpre-include=/usr/include/finclude/math-vector-fortran.h
REM seed -596787958 -361154165 470662088 1403632752 516590767 1110475613 -1612530154 -1915920688 -1817901649 -95937405 176695805 -1219372755 -557633721 993350476 -2088064131 1233414056 -1859569039 991446234 346506578 207300217 1785288209 -1227454345 -208059731 -1634512409 -683515538 -642143053 -1220374198 -2140395707 -676928282 1446683623 355825836 144006991 -1070127281
REM
CELL 1.54180   50.00000   50.00000   50.00000   90.00000   90.00000   90.00000
LATT -1
SFAC C  
C      1  0.5395760000000  0.4355120000000  0.3678570000000 1.0
C      1  0.5438740000000  0.4970530000000  0.5324010000000 1.0
C      1  0.5879600000000  0.5576150000000  0.3745050000000 1.0
C      1  0.4027550000000  0.4576480000000  0.6045200000000 1.0
C      1  0.5522920000000  0.5495870000000  0.4438230000000 1.0
C      1  0.5653730000000  0.5309920000000  0.5062130000000 1.0
C      1  0.2804870000000  0.4253290000000  0.7008900000000 1.0
C      1  0.6017000000000  0.6340560000000  0.4360620000000 1.0
C      1  0.5266870000000  0.5563580000000  0.5545440000000 1.0
C      1  0.6195890000000  0.6806420000000  0.4526140000000 1.0
C      1  0.5491810000000  0.5041780000000  0.3964760000000 1.0
C      1  0.5390090000000  0.5249120000000  0.4440160000000 1.0
C      1  0.4797590000000  0.5508270000000  0.5412190000000 1.0
C      1  0.5030120000000  0.3865070000000  0.4512790000000 1.0
C      1  0.4815590000000  0.5333540000000  0.4502030000000 1.0
C      1  0.4916140000000  0.4613730000000  0.5172390000000 1.0
C      1  0.5404930000000  0.5086900000000  0.4212180000000 1.0
C      1  0.3825260000000  0.4524010000000  0.6208130000000 1.0
C      1  0.4628280000000  0.4728980000000  0.5547570000000 1.0
C      1  0.5243630000000  0.5165130000000  0.4667480000000 1.0
C      1  0.4670900000000  0.5395290000000  0.4294260000000 1.0
C      1  0.5513380000000  0.5065700000000  0.5067270000000 1.0
C      1  0.5671170000000  0.5699680000000  0.4354690000000 1.0
C      1  0.6107160000000  0.6575430000000  0.4444070000000 1.0
C      1  0.5291650000000  0.3703030000000  0.4136860000000 1.0
C      1  0.5054250000000  0.3693650000000  0.4293260000000 1.0
C      1  0.3622170000000  0.4470760000000  0.6369820000000 1.0
C      1  0.5283770000000  0.5298100000000  0.5644140000000 1.0
C      1  0.5927000000000  0.6105830000000  0.4277170000000 1.0
C      1  0.3418390000000  0.4416830000000  0.6530410000000 1.0
C      1  0.5633460000000  0.5544340000000  0.5191650000000 1.0
C      1  0.4834180000000  0.4793500000000  0.5371200000000 1.0
C      1  0.4981140000000  0.5266010000000  0.4716790000000 1.0
C      1  0.5782580000000  0.5338120000000  0.3674750000000 1.0
C      1  0.5256090000000  0.4714290000000  0.4848940000000 1.0
C      1  0.4866720000000  0.5278320000000  0.5257750000000 1.0
C      1  0.4852470000000  0.3520840000000  0.4227950000000 1.0
C      1  0.5026090000000  0.4059550000000  0.4692590000000 1.0
C      1  0.5070570000000  0.4531790000000  0.4953300000000 1.0
C      1  0.4228960000000  0.4628000000000  0.5880870000000 1.0
C      1  0.4965820000000  0.5043570000000  0.5388380000000 1.0
C      1  0.4956320000000  0.5938860000000  0.5591440000000 1.0
C      1  0.5832300000000  0.5858790000000  0.4189360000000 1.0
C      1  0.5895770000000  0.5763170000000  0.3933660000000 1.0
C      1  0.5356900000000  0.4975750000000  0.4847190000000 1.0
C      1  0.5362460000000  0.4134800000000  0.3813920000000 1.0
C      1  0.5481900000000  0.5651260000000  0.5385860000000 1.0
C      1  0.2603500000000  0.4199400000000  0.7165460000000 1.0
C      1  0.5480970000000  0.3507050000000  0.4161470000000 1.0
C      1  0.5006000000000  0.5674410000000  0.5518030000000 1.0
C      1  0.4534320000000  0.5565070000000  0.5461910000000 1.0
C      1  0.5039210000000  0.4279220000000  0.4840070000000 1.0
C      1  0.5634000000000  0.5133270000000  0.3758780000000 1.0
C      1  0.5232060000000  0.5066500000000  0.5490550000000 1.0
C      1  0.3214110000000  0.4362540000000  0.6690230000000 1.0
C      1  0.5329070000000  0.3916170000000  0.3959830000000 1.0
C      1  0.4429370000000  0.4678340000000  0.5714970000000 1.0
C      1  0.3009570000000  0.4307990000000  0.6849640000000 1.0
C      1  0.4911760000000  0.6186660000000  0.5658700000000 1.0
C      1  0.4886130000000  0.5293690000000  0.4978850000000 1.0
END
