TITL C-247196-3112-110 -0.018192615013059 125000 -1168.21469691221 0 0 188 (C1) n - 1
REM
REM in /home/nfs/bkarasulu/CARBON/AIRSS/Generating-Clusters/LCBOP/Only-C1/SD-CG/FIRE-HFTN
REM
REM
REM
REM
REM
REM ./C.cell (11c1c37f851c82e70ff6c80c92926a4b)
REM AIRSS Version 0.9.1 bugfix July 2018 build 013d7b7c2542+ Fri, 06 Jul 2018 19:26:36 +0100
REM compiler GCC version 9.2.1 20190827 (Red Hat 9.2.1-1)
REM options -cpp -mtune=generic -march=x86-64 -g -O0 -fpre-include=/usr/include/finclude/math-vector-fortran.h
REM seed -165499741 1646447664 -1734486798 -1972753464 1517816994 -519460090 -28606067 1061287470 456378417 -1057414276 -1337853636 931439772 -1638252595 257784379 -178722207 -1044030644 -1457287279 -1209079905 -756711003 140721665 949385681 -976112601 -235319261 336154534 19452153 1274920701 587689590 -808111427 1100184617 2142261149 -621668982 558533231 1749671613
REM
CELL 1.54180   50.00000   50.00000   50.00000   90.00000   90.00000   90.00000
LATT -1
SFAC C  
C      1  0.5154670000000  0.4728570000000  0.6145240000000 1.0
C      1  0.5166120000000  0.5186800000000  0.5848060000000 1.0
C      1  0.5588380000000  0.5098220000000  0.4037500000000 1.0
C      1  0.5171960000000  0.4660260000000  0.4636270000000 1.0
C      1  0.5332060000000  0.3834300000000  0.5769490000000 1.0
C      1  0.5236750000000  0.4181900000000  0.4836910000000 1.0
C      1  0.4779470000000  0.5740340000000  0.4091910000000 1.0
C      1  0.4780510000000  0.5751180000000  0.5243980000000 1.0
C      1  0.4353810000000  0.4255530000000  0.4752600000000 1.0
C      1  0.4503050000000  0.4990050000000  0.6221420000000 1.0
C      1  0.5729190000000  0.5928180000000  0.5315780000000 1.0
C      1  0.5522660000000  0.5479070000000  0.4516600000000 1.0
C      1  0.6125980000000  0.4954350000000  0.4441910000000 1.0
C      1  0.5642720000000  0.5954740000000  0.4585910000000 1.0
C      1  0.5309470000000  0.4897510000000  0.4578490000000 1.0
C      1  0.4401760000000  0.4445940000000  0.5306570000000 1.0
C      1  0.4578100000000  0.4765680000000  0.4972120000000 1.0
C      1  0.5050260000000  0.5292710000000  0.4347580000000 1.0
C      1  0.4802320000000  0.4558470000000  0.5904980000000 1.0
C      1  0.4134490000000  0.3752140000000  0.5238900000000 1.0
C      1  0.6095600000000  0.5440260000000  0.4511740000000 1.0
C      1  0.5689300000000  0.4179600000000  0.5470110000000 1.0
C      1  0.4433430000000  0.5527360000000  0.5038140000000 1.0
C      1  0.5587710000000  0.5469880000000  0.5316120000000 1.0
C      1  0.4569580000000  0.5581370000000  0.5762890000000 1.0
C      1  0.4171430000000  0.4973250000000  0.5780320000000 1.0
C      1  0.5308780000000  0.5170340000000  0.3934200000000 1.0
C      1  0.5250190000000  0.5610270000000  0.5096470000000 1.0
C      1  0.4156150000000  0.4011140000000  0.5220220000000 1.0
C      1  0.6151350000000  0.4426880000000  0.5745950000000 1.0
C      1  0.5477200000000  0.5239080000000  0.5450010000000 1.0
C      1  0.4850760000000  0.5500190000000  0.5361260000000 1.0
C      1  0.6055960000000  0.5589530000000  0.4735710000000 1.0
C      1  0.4348710000000  0.4133430000000  0.4482970000000 1.0
C      1  0.4143940000000  0.5765530000000  0.5671630000000 1.0
C      1  0.5611770000000  0.4694860000000  0.5316660000000 1.0
C      1  0.5354390000000  0.4188120000000  0.4096190000000 1.0
C      1  0.4135670000000  0.6058650000000  0.5186460000000 1.0
C      1  0.4620220000000  0.4219840000000  0.4094920000000 1.0
C      1  0.6148880000000  0.5114990000000  0.5638880000000 1.0
C      1  0.4630140000000  0.6144650000000  0.4751420000000 1.0
C      1  0.5592580000000  0.3535020000000  0.5436360000000 1.0
C      1  0.4365490000000  0.4870690000000  0.4129250000000 1.0
C      1  0.3937470000000  0.5381980000000  0.5157710000000 1.0
C      1  0.4758300000000  0.4984940000000  0.6321180000000 1.0
C      1  0.4646780000000  0.4215940000000  0.5618450000000 1.0
C      1  0.5503530000000  0.4153040000000  0.4946890000000 1.0
C      1  0.4748370000000  0.4285320000000  0.5871650000000 1.0
C      1  0.5293540000000  0.4111620000000  0.5723100000000 1.0
C      1  0.4882950000000  0.5200810000000  0.5738500000000 1.0
C      1  0.5363880000000  0.6180610000000  0.4928570000000 1.0
C      1  0.5320290000000  0.4080220000000  0.4339660000000 1.0
C      1  0.3970100000000  0.4713190000000  0.4385250000000 1.0
C      1  0.4753800000000  0.4453890000000  0.4602400000000 1.0
C      1  0.5451110000000  0.3630270000000  0.5642080000000 1.0
C      1  0.5750730000000  0.4122500000000  0.4808010000000 1.0
C      1  0.5825040000000  0.4661280000000  0.4161060000000 1.0
C      1  0.5161850000000  0.4688280000000  0.5609380000000 1.0
C      1  0.5037690000000  0.4966170000000  0.6257890000000 1.0
C      1  0.5349070000000  0.5812750000000  0.5612320000000 1.0
C      1  0.5123700000000  0.6144260000000  0.4767940000000 1.0
C      1  0.4493190000000  0.4703100000000  0.5232080000000 1.0
C      1  0.6174750000000  0.4945070000000  0.5192940000000 1.0
C      1  0.4035210000000  0.5225380000000  0.4279730000000 1.0
C      1  0.5616740000000  0.4843720000000  0.5749050000000 1.0
C      1  0.4860420000000  0.4850600000000  0.4098290000000 1.0
C      1  0.4154700000000  0.4955620000000  0.4349330000000 1.0
C      1  0.4828060000000  0.5160690000000  0.4950590000000 1.0
C      1  0.3926160000000  0.4662670000000  0.5286760000000 1.0
C      1  0.4401610000000  0.4904770000000  0.5966210000000 1.0
C      1  0.4455150000000  0.6078400000000  0.4554400000000 1.0
C      1  0.5338690000000  0.4695860000000  0.4000360000000 1.0
C      1  0.5548950000000  0.4280120000000  0.5723470000000 1.0
C      1  0.6033960000000  0.4963370000000  0.5440160000000 1.0
C      1  0.5725460000000  0.3541220000000  0.5204840000000 1.0
C      1  0.4068730000000  0.4725930000000  0.5611880000000 1.0
C      1  0.4893910000000  0.5125710000000  0.4507770000000 1.0
C      1  0.4341300000000  0.5145070000000  0.5305320000000 1.0
C      1  0.5682630000000  0.5454700000000  0.5024110000000 1.0
C      1  0.5822680000000  0.3647270000000  0.4979610000000 1.0
C      1  0.3952470000000  0.5647900000000  0.5021340000000 1.0
C      1  0.4173550000000  0.5138770000000  0.4853260000000 1.0
C      1  0.4810770000000  0.4887180000000  0.4384990000000 1.0
C      1  0.4868280000000  0.6121230000000  0.4907200000000 1.0
C      1  0.5792610000000  0.4807210000000  0.4842460000000 1.0
C      1  0.5595840000000  0.4806880000000  0.4067800000000 1.0
C      1  0.5130770000000  0.5982330000000  0.4534300000000 1.0
C      1  0.4506830000000  0.4938400000000  0.5403680000000 1.0
C      1  0.6031570000000  0.5214280000000  0.4344260000000 1.0
C      1  0.6236600000000  0.4343850000000  0.5235460000000 1.0
C      1  0.5069670000000  0.6084360000000  0.4282120000000 1.0
C      1  0.6139950000000  0.4341710000000  0.4986120000000 1.0
C      1  0.3982260000000  0.4126570000000  0.4141400000000 1.0
C      1  0.5059640000000  0.5068500000000  0.5318480000000 1.0
C      1  0.4367800000000  0.5952620000000  0.5600430000000 1.0
C      1  0.5375250000000  0.5093610000000  0.4772940000000 1.0
C      1  0.5783040000000  0.4839180000000  0.5495720000000 1.0
C      1  0.4614050000000  0.5873000000000  0.5735750000000 1.0
C      1  0.5932250000000  0.4346490000000  0.4791200000000 1.0
C      1  0.4195970000000  0.4283630000000  0.5197010000000 1.0
C      1  0.4193170000000  0.4479730000000  0.5711250000000 1.0
C      1  0.5568960000000  0.5730910000000  0.5446050000000 1.0
C      1  0.5408410000000  0.4981630000000  0.5029370000000 1.0
C      1  0.4103510000000  0.5721580000000  0.4457550000000 1.0
C      1  0.4627380000000  0.4775100000000  0.5836490000000 1.0
C      1  0.5159630000000  0.5191790000000  0.6135420000000 1.0
C      1  0.5601670000000  0.5292950000000  0.4755330000000 1.0
C      1  0.4972960000000  0.4848990000000  0.5472040000000 1.0
C      1  0.5081810000000  0.4629950000000  0.5887500000000 1.0
C      1  0.5324010000000  0.5094650000000  0.5262120000000 1.0
C      1  0.4373780000000  0.5973990000000  0.5312170000000 1.0
C      1  0.4879190000000  0.5986530000000  0.5776610000000 1.0
C      1  0.5607620000000  0.4783430000000  0.5051930000000 1.0
C      1  0.5110760000000  0.5972980000000  0.5596150000000 1.0
C      1  0.4367200000000  0.5249300000000  0.5046650000000 1.0
C      1  0.5845960000000  0.3856180000000  0.4812560000000 1.0
C      1  0.4851390000000  0.4005110000000  0.4477790000000 1.0
C      1  0.5785000000000  0.5921070000000  0.5037210000000 1.0
C      1  0.5956540000000  0.4716510000000  0.4409630000000 1.0
C      1  0.4777500000000  0.5439550000000  0.5634770000000 1.0
C      1  0.4410880000000  0.4360590000000  0.5572500000000 1.0
C      1  0.5092260000000  0.6107600000000  0.5343560000000 1.0
C      1  0.5434590000000  0.5107970000000  0.5718570000000 1.0
C      1  0.6292310000000  0.4953630000000  0.4677550000000 1.0
C      1  0.4599950000000  0.4083050000000  0.4345110000000 1.0
C      1  0.5029410000000  0.4437840000000  0.4518230000000 1.0
C      1  0.6245720000000  0.4372360000000  0.5501250000000 1.0
C      1  0.3932090000000  0.5862320000000  0.5214550000000 1.0
C      1  0.5053740000000  0.4658650000000  0.4908710000000 1.0
C      1  0.5304590000000  0.6235260000000  0.5203460000000 1.0
C      1  0.4735930000000  0.4949630000000  0.5619590000000 1.0
C      1  0.4641800000000  0.4701360000000  0.4523170000000 1.0
C      1  0.4506290000000  0.5749690000000  0.5193020000000 1.0
C      1  0.5523770000000  0.4190340000000  0.5229420000000 1.0
C      1  0.4939100000000  0.5534060000000  0.3951990000000 1.0
C      1  0.5361660000000  0.4588440000000  0.5427090000000 1.0
C      1  0.4104650000000  0.4233480000000  0.4359570000000 1.0
C      1  0.5298610000000  0.4331550000000  0.5333390000000 1.0
C      1  0.5877460000000  0.5662100000000  0.4946350000000 1.0
C      1  0.4023010000000  0.4473340000000  0.5073030000000 1.0
C      1  0.5124180000000  0.4149840000000  0.4548440000000 1.0
C      1  0.5819410000000  0.5223460000000  0.4148960000000 1.0
C      1  0.4837500000000  0.4185970000000  0.5394850000000 1.0
C      1  0.5194560000000  0.5433580000000  0.3839560000000 1.0
C      1  0.4849940000000  0.4862280000000  0.4957300000000 1.0
C      1  0.4895370000000  0.6000640000000  0.5169210000000 1.0
C      1  0.4895470000000  0.5998050000000  0.4097240000000 1.0
C      1  0.6288950000000  0.4953200000000  0.4948550000000 1.0
C      1  0.4274160000000  0.5511210000000  0.5764580000000 1.0
C      1  0.4138730000000  0.5260570000000  0.5687100000000 1.0
C      1  0.5116540000000  0.4180690000000  0.5493260000000 1.0
C      1  0.3703240000000  0.4992250000000  0.5002550000000 1.0
C      1  0.3914640000000  0.5787030000000  0.5497080000000 1.0
C      1  0.4461630000000  0.4795880000000  0.4715080000000 1.0
C      1  0.5932200000000  0.4466420000000  0.3999590000000 1.0
C      1  0.3907500000000  0.5175020000000  0.4954290000000 1.0
C      1  0.5313200000000  0.4420370000000  0.3971120000000 1.0
C      1  0.4263010000000  0.4977880000000  0.4641140000000 1.0
C      1  0.4099730000000  0.4431400000000  0.4790800000000 1.0
C      1  0.5132010000000  0.5703670000000  0.4597600000000 1.0
C      1  0.4005230000000  0.4461560000000  0.4512990000000 1.0
C      1  0.5880590000000  0.4600760000000  0.4665470000000 1.0
C      1  0.4806970000000  0.4261630000000  0.5090700000000 1.0
C      1  0.5660160000000  0.4542300000000  0.5839360000000 1.0
C      1  0.4105870000000  0.5673790000000  0.4747700000000 1.0
C      1  0.4092320000000  0.5270480000000  0.5398880000000 1.0
C      1  0.4596430000000  0.4458890000000  0.3973080000000 1.0
C      1  0.5748140000000  0.5745810000000  0.4168540000000 1.0
C      1  0.4019250000000  0.5494190000000  0.4305900000000 1.0
C      1  0.4917850000000  0.6124060000000  0.6013210000000 1.0
C      1  0.5826370000000  0.5083440000000  0.4758080000000 1.0
C      1  0.4362900000000  0.5860390000000  0.4387690000000 1.0
C      1  0.4753470000000  0.5277250000000  0.4698500000000 1.0
C      1  0.4882670000000  0.5315710000000  0.4118150000000 1.0
C      1  0.4386900000000  0.5593830000000  0.4773390000000 1.0
C      1  0.5131460000000  0.4909050000000  0.3983020000000 1.0
C      1  0.5058530000000  0.4372710000000  0.4985300000000 1.0
C      1  0.3705500000000  0.4814420000000  0.5204470000000 1.0
C      1  0.4627040000000  0.4303940000000  0.4841900000000 1.0
C      1  0.4600530000000  0.4740070000000  0.4012720000000 1.0
C      1  0.5611760000000  0.6054540000000  0.4849030000000 1.0
C      1  0.4898900000000  0.5270440000000  0.5201040000000 1.0
C      1  0.4590450000000  0.5671600000000  0.4326600000000 1.0
C      1  0.5653930000000  0.5721610000000  0.4424900000000 1.0
C      1  0.5126560000000  0.5646600000000  0.4871280000000 1.0
C      1  0.4593650000000  0.5503300000000  0.4587400000000 1.0
C      1  0.5236530000000  0.5481950000000  0.4448480000000 1.0
C      1  0.5941160000000  0.4496140000000  0.5900210000000 1.0
END
