TITL C-247201-3759-405 0.000355249397771274 125000 -388.589149540864 0 0 66 (C1) n - 1
REM
REM in /home/nfs/bkarasulu/CARBON/AIRSS/Generating-Clusters/LCBOP/Only-C1/SD-CG/FIRE-HFTN
REM
REM
REM
REM
REM
REM ./C.cell (11c1c37f851c82e70ff6c80c92926a4b)
REM AIRSS Version 0.9.1 bugfix July 2018 build 013d7b7c2542+ Fri, 06 Jul 2018 19:26:36 +0100
REM compiler GCC version 9.2.1 20190827 (Red Hat 9.2.1-1)
REM options -cpp -mtune=generic -march=x86-64 -g -O0 -fpre-include=/usr/include/finclude/math-vector-fortran.h
REM seed -399877306 -2055849747 310109665 1250582505 58054129 -1554773740 -410671486 -410085236 215313990 -195757746 -138561607 1811722210 1870356576 -402306217 41728691 -299937149 1091714119 1033184796 -1652016574 891526921 -1824872401 802653265 448174293 -2070792226 -737029232 -1218798388 -376839537 1144496461 -1290854228 -500345680 -454953589 -800523253 796291028
REM
CELL 1.54180   50.00000   50.00000   50.00000   90.00000   90.00000   90.00000
LATT -1
SFAC C  
C      1  0.5787120000000  0.4323070000000  0.4595740000000 1.0
C      1  0.4790150000000  0.5166900000000  0.4947740000000 1.0
C      1  0.5486070000000  0.5753270000000  0.5110650000000 1.0
C      1  0.5383820000000  0.4093360000000  0.4538530000000 1.0
C      1  0.5209450000000  0.5671880000000  0.5054810000000 1.0
C      1  0.4267570000000  0.4532000000000  0.5667050000000 1.0
C      1  0.5854370000000  0.5207770000000  0.4526220000000 1.0
C      1  0.4547580000000  0.5070040000000  0.5858900000000 1.0
C      1  0.4238210000000  0.5046290000000  0.4465420000000 1.0
C      1  0.5402790000000  0.4686240000000  0.5609510000000 1.0
C      1  0.5588650000000  0.4506700000000  0.4493960000000 1.0
C      1  0.5326420000000  0.4361740000000  0.4456660000000 1.0
C      1  0.5177710000000  0.4566960000000  0.5470450000000 1.0
C      1  0.5647750000000  0.4069900000000  0.4618660000000 1.0
C      1  0.4860130000000  0.4496610000000  0.4356850000000 1.0
C      1  0.5391580000000  0.5879780000000  0.4685270000000 1.0
C      1  0.4633600000000  0.5304430000000  0.4747360000000 1.0
C      1  0.5782860000000  0.4780420000000  0.5310550000000 1.0
C      1  0.4206450000000  0.5282520000000  0.5310160000000 1.0
C      1  0.4712560000000  0.5557380000000  0.4667200000000 1.0
C      1  0.5600270000000  0.5776610000000  0.5356280000000 1.0
C      1  0.5000780000000  0.4778030000000  0.5375460000000 1.0
C      1  0.5094990000000  0.5470870000000  0.5214290000000 1.0
C      1  0.5832060000000  0.5672260000000  0.4757080000000 1.0
C      1  0.5147050000000  0.5755050000000  0.4778800000000 1.0
C      1  0.4990730000000  0.5492130000000  0.6240910000000 1.0
C      1  0.4766980000000  0.4737150000000  0.5223020000000 1.0
C      1  0.5315890000000  0.4955650000000  0.5672170000000 1.0
C      1  0.4967860000000  0.5645570000000  0.4592430000000 1.0
C      1  0.4443430000000  0.4405360000000  0.4670700000000 1.0
C      1  0.4606920000000  0.5559500000000  0.5337890000000 1.0
C      1  0.4505880000000  0.4236490000000  0.4888520000000 1.0
C      1  0.4334470000000  0.4603950000000  0.5412810000000 1.0
C      1  0.4328670000000  0.5535980000000  0.5304670000000 1.0
C      1  0.4622880000000  0.4423130000000  0.4454160000000 1.0
C      1  0.5479910000000  0.5138250000000  0.5132840000000 1.0
C      1  0.4448130000000  0.5113690000000  0.4645810000000 1.0
C      1  0.4143320000000  0.4788470000000  0.4505130000000 1.0
C      1  0.5545700000000  0.4779330000000  0.4419300000000 1.0
C      1  0.5106920000000  0.5052540000000  0.5473890000000 1.0
C      1  0.5614720000000  0.5814930000000  0.4856650000000 1.0
C      1  0.5067500000000  0.5535000000000  0.4353530000000 1.0
C      1  0.5239690000000  0.5220170000000  0.5250120000000 1.0
C      1  0.4863040000000  0.5461330000000  0.5385930000000 1.0
C      1  0.4279150000000  0.4647680000000  0.4736800000000 1.0
C      1  0.4581450000000  0.4529410000000  0.5290640000000 1.0
C      1  0.4128910000000  0.5028440000000  0.5289770000000 1.0
C      1  0.5727130000000  0.4987130000000  0.4450210000000 1.0
C      1  0.4880640000000  0.5361680000000  0.6043990000000 1.0
C      1  0.5269770000000  0.4805410000000  0.4328080000000 1.0
C      1  0.4111450000000  0.4642690000000  0.4984860000000 1.0
C      1  0.5142970000000  0.4299490000000  0.5435630000000 1.0
C      1  0.5168380000000  0.5044050000000  0.4229470000000 1.0
C      1  0.5902430000000  0.5445930000000  0.4634820000000 1.0
C      1  0.4701990000000  0.4899910000000  0.5002460000000 1.0
C      1  0.5123570000000  0.5305930000000  0.4229950000000 1.0
C      1  0.4176510000000  0.5760050000000  0.5265650000000 1.0
C      1  0.5132690000000  0.4551280000000  0.4365070000000 1.0
C      1  0.4896360000000  0.5244370000000  0.5575110000000 1.0
C      1  0.6045470000000  0.4375230000000  0.4657810000000 1.0
C      1  0.5665130000000  0.4650810000000  0.5515870000000 1.0
C      1  0.5694740000000  0.4979880000000  0.5153330000000 1.0
C      1  0.4771680000000  0.5223190000000  0.5826790000000 1.0
C      1  0.4492890000000  0.4864560000000  0.4807170000000 1.0
C      1  0.4583870000000  0.4290820000000  0.5140150000000 1.0
C      1  0.4160210000000  0.4753370000000  0.5242270000000 1.0
END
