TITL C-247200-3482-606 4219.71724523859 125000 -1201.64013919398 0 0 198 (C1) n - 1
REM
REM in /home/nfs/bkarasulu/CARBON/AIRSS/Generating-Clusters/LCBOP/Only-C1/SD-CG/FIRE-HFTN
REM
REM
REM
REM
REM
REM ./C.cell (11c1c37f851c82e70ff6c80c92926a4b)
REM AIRSS Version 0.9.1 bugfix July 2018 build 013d7b7c2542+ Fri, 06 Jul 2018 19:26:36 +0100
REM compiler GCC version 9.2.1 20190827 (Red Hat 9.2.1-1)
REM options -cpp -mtune=generic -march=x86-64 -g -O0 -fpre-include=/usr/include/finclude/math-vector-fortran.h
REM seed 502433819 1411030202 160820531 2122505580 1421771057 -610773492 700078751 -356248258 1354079768 1971608740 2083332207 916729985 1833476121 -1121925162 700929186 1179287918 -1110638514 1999192759 -742684548 1427230541 -1218115501 635623516 -1896153360 1878395298 -1293423881 790606785 -987088528 1676846002 -1705529611 1524992676 950356655 -1360355255 -344023415
REM
CELL 1.54180   50.00000   50.00000   50.00000   90.00000   90.00000   90.00000
LATT -1
SFAC C  
C      1  0.4475440000000  0.4116010000000  0.4292070000000 1.0
C      1  0.4118940000000  0.5670360000000  0.5439670000000 1.0
C      1  0.6048540000000  0.4863430000000  0.5139480000000 1.0
C      1  0.5730250000000  0.4563770000000  0.4597700000000 1.0
C      1  0.4766230000000  0.4436260000000  0.5171510000000 1.0
C      1  0.5048370000000  0.3928310000000  0.4229480000000 1.0
C      1  0.3965380000000  0.4390790000000  0.4877640000000 1.0
C      1  0.5019870000000  0.6200150000000  0.5269180000000 1.0
C      1  0.5325350000000  0.4788570000000  0.5509680000000 1.0
C      1  0.6031650000000  0.5369130000000  0.5254100000000 1.0
C      1  0.5361150000000  0.4017180000000  0.4572840000000 1.0
C      1  0.4308550000000  0.4870440000000  0.4093620000000 1.0
C      1  0.4424990000000  0.4460800000000  0.4808370000000 1.0
C      1  0.6012690000000  0.4969790000000  0.4549090000000 1.0
C      1  0.5280630000000  0.4963820000000  0.3896110000000 1.0
C      1  0.4104140000000  0.5150940000000  0.4590040000000 1.0
C      1  0.3834350000000  0.4643980000000  0.4956800000000 1.0
C      1  0.4763240000000  0.5367900000000  0.6091030000000 1.0
C      1  0.5401210000000  0.6044570000000  0.5783830000000 1.0
C      1  0.5016630000000  0.5345960000000  0.3876180000000 1.0
C      1  0.4584540000000  0.5737370000000  0.4978790000000 1.0
C      1  0.5617570000000  0.6120520000000  0.5310440000000 1.0
C      1  0.5128890000000  0.6101200000000  0.5739660000000 1.0
C      1  0.5683060000000  0.5420930000000  0.4450050000000 1.0
C      1  0.4736750000000  0.3964520000000  0.4315160000000 1.0
C      1  0.4573540000000  0.5222940000000  0.3881620000000 1.0
C      1  0.4355570000000  0.6010260000000  0.4675160000000 1.0
C      1  0.4137250000000  0.4071770000000  0.5307420000000 1.0
C      1  0.4766760000000  0.3946950000000  0.4618800000000 1.0
C      1  0.5372880000000  0.6139870000000  0.4876860000000 1.0
C      1  0.4277560000000  0.4844830000000  0.5103830000000 1.0
C      1  0.5100600000000  0.3790010000000  0.5285980000000 1.0
C      1  0.4174180000000  0.5526200000000  0.5908640000000 1.0
C      1  0.5813960000000  0.5834900000000  0.4967380000000 1.0
C      1  0.5969200000000  0.4715740000000  0.4683770000000 1.0
C      1  0.5039110000000  0.5070400000000  0.3801290000000 1.0
C      1  0.4629340000000  0.3918870000000  0.5337880000000 1.0
C      1  0.4956200000000  0.4346350000000  0.4462740000000 1.0
C      1  0.5350490000000  0.5008700000000  0.5681950000000 1.0
C      1  0.4870350000000  0.4380470000000  0.4917310000000 1.0
C      1  0.6081090000000  0.5073070000000  0.5348870000000 1.0
C      1  0.4536250000000  0.5777510000000  0.5246340000000 1.0
C      1  0.5564670000000  0.4057410000000  0.4381980000000 1.0
C      1  0.5574150000000  0.6112490000000  0.5572900000000 1.0
C      1  0.4384410000000  0.4382200000000  0.4191600000000 1.0
C      1  0.5367080000000  0.6162450000000  0.4586120000000 1.0
C      1  0.5793360000000  0.5217390000000  0.5707980000000 1.0
C      1  0.4531090000000  0.4883060000000  0.4564080000000 1.0
C      1  0.4226840000000  0.5157860000000  0.5425770000000 1.0
C      1  0.5499610000000  0.4498980000000  0.4771080000000 1.0
C      1  0.4401580000000  0.5026010000000  0.5601600000000 1.0
C      1  0.4332610000000  0.5448110000000  0.4293920000000 1.0
C      1  0.5511720000000  0.5428350000000  0.4900890000000 1.0
C      1  0.4865150000000  0.4642720000000  0.4795540000000 1.0
C      1  0.5261140000000  0.4934220000000  0.4210900000000 1.0
C      1  0.4977290000000  0.3775280000000  0.4726560000000 1.0
C      1  0.5528190000000  0.5213660000000  0.5611010000000 1.0
C      1  0.3790610000000  0.5381570000000  0.5117420000000 1.0
C      1  0.5541930000000  0.5658740000000  0.6128480000000 1.0
C      1  0.4953340000000  0.3745590000000  0.5012280000000 1.0
C      1  0.4097640000000  0.5675960000000  0.4914630000000 1.0
C      1  0.4292280000000  0.4081220000000  0.4538170000000 1.0
C      1  0.4292120000000  0.5118050000000  0.5155210000000 1.0
C      1  0.5958540000000  0.5149890000000  0.4062790000000 1.0
C      1  0.5764730000000  0.4837500000000  0.5155680000000 1.0
C      1  0.5294350000000  0.5598870000000  0.4816850000000 1.0
C      1  0.5749330000000  0.5360210000000  0.4720030000000 1.0
C      1  0.5558850000000  0.4693500000000  0.5968260000000 1.0
C      1  0.4781050000000  0.6103730000000  0.4542450000000 1.0
C      1  0.5669640000000  0.4599810000000  0.4317190000000 1.0
C      1  0.5023600000000  0.5357930000000  0.4164570000000 1.0
C      1  0.4377400000000  0.5174730000000  0.4075920000000 1.0
C      1  0.5308620000000  0.5591980000000  0.5430110000000 1.0
C      1  0.5220140000000  0.4322570000000  0.5905750000000 1.0
C      1  0.6240240000000  0.5329410000000  0.4775040000000 1.0
C      1  0.4343910000000  0.5777690000000  0.4838180000000 1.0
C      1  0.5885980000000  0.4459060000000  0.5654820000000 1.0
C      1  0.5143850000000  0.5095810000000  0.5071660000000 1.0
C      1  0.5494070000000  0.4951520000000  0.4775360000000 1.0
C      1  0.4169830000000  0.4497420000000  0.4374360000000 1.0
C      1  0.5828030000000  0.4097840000000  0.5374300000000 1.0
C      1  0.4771820000000  0.5029450000000  0.4485790000000 1.0
C      1  0.5688820000000  0.4602330000000  0.5272580000000 1.0
C      1  0.4797350000000  0.4936980000000  0.3866270000000 1.0
C      1  0.4789650000000  0.5494380000000  0.3824290000000 1.0
C      1  0.5262040000000  0.5618470000000  0.4540160000000 1.0
C      1  0.4930650000000  0.6120660000000  0.5540330000000 1.0
C      1  0.4754260000000  0.4862610000000  0.6152890000000 1.0
C      1  0.4473850000000  0.4391660000000  0.5172420000000 1.0
C      1  0.4566210000000  0.5652210000000  0.4338010000000 1.0
C      1  0.5241720000000  0.4425480000000  0.4108940000000 1.0
C      1  0.4795580000000  0.5127170000000  0.5358320000000 1.0
C      1  0.5316850000000  0.4139250000000  0.4125860000000 1.0
C      1  0.4850150000000  0.5553830000000  0.4307070000000 1.0
C      1  0.5417090000000  0.5432480000000  0.4389440000000 1.0
C      1  0.4589300000000  0.4664740000000  0.4725710000000 1.0
C      1  0.4767120000000  0.4674730000000  0.4015550000000 1.0
C      1  0.3732660000000  0.5420270000000  0.4834350000000 1.0
C      1  0.3914110000000  0.5151670000000  0.5780890000000 1.0
C      1  0.5488910000000  0.5884670000000  0.5996650000000 1.0
C      1  0.4314050000000  0.5081920000000  0.6101570000000 1.0
C      1  0.4954660000000  0.4477140000000  0.4181970000000 1.0
C      1  0.5666830000000  0.4267300000000  0.5757820000000 1.0
C      1  0.4897890000000  0.6067520000000  0.4801460000000 1.0
C      1  0.4563730000000  0.4645440000000  0.6046000000000 1.0
C      1  0.5506660000000  0.5396380000000  0.6173390000000 1.0
C      1  0.5997630000000  0.4952680000000  0.4260160000000 1.0
C      1  0.5129100000000  0.5923960000000  0.4187720000000 1.0
C      1  0.4734760000000  0.5287120000000  0.5138670000000 1.0
C      1  0.4355190000000  0.6228230000000  0.4871800000000 1.0
C      1  0.5301840000000  0.4369060000000  0.5221780000000 1.0
C      1  0.5933340000000  0.5611000000000  0.5140280000000 1.0
C      1  0.5611340000000  0.4045280000000  0.5555740000000 1.0
C      1  0.3949500000000  0.5556050000000  0.4693300000000 1.0
C      1  0.4862730000000  0.4882250000000  0.5730800000000 1.0
C      1  0.4270600000000  0.4811280000000  0.5734230000000 1.0
C      1  0.5085560000000  0.5681630000000  0.4991080000000 1.0
C      1  0.5448380000000  0.5355860000000  0.5386780000000 1.0
C      1  0.5890590000000  0.4391440000000  0.5342800000000 1.0
C      1  0.4148410000000  0.4776490000000  0.4322820000000 1.0
C      1  0.3770420000000  0.4871950000000  0.5100650000000 1.0
C      1  0.5387600000000  0.3851500000000  0.5338540000000 1.0
C      1  0.4000070000000  0.5593720000000  0.5184280000000 1.0
C      1  0.5641730000000  0.5986030000000  0.4258360000000 1.0
C      1  0.4114330000000  0.5254930000000  0.5968270000000 1.0
C      1  0.5132270000000  0.5698510000000  0.5264610000000 1.0
C      1  0.6096340000000  0.4647270000000  0.4934640000000 1.0
C      1  0.4804740000000  0.4221690000000  0.4687600000000 1.0
C      1  0.4275630000000  0.5683470000000  0.5690470000000 1.0
C      1  0.6030300000000  0.4369960000000  0.5010960000000 1.0
C      1  0.4629540000000  0.4480660000000  0.5793070000000 1.0
C      1  0.4478620000000  0.4276750000000  0.5655400000000 1.0
C      1  0.4874270000000  0.3836730000000  0.5481190000000 1.0
C      1  0.4667900000000  0.3782340000000  0.5088530000000 1.0
C      1  0.4554300000000  0.5783110000000  0.5748350000000 1.0
C      1  0.5038870000000  0.5329210000000  0.6152770000000 1.0
C      1  0.4601240000000  0.5131320000000  0.6157610000000 1.0
C      1  0.4692870000000  0.5602970000000  0.5933210000000 1.0
C      1  0.5222380000000  0.4271010000000  0.4554300000000 1.0
C      1  0.5891780000000  0.4700300000000  0.4175970000000 1.0
C      1  0.4112310000000  0.5417830000000  0.4493770000000 1.0
C      1  0.4684130000000  0.5067000000000  0.5604330000000 1.0
C      1  0.5309040000000  0.4943240000000  0.5971630000000 1.0
C      1  0.4254890000000  0.4932980000000  0.4530340000000 1.0
C      1  0.4484850000000  0.4622990000000  0.4050190000000 1.0
C      1  0.3998330000000  0.4196560000000  0.5090540000000 1.0
C      1  0.5015980000000  0.4884220000000  0.4418280000000 1.0
C      1  0.4878270000000  0.3755350000000  0.5741740000000 1.0
C      1  0.4813340000000  0.4626960000000  0.5617790000000 1.0
C      1  0.4790770000000  0.5242860000000  0.4673270000000 1.0
C      1  0.4919840000000  0.5812830000000  0.3926250000000 1.0
C      1  0.4182290000000  0.4356630000000  0.4652000000000 1.0
C      1  0.5899770000000  0.5869460000000  0.4694940000000 1.0
C      1  0.4316160000000  0.4621740000000  0.5249080000000 1.0
C      1  0.4874270000000  0.4644440000000  0.5334130000000 1.0
C      1  0.5945900000000  0.4987770000000  0.5618030000000 1.0
C      1  0.5179340000000  0.3808860000000  0.4525690000000 1.0
C      1  0.3789860000000  0.5124980000000  0.5252360000000 1.0
C      1  0.5599890000000  0.6029240000000  0.5042560000000 1.0
C      1  0.5484240000000  0.4416450000000  0.5928900000000 1.0
C      1  0.5369040000000  0.6062670000000  0.4307770000000 1.0
C      1  0.5877570000000  0.4162870000000  0.4830610000000 1.0
C      1  0.5425420000000  0.5230480000000  0.5118610000000 1.0
C      1  0.5821120000000  0.4102950000000  0.4530440000000 1.0
C      1  0.6001460000000  0.5213360000000  0.4704580000000 1.0
C      1  0.5300720000000  0.5210450000000  0.6129760000000 1.0
C      1  0.4409720000000  0.6225610000000  0.5143920000000 1.0
C      1  0.5423030000000  0.4590410000000  0.5344060000000 1.0
C      1  0.4471880000000  0.5283180000000  0.5026510000000 1.0
C      1  0.3947350000000  0.5137660000000  0.5496020000000 1.0
C      1  0.5338850000000  0.4727350000000  0.4741580000000 1.0
C      1  0.4993500000000  0.4874500000000  0.5983670000000 1.0
C      1  0.5836950000000  0.5927020000000  0.4438520000000 1.0
C      1  0.5846860000000  0.4733350000000  0.5752460000000 1.0
C      1  0.5625210000000  0.4083120000000  0.4964690000000 1.0
C      1  0.4427310000000  0.4152010000000  0.5367830000000 1.0
C      1  0.5544510000000  0.3850750000000  0.5100480000000 1.0
C      1  0.4546410000000  0.5943620000000  0.4459770000000 1.0
C      1  0.5444210000000  0.4305490000000  0.4975960000000 1.0
C      1  0.5770180000000  0.5150740000000  0.3868780000000 1.0
C      1  0.5919570000000  0.5422350000000  0.5835750000000 1.0
C      1  0.5535020000000  0.5040040000000  0.3799980000000 1.0
C      1  0.4503820000000  0.6042670000000  0.5344840000000 1.0
C      1  0.4975200000000  0.4918110000000  0.5252710000000 1.0
C      1  0.4847460000000  0.5800160000000  0.4897800000000 1.0
C      1  0.4015480000000  0.3882190000000  0.5462930000000 1.0
C      1  0.5099800000000  0.6178980000000  0.4987880000000 1.0
C      1  0.5052730000000  0.5737540000000  0.4394990000000 1.0
C      1  0.4937250000000  0.5241010000000  0.4923010000000 1.0
C      1  0.5106610000000  0.4235640000000  0.5677400000000 1.0
C      1  0.4659210000000  0.6020940000000  0.5588990000000 1.0
C      1  0.4526180000000  0.5331090000000  0.4752550000000 1.0
C      1  0.5138810000000  0.4237900000000  0.5409350000000 1.0
C      1  0.4311300000000  0.4795310000000  0.6014510000000 1.0
C      1  0.5407320000000  0.4643830000000  0.4218350000000 1.0
C      1  0.5595110000000  0.5007170000000  0.5031530000000 1.0
C      1  0.5080580000000  0.4744420000000  0.4656090000000 1.0
C      1  0.5265890000000  0.5239760000000  0.4265180000000 1.0
END
