TITL C-247199-3331-112 -1.2195916594206e-06 125000 -617.637474477026 0 0 102 (C1) n - 1
REM
REM in /home/nfs/bkarasulu/CARBON/AIRSS/Generating-Clusters/LCBOP/Only-C1/SD-CG/FIRE-HFTN
REM
REM
REM
REM
REM
REM ./C.cell (11c1c37f851c82e70ff6c80c92926a4b)
REM AIRSS Version 0.9.1 bugfix July 2018 build 013d7b7c2542+ Fri, 06 Jul 2018 19:26:36 +0100
REM compiler GCC version 9.2.1 20190827 (Red Hat 9.2.1-1)
REM options -cpp -mtune=generic -march=x86-64 -g -O0 -fpre-include=/usr/include/finclude/math-vector-fortran.h
REM seed 1106047510 -70429187 -927046529 -783440976 1034896100 1350579855 1830943137 53041471 -1781323258 878776149 260970971 1445580340 -155202939 339620170 -2015861162 1059938601 1287450242 -1151702114 1453861586 540774849 330017347 1872994580 -1212605502 -1864903620 1231507913 -964286816 726480671 622782359 144634480 -2017221912 -470835520 -988267618 275694097
REM
CELL 1.54180   50.00000   50.00000   50.00000   90.00000   90.00000   90.00000
LATT -1
SFAC C  
C      1  0.5410190000000  0.5744650000000  0.5263640000000 1.0
C      1  0.4873720000000  0.4907770000000  0.3923260000000 1.0
C      1  0.5758060000000  0.5856560000000  0.4483650000000 1.0
C      1  0.4666140000000  0.4235500000000  0.4743330000000 1.0
C      1  0.5928710000000  0.5643520000000  0.4377370000000 1.0
C      1  0.5489760000000  0.4245270000000  0.4874600000000 1.0
C      1  0.5079020000000  0.5065470000000  0.4042240000000 1.0
C      1  0.4403660000000  0.4343960000000  0.4659560000000 1.0
C      1  0.5078060000000  0.5810220000000  0.4872900000000 1.0
C      1  0.4142470000000  0.5638220000000  0.5339560000000 1.0
C      1  0.5883650000000  0.4767080000000  0.4962310000000 1.0
C      1  0.5710300000000  0.5335780000000  0.5853360000000 1.0
C      1  0.5338270000000  0.4159350000000  0.5445060000000 1.0
C      1  0.5332900000000  0.5585900000000  0.5685710000000 1.0
C      1  0.5473000000000  0.4885600000000  0.5966550000000 1.0
C      1  0.4826080000000  0.5746790000000  0.4729470000000 1.0
C      1  0.4182380000000  0.5749510000000  0.5098860000000 1.0
C      1  0.5750240000000  0.5438660000000  0.5585930000000 1.0
C      1  0.4289320000000  0.5835620000000  0.4633370000000 1.0
C      1  0.4764100000000  0.5524930000000  0.5552690000000 1.0
C      1  0.4324600000000  0.4236900000000  0.5130320000000 1.0
C      1  0.4098370000000  0.5161110000000  0.5399740000000 1.0
C      1  0.5285750000000  0.5353360000000  0.4395040000000 1.0
C      1  0.5780720000000  0.4768130000000  0.5540630000000 1.0
C      1  0.4537410000000  0.5392670000000  0.5438180000000 1.0
C      1  0.4716730000000  0.4713740000000  0.4060900000000 1.0
C      1  0.5919980000000  0.5565930000000  0.4108240000000 1.0
C      1  0.5530430000000  0.4353530000000  0.4616680000000 1.0
C      1  0.4257370000000  0.5975540000000  0.4415830000000 1.0
C      1  0.4863020000000  0.5548690000000  0.4503510000000 1.0
C      1  0.4676500000000  0.4373070000000  0.5470890000000 1.0
C      1  0.4918930000000  0.5702740000000  0.5364540000000 1.0
C      1  0.3910860000000  0.5133790000000  0.4433560000000 1.0
C      1  0.5749960000000  0.5413520000000  0.3966660000000 1.0
C      1  0.4300790000000  0.5219560000000  0.4698930000000 1.0
C      1  0.5559080000000  0.4585750000000  0.5587190000000 1.0
C      1  0.5418040000000  0.4875840000000  0.5075760000000 1.0
C      1  0.5078400000000  0.4622320000000  0.5810270000000 1.0
C      1  0.5547360000000  0.5635880000000  0.5498090000000 1.0
C      1  0.5553640000000  0.5753130000000  0.4661660000000 1.0
C      1  0.4887580000000  0.4223820000000  0.5592420000000 1.0
C      1  0.4385830000000  0.4545660000000  0.4449860000000 1.0
C      1  0.3979680000000  0.4959860000000  0.5265920000000 1.0
C      1  0.4686290000000  0.5352680000000  0.4990810000000 1.0
C      1  0.4212330000000  0.4350370000000  0.4889130000000 1.0
C      1  0.5888940000000  0.5250150000000  0.5429510000000 1.0
C      1  0.4836850000000  0.4007290000000  0.4736680000000 1.0
C      1  0.5208270000000  0.4764250000000  0.5242830000000 1.0
C      1  0.4838240000000  0.4645890000000  0.4937530000000 1.0
C      1  0.4974180000000  0.4817760000000  0.4458790000000 1.0
C      1  0.4987250000000  0.3921840000000  0.5205430000000 1.0
C      1  0.4561570000000  0.4568930000000  0.4227160000000 1.0
C      1  0.4665610000000  0.5237330000000  0.5239040000000 1.0
C      1  0.5189730000000  0.5354360000000  0.5623510000000 1.0
C      1  0.5631490000000  0.5466000000000  0.4703010000000 1.0
C      1  0.4674620000000  0.5108630000000  0.6053880000000 1.0
C      1  0.5401350000000  0.5301210000000  0.4658830000000 1.0
C      1  0.6035540000000  0.4887450000000  0.5149840000000 1.0
C      1  0.4817830000000  0.5075790000000  0.5818580000000 1.0
C      1  0.4772170000000  0.4981890000000  0.5268650000000 1.0
C      1  0.5192340000000  0.4674410000000  0.4409690000000 1.0
C      1  0.5601760000000  0.5121730000000  0.5977010000000 1.0
C      1  0.5285400000000  0.5191580000000  0.5411680000000 1.0
C      1  0.5068180000000  0.4073040000000  0.5430540000000 1.0
C      1  0.5044650000000  0.3949360000000  0.4928140000000 1.0
C      1  0.5244180000000  0.4917210000000  0.5476780000000 1.0
C      1  0.5558700000000  0.4418810000000  0.5095040000000 1.0
C      1  0.5131920000000  0.5767510000000  0.5163380000000 1.0
C      1  0.5001290000000  0.4347770000000  0.5820580000000 1.0
C      1  0.4639850000000  0.4653610000000  0.5541600000000 1.0
C      1  0.5519800000000  0.5277860000000  0.3983830000000 1.0
C      1  0.5356120000000  0.5165570000000  0.5118730000000 1.0
C      1  0.4955340000000  0.4794810000000  0.5143780000000 1.0
C      1  0.4223910000000  0.4775570000000  0.4494190000000 1.0
C      1  0.4936130000000  0.5294250000000  0.4861410000000 1.0
C      1  0.4643650000000  0.4825930000000  0.4810210000000 1.0
C      1  0.4433370000000  0.4821590000000  0.5029800000000 1.0
C      1  0.5618570000000  0.4689770000000  0.5011890000000 1.0
C      1  0.5270950000000  0.5780570000000  0.4646340000000 1.0
C      1  0.4011160000000  0.4544510000000  0.4941190000000 1.0
C      1  0.4588150000000  0.4305790000000  0.5210190000000 1.0
C      1  0.4845640000000  0.4794620000000  0.5727150000000 1.0
C      1  0.3940430000000  0.4752810000000  0.5098010000000 1.0
C      1  0.5886550000000  0.5432790000000  0.4575700000000 1.0
C      1  0.5505750000000  0.4378700000000  0.5381890000000 1.0
C      1  0.4835880000000  0.5263920000000  0.4586390000000 1.0
C      1  0.5311150000000  0.4028670000000  0.4880750000000 1.0
C      1  0.5925000000000  0.4971020000000  0.5396590000000 1.0
C      1  0.5142870000000  0.5603670000000  0.4434240000000 1.0
C      1  0.4438860000000  0.5417850000000  0.4848610000000 1.0
C      1  0.4253620000000  0.5397000000000  0.5434660000000 1.0
C      1  0.5401510000000  0.4515830000000  0.4449040000000 1.0
C      1  0.4823220000000  0.4945690000000  0.3655700000000 1.0
C      1  0.4920600000000  0.5324500000000  0.5698350000000 1.0
C      1  0.5293140000000  0.5222750000000  0.4142540000000 1.0
C      1  0.4145590000000  0.5042890000000  0.4542140000000 1.0
C      1  0.4744360000000  0.4385250000000  0.4980250000000 1.0
C      1  0.4311380000000  0.5675230000000  0.4860740000000 1.0
C      1  0.5223910000000  0.5269580000000  0.4889190000000 1.0
C      1  0.4539150000000  0.4810710000000  0.5312090000000 1.0
C      1  0.5369190000000  0.4673790000000  0.5803450000000 1.0
C      1  0.4773440000000  0.4974740000000  0.4585030000000 1.0
END
