TITL C-247201-3759-585 -1.0262120451971e-06 125000 -1192.51709367696 0 0 193 (C1) n - 1
REM
REM in /home/nfs/bkarasulu/CARBON/AIRSS/Generating-Clusters/LCBOP/Only-C1/SD-CG/FIRE-HFTN
REM
REM
REM
REM
REM
REM ./C.cell (11c1c37f851c82e70ff6c80c92926a4b)
REM AIRSS Version 0.9.1 bugfix July 2018 build 013d7b7c2542+ Fri, 06 Jul 2018 19:26:36 +0100
REM compiler GCC version 9.2.1 20190827 (Red Hat 9.2.1-1)
REM options -cpp -mtune=generic -march=x86-64 -g -O0 -fpre-include=/usr/include/finclude/math-vector-fortran.h
REM seed 601786555 1743871917 -1747304104 1119111257 1129210975 -887417139 928019075 -508419564 781752764 -795843130 -328927469 -1028899232 -444162974 1771737778 1074633240 -1628866076 843903652 -1650459756 1276594385 1595111037 -1769007517 -974131147 769532495 868050158 486717298 1951287608 780778642 -331171994 -1945859433 1099950210 1327835270 -333681603 460243460
REM
CELL 1.54180   50.00000   50.00000   50.00000   90.00000   90.00000   90.00000
LATT -1
SFAC C  
C      1  0.5234290000000  0.4104020000000  0.4421260000000 1.0
C      1  0.5600610000000  0.5132780000000  0.5804610000000 1.0
C      1  0.3736280000000  0.5167320000000  0.4649950000000 1.0
C      1  0.4703580000000  0.5424830000000  0.5634600000000 1.0
C      1  0.5314440000000  0.5411470000000  0.4130380000000 1.0
C      1  0.5121780000000  0.3909010000000  0.5448070000000 1.0
C      1  0.4610570000000  0.5862740000000  0.5255130000000 1.0
C      1  0.4868620000000  0.5263580000000  0.4908000000000 1.0
C      1  0.6407850000000  0.5063120000000  0.5305390000000 1.0
C      1  0.5039030000000  0.4092390000000  0.5903830000000 1.0
C      1  0.5111680000000  0.5701510000000  0.3793920000000 1.0
C      1  0.5183820000000  0.4515080000000  0.4144150000000 1.0
C      1  0.5187630000000  0.5120930000000  0.5312040000000 1.0
C      1  0.4218670000000  0.5350940000000  0.5844510000000 1.0
C      1  0.5194530000000  0.5346450000000  0.4401430000000 1.0
C      1  0.6318600000000  0.4820600000000  0.4305500000000 1.0
C      1  0.3786510000000  0.4966700000000  0.4842880000000 1.0
C      1  0.4889650000000  0.5523780000000  0.4743230000000 1.0
C      1  0.6157780000000  0.5470410000000  0.5293240000000 1.0
C      1  0.4743410000000  0.4997610000000  0.5318600000000 1.0
C      1  0.4439730000000  0.3886530000000  0.5121750000000 1.0
C      1  0.5282890000000  0.4234570000000  0.5917050000000 1.0
C      1  0.5226830000000  0.6393860000000  0.5252250000000 1.0
C      1  0.4626340000000  0.4801980000000  0.4224230000000 1.0
C      1  0.5306090000000  0.5895090000000  0.6135970000000 1.0
C      1  0.4130770000000  0.4810050000000  0.4357890000000 1.0
C      1  0.4034260000000  0.5468750000000  0.5388530000000 1.0
C      1  0.4452140000000  0.4908180000000  0.4684840000000 1.0
C      1  0.5129350000000  0.4829310000000  0.6352180000000 1.0
C      1  0.4103450000000  0.4362130000000  0.4597580000000 1.0
C      1  0.4825030000000  0.4565040000000  0.5531170000000 1.0
C      1  0.4558980000000  0.4768330000000  0.6001810000000 1.0
C      1  0.4016030000000  0.5350010000000  0.5645660000000 1.0
C      1  0.5115260000000  0.4561530000000  0.5411880000000 1.0
C      1  0.5111890000000  0.5170520000000  0.3920590000000 1.0
C      1  0.5486060000000  0.4226470000000  0.3977840000000 1.0
C      1  0.4376800000000  0.4121080000000  0.4968610000000 1.0
C      1  0.4851170000000  0.5229890000000  0.3827010000000 1.0
C      1  0.4709980000000  0.5438080000000  0.5339090000000 1.0
C      1  0.5040210000000  0.5002700000000  0.4837070000000 1.0
C      1  0.4213690000000  0.5886440000000  0.5640180000000 1.0
C      1  0.5831560000000  0.5278890000000  0.4179180000000 1.0
C      1  0.5350190000000  0.5960290000000  0.6399110000000 1.0
C      1  0.5606950000000  0.5280130000000  0.5331890000000 1.0
C      1  0.5543690000000  0.6071480000000  0.5427930000000 1.0
C      1  0.4336410000000  0.5806630000000  0.5193130000000 1.0
C      1  0.5138350000000  0.5673160000000  0.6080160000000 1.0
C      1  0.5623810000000  0.5323990000000  0.4665230000000 1.0
C      1  0.4932050000000  0.5270750000000  0.6293270000000 1.0
C      1  0.5087480000000  0.3864190000000  0.4396340000000 1.0
C      1  0.5844580000000  0.4748050000000  0.5935840000000 1.0
C      1  0.4393810000000  0.5679920000000  0.4234130000000 1.0
C      1  0.4135600000000  0.4242840000000  0.4857950000000 1.0
C      1  0.4679830000000  0.4370430000000  0.4544560000000 1.0
C      1  0.4098900000000  0.5479920000000  0.4898470000000 1.0
C      1  0.3963030000000  0.4249070000000  0.5629800000000 1.0
C      1  0.5514180000000  0.4464500000000  0.4616990000000 1.0
C      1  0.4334930000000  0.4514150000000  0.5482650000000 1.0
C      1  0.5630720000000  0.4559190000000  0.5917530000000 1.0
C      1  0.5360530000000  0.5422690000000  0.4666910000000 1.0
C      1  0.4468690000000  0.5969770000000  0.5698790000000 1.0
C      1  0.4911490000000  0.5434150000000  0.4472760000000 1.0
C      1  0.5794450000000  0.3752460000000  0.5413140000000 1.0
C      1  0.5962600000000  0.4744930000000  0.4897650000000 1.0
C      1  0.6221350000000  0.5230910000000  0.5436330000000 1.0
C      1  0.5915840000000  0.5085040000000  0.4365360000000 1.0
C      1  0.4637370000000  0.5932140000000  0.4716090000000 1.0
C      1  0.4267540000000  0.5661270000000  0.4485050000000 1.0
C      1  0.5101130000000  0.5884460000000  0.4225050000000 1.0
C      1  0.3942210000000  0.5259100000000  0.4479930000000 1.0
C      1  0.3843740000000  0.4516020000000  0.5235230000000 1.0
C      1  0.5587220000000  0.5303480000000  0.4043180000000 1.0
C      1  0.5732020000000  0.5730130000000  0.5150170000000 1.0
C      1  0.5204140000000  0.6041220000000  0.4443800000000 1.0
C      1  0.5391410000000  0.4014210000000  0.5456570000000 1.0
C      1  0.5910490000000  0.4115560000000  0.4897640000000 1.0
C      1  0.5186300000000  0.4703550000000  0.6104460000000 1.0
C      1  0.5224270000000  0.4974950000000  0.5077190000000 1.0
C      1  0.4577290000000  0.4141950000000  0.4453760000000 1.0
C      1  0.4856070000000  0.4764940000000  0.4786870000000 1.0
C      1  0.4656930000000  0.3837280000000  0.5301670000000 1.0
C      1  0.5748260000000  0.4866570000000  0.4753610000000 1.0
C      1  0.4640920000000  0.3984340000000  0.4230170000000 1.0
C      1  0.4993080000000  0.5060350000000  0.5749350000000 1.0
C      1  0.5885490000000  0.4595780000000  0.4277830000000 1.0
C      1  0.4774010000000  0.4665180000000  0.5812690000000 1.0
C      1  0.4874710000000  0.4570940000000  0.4576380000000 1.0
C      1  0.4896090000000  0.4995390000000  0.6354770000000 1.0
C      1  0.5402250000000  0.6181060000000  0.5186520000000 1.0
C      1  0.5324980000000  0.4223530000000  0.4694880000000 1.0
C      1  0.4300880000000  0.4885790000000  0.5950780000000 1.0
C      1  0.5086350000000  0.5642660000000  0.5127960000000 1.0
C      1  0.5353130000000  0.4676090000000  0.5563820000000 1.0
C      1  0.4612200000000  0.4807420000000  0.3737970000000 1.0
C      1  0.4829190000000  0.5882580000000  0.4103710000000 1.0
C      1  0.5304170000000  0.4950910000000  0.3875670000000 1.0
C      1  0.3922060000000  0.5025520000000  0.5098230000000 1.0
C      1  0.4260400000000  0.5720170000000  0.4942390000000 1.0
C      1  0.5604460000000  0.5418960000000  0.5789640000000 1.0
C      1  0.4907120000000  0.5322210000000  0.5816510000000 1.0
C      1  0.4459300000000  0.5468020000000  0.5764810000000 1.0
C      1  0.5574530000000  0.4494540000000  0.3909680000000 1.0
C      1  0.5417650000000  0.4938830000000  0.5683660000000 1.0
C      1  0.5466570000000  0.3997660000000  0.4836440000000 1.0
C      1  0.5372590000000  0.4488200000000  0.6057780000000 1.0
C      1  0.5788050000000  0.5068910000000  0.5378360000000 1.0
C      1  0.5550080000000  0.5097390000000  0.3846180000000 1.0
C      1  0.5185850000000  0.5622250000000  0.5404420000000 1.0
C      1  0.5782290000000  0.4426270000000  0.4498260000000 1.0
C      1  0.3939760000000  0.4339480000000  0.5037200000000 1.0
C      1  0.4245460000000  0.5149290000000  0.6039010000000 1.0
C      1  0.3985190000000  0.4614070000000  0.4519900000000 1.0
C      1  0.5351600000000  0.4722340000000  0.5022960000000 1.0
C      1  0.5083250000000  0.6375510000000  0.5481200000000 1.0
C      1  0.5128560000000  0.4307610000000  0.4928530000000 1.0
C      1  0.5254470000000  0.5690850000000  0.4048680000000 1.0
C      1  0.5870810000000  0.5010660000000  0.5822500000000 1.0
C      1  0.4570990000000  0.4555590000000  0.5081840000000 1.0
C      1  0.4715470000000  0.5236430000000  0.4419870000000 1.0
C      1  0.3968840000000  0.4784170000000  0.5269570000000 1.0
C      1  0.5144080000000  0.5984880000000  0.4725140000000 1.0
C      1  0.4155690000000  0.4737800000000  0.5486760000000 1.0
C      1  0.5364230000000  0.6257290000000  0.4385870000000 1.0
C      1  0.4409060000000  0.4789350000000  0.4418620000000 1.0
C      1  0.4586630000000  0.4552110000000  0.5364570000000 1.0
C      1  0.5014710000000  0.4812370000000  0.5896690000000 1.0
C      1  0.4590710000000  0.4766540000000  0.4892780000000 1.0
C      1  0.4854110000000  0.3806290000000  0.4273980000000 1.0
C      1  0.6002110000000  0.5107060000000  0.5574370000000 1.0
C      1  0.5282820000000  0.4242480000000  0.4175990000000 1.0
C      1  0.3805570000000  0.4716620000000  0.4713950000000 1.0
C      1  0.5985200000000  0.5606680000000  0.5136690000000 1.0
C      1  0.4704290000000  0.5221760000000  0.5151820000000 1.0
C      1  0.5837180000000  0.4548370000000  0.3997170000000 1.0
C      1  0.5550100000000  0.4473790000000  0.5643860000000 1.0
C      1  0.4381320000000  0.5816290000000  0.4703060000000 1.0
C      1  0.4090560000000  0.5465200000000  0.4601470000000 1.0
C      1  0.4942750000000  0.3797620000000  0.5246280000000 1.0
C      1  0.4665660000000  0.4858630000000  0.6256470000000 1.0
C      1  0.4931400000000  0.3973710000000  0.5670780000000 1.0
C      1  0.5759550000000  0.4799620000000  0.5312070000000 1.0
C      1  0.4602990000000  0.4294170000000  0.4976290000000 1.0
C      1  0.5618650000000  0.3929060000000  0.5294470000000 1.0
C      1  0.4588880000000  0.4118680000000  0.3989250000000 1.0
C      1  0.4569270000000  0.5902190000000  0.4203960000000 1.0
C      1  0.5515940000000  0.5770790000000  0.4965950000000 1.0
C      1  0.4567630000000  0.4381770000000  0.3942850000000 1.0
C      1  0.4690080000000  0.5919720000000  0.5527610000000 1.0
C      1  0.4658540000000  0.3944530000000  0.5576900000000 1.0
C      1  0.5438210000000  0.4209430000000  0.5662410000000 1.0
C      1  0.5513170000000  0.6153940000000  0.5699650000000 1.0
C      1  0.4835890000000  0.4999540000000  0.4297150000000 1.0
C      1  0.4982630000000  0.5880570000000  0.5566710000000 1.0
C      1  0.5364120000000  0.6022120000000  0.4942170000000 1.0
C      1  0.6045130000000  0.4834660000000  0.4318600000000 1.0
C      1  0.5676920000000  0.4007620000000  0.5022860000000 1.0
C      1  0.5202500000000  0.4502300000000  0.5130820000000 1.0
C      1  0.5785750000000  0.5106100000000  0.4614220000000 1.0
C      1  0.4070380000000  0.5091300000000  0.4279950000000 1.0
C      1  0.5334670000000  0.5358240000000  0.5383700000000 1.0
C      1  0.6405410000000  0.4924710000000  0.5074700000000 1.0
C      1  0.5942150000000  0.4252490000000  0.4662580000000 1.0
C      1  0.4013830000000  0.5317610000000  0.5132120000000 1.0
C      1  0.4244660000000  0.5234920000000  0.4093290000000 1.0
C      1  0.4979350000000  0.5023620000000  0.5470500000000 1.0
C      1  0.4987320000000  0.5434850000000  0.6066820000000 1.0
C      1  0.5131730000000  0.5039210000000  0.4375050000000 1.0
C      1  0.5665510000000  0.5814000000000  0.5415390000000 1.0
C      1  0.5063590000000  0.6146840000000  0.5624380000000 1.0
C      1  0.5472190000000  0.4738330000000  0.4742100000000 1.0
C      1  0.4599940000000  0.4658530000000  0.3975010000000 1.0
C      1  0.4831940000000  0.5708080000000  0.3866030000000 1.0
C      1  0.5667400000000  0.5640620000000  0.5644740000000 1.0
C      1  0.4517680000000  0.5178650000000  0.4617050000000 1.0
C      1  0.6044310000000  0.4547730000000  0.3817960000000 1.0
C      1  0.5253330000000  0.4927020000000  0.4612990000000 1.0
C      1  0.4867540000000  0.4207290000000  0.4938510000000 1.0
C      1  0.3778030000000  0.4378900000000  0.5478060000000 1.0
C      1  0.4120880000000  0.4815040000000  0.5750460000000 1.0
C      1  0.4433700000000  0.5451950000000  0.4054610000000 1.0
C      1  0.5338060000000  0.4674390000000  0.3953130000000 1.0
C      1  0.4725410000000  0.5037450000000  0.3666810000000 1.0
C      1  0.4156710000000  0.5736210000000  0.5403130000000 1.0
C      1  0.4431060000000  0.4074440000000  0.5673350000000 1.0
C      1  0.5431310000000  0.6053690000000  0.5936740000000 1.0
C      1  0.5874880000000  0.4632560000000  0.5139330000000 1.0
C      1  0.4688770000000  0.5458940000000  0.3897870000000 1.0
C      1  0.4896310000000  0.5820260000000  0.4754830000000 1.0
C      1  0.5039680000000  0.4600880000000  0.4358950000000 1.0
C      1  0.6233780000000  0.4820240000000  0.4896140000000 1.0
C      1  0.4245110000000  0.4273300000000  0.5610630000000 1.0
C      1  0.4801240000000  0.5664430000000  0.5180140000000 1.0
C      1  0.5301610000000  0.5574490000000  0.4913320000000 1.0
END
