TITL C-247200-3482-677 0.19617283729745 125000 -233.399914055835 0 0 40 (C1) n - 1
REM
REM in /home/nfs/bkarasulu/CARBON/AIRSS/Generating-Clusters/LCBOP/Only-C1/SD-CG/FIRE-HFTN
REM
REM
REM
REM
REM
REM ./C.cell (11c1c37f851c82e70ff6c80c92926a4b)
REM AIRSS Version 0.9.1 bugfix July 2018 build 013d7b7c2542+ Fri, 06 Jul 2018 19:26:36 +0100
REM compiler GCC version 9.2.1 20190827 (Red Hat 9.2.1-1)
REM options -cpp -mtune=generic -march=x86-64 -g -O0 -fpre-include=/usr/include/finclude/math-vector-fortran.h
REM seed -2069608398 86209225 -800522472 -1332132117 -1396955751 1206287276 -1818661675 -1931643550 -660182978 -854567041 1391356226 -97676971 279818947 1767992038 -960244763 -1533133431 -1191934011 -1526329475 -445317214 -1015452205 -1949890722 44304186 455379328 1676842159 1059709037 -114106096 -2082387295 -523302901 758368125 266850848 1417659508 1150648884 1235702024
REM
CELL 1.54180   50.00000   50.00000   50.00000   90.00000   90.00000   90.00000
LATT -1
SFAC C  
C      1  0.4470040000000  0.5171670000000  0.4881900000000 1.0
C      1  0.4433150000000  0.4899030000000  0.4961950000000 1.0
C      1  0.5339050000000  0.5638270000000  0.4636680000000 1.0
C      1  0.5094150000000  0.4797520000000  0.4374630000000 1.0
C      1  0.4462700000000  0.4616070000000  0.4311510000000 1.0
C      1  0.5432050000000  0.5884960000000  0.4562350000000 1.0
C      1  0.5458380000000  0.5078520000000  0.5375150000000 1.0
C      1  0.4837540000000  0.4540450000000  0.5782520000000 1.0
C      1  0.5157230000000  0.5244950000000  0.4967410000000 1.0
C      1  0.4816630000000  0.4634360000000  0.4934280000000 1.0
C      1  0.5327860000000  0.4633970000000  0.5176560000000 1.0
C      1  0.5621790000000  0.5205520000000  0.4804380000000 1.0
C      1  0.4857050000000  0.5576680000000  0.5354230000000 1.0
C      1  0.5524060000000  0.5434190000000  0.4703460000000 1.0
C      1  0.4730520000000  0.5515130000000  0.5108430000000 1.0
C      1  0.4568300000000  0.4700590000000  0.4793970000000 1.0
C      1  0.4750970000000  0.5775000000000  0.5511140000000 1.0
C      1  0.4878200000000  0.4826360000000  0.5127490000000 1.0
C      1  0.5573160000000  0.4945860000000  0.4901600000000 1.0
C      1  0.4776460000000  0.4459420000000  0.6027250000000 1.0
C      1  0.5456140000000  0.4748190000000  0.4725180000000 1.0
C      1  0.4719130000000  0.4783060000000  0.5362630000000 1.0
C      1  0.5154170000000  0.4570650000000  0.5396410000000 1.0
C      1  0.4453690000000  0.4839100000000  0.5253950000000 1.0
C      1  0.4966330000000  0.5038670000000  0.4306560000000 1.0
C      1  0.5013050000000  0.5056910000000  0.5070030000000 1.0
C      1  0.5059600000000  0.5591990000000  0.4645580000000 1.0
C      1  0.4659640000000  0.5385050000000  0.4865660000000 1.0
C      1  0.5026650000000  0.4530380000000  0.4773670000000 1.0
C      1  0.5365640000000  0.4794220000000  0.4460920000000 1.0
C      1  0.4929210000000  0.4602050000000  0.4503980000000 1.0
C      1  0.5300780000000  0.5277430000000  0.5464030000000 1.0
C      1  0.4636920000000  0.4639980000000  0.4518640000000 1.0
C      1  0.4899360000000  0.4627320000000  0.5526320000000 1.0
C      1  0.5286430000000  0.4570450000000  0.4885950000000 1.0
C      1  0.4832450000000  0.5241680000000  0.4419010000000 1.0
C      1  0.4831080000000  0.5423380000000  0.4634740000000 1.0
C      1  0.5089020000000  0.5441050000000  0.5444180000000 1.0
C      1  0.5495410000000  0.4880090000000  0.5177640000000 1.0
C      1  0.4716000000000  0.4379820000000  0.6268020000000 1.0
END
