TITL C-247198-3593-569 27533.2368123869 125000 -940.750465374957 0 0 154 (C1) n - 1
REM
REM in /home/nfs/bkarasulu/CARBON/AIRSS/Generating-Clusters/LCBOP/Only-C1/SD-CG/FIRE-HFTN
REM
REM
REM
REM
REM
REM ./C.cell (11c1c37f851c82e70ff6c80c92926a4b)
REM AIRSS Version 0.9.1 bugfix July 2018 build 013d7b7c2542+ Fri, 06 Jul 2018 19:26:36 +0100
REM compiler GCC version 9.2.1 20190827 (Red Hat 9.2.1-1)
REM options -cpp -mtune=generic -march=x86-64 -g -O0 -fpre-include=/usr/include/finclude/math-vector-fortran.h
REM seed 95716092 783568630 -1204599659 138361869 969799702 2078474431 1858086001 -709672448 -1618573610 -506148176 -549365705 -337746949 758256977 -1814746702 1365322553 -378466512 -1428414468 -59936378 -445816743 -1606253820 -1629764585 1342844595 -193669106 100131818 -1973426554 223797470 -817510028 -2075484518 -478132715 -1952551566 296165689 -1442936160 -1291596151
REM
CELL 1.54180   50.00000   50.00000   50.00000   90.00000   90.00000   90.00000
LATT -1
SFAC C  
C      1  0.5409720000000  0.4674780000000  0.4826150000000 1.0
C      1  0.5988150000000  0.6475190000000  0.4966290000000 1.0
C      1  0.4786210000000  0.5271500000000  0.3795090000000 1.0
C      1  0.4560980000000  0.5409480000000  0.5844650000000 1.0
C      1  0.5038310000000  0.4786860000000  0.4412820000000 1.0
C      1  0.5851430000000  0.4373280000000  0.5959840000000 1.0
C      1  0.5074210000000  0.4732310000000  0.3929330000000 1.0
C      1  0.5506790000000  0.4024320000000  0.4931810000000 1.0
C      1  0.5573150000000  0.4206690000000  0.4301450000000 1.0
C      1  0.4271360000000  0.5607140000000  0.5255290000000 1.0
C      1  0.5020100000000  0.4731690000000  0.6230440000000 1.0
C      1  0.4789120000000  0.4690680000000  0.3940150000000 1.0
C      1  0.5591490000000  0.4681370000000  0.4364240000000 1.0
C      1  0.4763180000000  0.5679610000000  0.5206750000000 1.0
C      1  0.4299350000000  0.4206260000000  0.4285290000000 1.0
C      1  0.5287980000000  0.4290800000000  0.4154320000000 1.0
C      1  0.4749270000000  0.4743110000000  0.6172450000000 1.0
C      1  0.6204830000000  0.5262450000000  0.5540490000000 1.0
C      1  0.5254340000000  0.4306690000000  0.4606950000000 1.0
C      1  0.5167320000000  0.5503770000000  0.3919090000000 1.0
C      1  0.4811990000000  0.4389550000000  0.5549490000000 1.0
C      1  0.4424740000000  0.5030920000000  0.4637030000000 1.0
C      1  0.5143880000000  0.5011960000000  0.4006620000000 1.0
C      1  0.5380020000000  0.4497450000000  0.5358920000000 1.0
C      1  0.4912630000000  0.4027070000000  0.4390540000000 1.0
C      1  0.4567260000000  0.4523450000000  0.6115000000000 1.0
C      1  0.4890150000000  0.4534310000000  0.4418420000000 1.0
C      1  0.5065190000000  0.4280500000000  0.4371110000000 1.0
C      1  0.4795230000000  0.4931520000000  0.5534250000000 1.0
C      1  0.5015650000000  0.5097600000000  0.5153530000000 1.0
C      1  0.4220440000000  0.4498980000000  0.5715750000000 1.0
C      1  0.5262290000000  0.4096480000000  0.4799970000000 1.0
C      1  0.4880370000000  0.5201000000000  0.4643990000000 1.0
C      1  0.4141990000000  0.4827990000000  0.4334160000000 1.0
C      1  0.5994370000000  0.5157740000000  0.4809620000000 1.0
C      1  0.5367770000000  0.5360700000000  0.4926260000000 1.0
C      1  0.4223070000000  0.5394040000000  0.5437980000000 1.0
C      1  0.4451890000000  0.4716630000000  0.4681340000000 1.0
C      1  0.4692610000000  0.4292130000000  0.5314730000000 1.0
C      1  0.4768140000000  0.3815430000000  0.5243500000000 1.0
C      1  0.4564360000000  0.4971480000000  0.5091060000000 1.0
C      1  0.3928590000000  0.4908060000000  0.4964320000000 1.0
C      1  0.4960150000000  0.5997790000000  0.4653900000000 1.0
C      1  0.5240730000000  0.6209910000000  0.5590470000000 1.0
C      1  0.5255630000000  0.3837500000000  0.5277970000000 1.0
C      1  0.5862270000000  0.5116750000000  0.5894530000000 1.0
C      1  0.4396860000000  0.5154630000000  0.4913590000000 1.0
C      1  0.6010980000000  0.4174660000000  0.5904580000000 1.0
C      1  0.5592170000000  0.5045770000000  0.5919620000000 1.0
C      1  0.5502740000000  0.5611210000000  0.4226610000000 1.0
C      1  0.4434380000000  0.5464330000000  0.4850790000000 1.0
C      1  0.5059420000000  0.5249850000000  0.3864450000000 1.0
C      1  0.5492280000000  0.5307950000000  0.4672650000000 1.0
C      1  0.4539490000000  0.5654010000000  0.4656430000000 1.0
C      1  0.5961810000000  0.5396710000000  0.4659630000000 1.0
C      1  0.4928330000000  0.5107630000000  0.5712790000000 1.0
C      1  0.4284660000000  0.5733870000000  0.4188770000000 1.0
C      1  0.3985460000000  0.5489430000000  0.4783000000000 1.0
C      1  0.5163360000000  0.6145250000000  0.5837740000000 1.0
C      1  0.6248690000000  0.6732810000000  0.5348980000000 1.0
C      1  0.4100120000000  0.4005740000000  0.4659710000000 1.0
C      1  0.4591180000000  0.4019860000000  0.5307690000000 1.0
C      1  0.5418800000000  0.4550960000000  0.4567880000000 1.0
C      1  0.4166200000000  0.5087500000000  0.4472000000000 1.0
C      1  0.5196540000000  0.5003560000000  0.4300040000000 1.0
C      1  0.5042370000000  0.3916980000000  0.4847890000000 1.0
C      1  0.6370940000000  0.6851250000000  0.5546450000000 1.0
C      1  0.5154400000000  0.4621750000000  0.4953430000000 1.0
C      1  0.4318040000000  0.4053620000000  0.5229780000000 1.0
C      1  0.3902970000000  0.4656330000000  0.5058630000000 1.0
C      1  0.4089080000000  0.4510640000000  0.5215300000000 1.0
C      1  0.4559140000000  0.4455490000000  0.5111000000000 1.0
C      1  0.4411270000000  0.5662740000000  0.4405330000000 1.0
C      1  0.4507240000000  0.5769200000000  0.5294730000000 1.0
C      1  0.5687620000000  0.4575970000000  0.6007450000000 1.0
C      1  0.5725520000000  0.5115740000000  0.5183540000000 1.0
C      1  0.5202480000000  0.5150880000000  0.5628490000000 1.0
C      1  0.4660620000000  0.5120120000000  0.4475380000000 1.0
C      1  0.5077920000000  0.5915390000000  0.5973110000000 1.0
C      1  0.4969260000000  0.5039280000000  0.4866200000000 1.0
C      1  0.5977910000000  0.5197060000000  0.5090270000000 1.0
C      1  0.5287760000000  0.4540980000000  0.3996490000000 1.0
C      1  0.4327960000000  0.5326150000000  0.5701020000000 1.0
C      1  0.5372830000000  0.5478710000000  0.5944950000000 1.0
C      1  0.4155010000000  0.4644400000000  0.4571760000000 1.0
C      1  0.4566840000000  0.4810230000000  0.4079990000000 1.0
C      1  0.4304560000000  0.4700860000000  0.4125470000000 1.0
C      1  0.5001390000000  0.5458500000000  0.4637360000000 1.0
C      1  0.5866450000000  0.4914560000000  0.4719090000000 1.0
C      1  0.4621570000000  0.4980320000000  0.6062420000000 1.0
C      1  0.4279210000000  0.4311220000000  0.5067530000000 1.0
C      1  0.5746960000000  0.4216040000000  0.4560960000000 1.0
C      1  0.3931670000000  0.4498080000000  0.4621960000000 1.0
C      1  0.4185730000000  0.5571800000000  0.4978490000000 1.0
C      1  0.4787630000000  0.4662220000000  0.5593150000000 1.0
C      1  0.5051910000000  0.5586120000000  0.4387930000000 1.0
C      1  0.5529970000000  0.4667310000000  0.4087870000000 1.0
C      1  0.5557150000000  0.5324650000000  0.4212340000000 1.0
C      1  0.5189600000000  0.5900520000000  0.5188630000000 1.0
C      1  0.5705210000000  0.5506260000000  0.4622540000000 1.0
C      1  0.5503420000000  0.5970440000000  0.4575700000000 1.0
C      1  0.4612790000000  0.5074300000000  0.4193950000000 1.0
C      1  0.4451000000000  0.4275960000000  0.4532500000000 1.0
C      1  0.6080940000000  0.5199670000000  0.5768000000000 1.0
C      1  0.5277850000000  0.4767150000000  0.6176640000000 1.0
C      1  0.4344850000000  0.4603140000000  0.5947460000000 1.0
C      1  0.5268300000000  0.5083610000000  0.5335580000000 1.0
C      1  0.4240810000000  0.5050030000000  0.5754960000000 1.0
C      1  0.6121920000000  0.6608800000000  0.5151990000000 1.0
C      1  0.5843360000000  0.6327310000000  0.4800790000000 1.0
C      1  0.5715860000000  0.3994260000000  0.4745910000000 1.0
C      1  0.4602700000000  0.5270840000000  0.3993080000000 1.0
C      1  0.4133130000000  0.4925800000000  0.5512740000000 1.0
C      1  0.4271990000000  0.4417050000000  0.4098420000000 1.0
C      1  0.5224100000000  0.5628360000000  0.4164240000000 1.0
C      1  0.4887490000000  0.3874870000000  0.4615680000000 1.0
C      1  0.5517420000000  0.4247360000000  0.5373660000000 1.0
C      1  0.5018570000000  0.3819820000000  0.5117720000000 1.0
C      1  0.5714830000000  0.4709730000000  0.4901820000000 1.0
C      1  0.4763800000000  0.5036770000000  0.5279240000000 1.0
C      1  0.5263460000000  0.5709710000000  0.6016410000000 1.0
C      1  0.4288190000000  0.4197260000000  0.4776260000000 1.0
C      1  0.5684810000000  0.6162910000000  0.4666600000000 1.0
C      1  0.4109150000000  0.4010570000000  0.4381870000000 1.0
C      1  0.4362140000000  0.4896660000000  0.5954900000000 1.0
C      1  0.4619880000000  0.4509510000000  0.4522080000000 1.0
C      1  0.5808750000000  0.4843570000000  0.4449800000000 1.0
C      1  0.5605070000000  0.5726540000000  0.4466910000000 1.0
C      1  0.4918010000000  0.4752980000000  0.4877760000000 1.0
C      1  0.5408000000000  0.5170510000000  0.4415170000000 1.0
C      1  0.5394410000000  0.5226960000000  0.5824270000000 1.0
C      1  0.5823720000000  0.4439470000000  0.4751110000000 1.0
C      1  0.6173190000000  0.5268050000000  0.5275230000000 1.0
C      1  0.4119190000000  0.5098170000000  0.5046590000000 1.0
C      1  0.4117630000000  0.5146440000000  0.5324900000000 1.0
C      1  0.5025650000000  0.5691140000000  0.5097370000000 1.0
C      1  0.4744410000000  0.5194850000000  0.5915140000000 1.0
C      1  0.5155390000000  0.4477520000000  0.5190890000000 1.0
C      1  0.5256590000000  0.6103140000000  0.5346870000000 1.0
C      1  0.4729250000000  0.5863860000000  0.4696200000000 1.0
C      1  0.4805860000000  0.5850320000000  0.5987120000000 1.0
C      1  0.5473400000000  0.4762520000000  0.5352630000000 1.0
C      1  0.5468400000000  0.5243920000000  0.5170730000000 1.0
C      1  0.5518870000000  0.4796970000000  0.6037190000000 1.0
C      1  0.4482170000000  0.6016700000000  0.5409890000000 1.0
C      1  0.5224650000000  0.6021460000000  0.4606520000000 1.0
C      1  0.4005340000000  0.5304530000000  0.4576090000000 1.0
C      1  0.4617400000000  0.4703960000000  0.4951280000000 1.0
C      1  0.4620790000000  0.5669340000000  0.5925010000000 1.0
C      1  0.4142030000000  0.4635580000000  0.5476930000000 1.0
C      1  0.5129650000000  0.5520350000000  0.4892740000000 1.0
C      1  0.5474080000000  0.4011280000000  0.5215860000000 1.0
C      1  0.5686500000000  0.4829470000000  0.5183590000000 1.0
C      1  0.4940500000000  0.4226450000000  0.5726810000000 1.0
END
