TITL C-247197-3123-116 -6.83974200949955e-07 125000 -658.063431512185 0 0 108 (C1) n - 1
REM
REM in /home/nfs/bkarasulu/CARBON/AIRSS/Generating-Clusters/LCBOP/Only-C1/SD-CG/FIRE-HFTN
REM
REM
REM
REM
REM
REM ./C.cell (11c1c37f851c82e70ff6c80c92926a4b)
REM AIRSS Version 0.9.1 bugfix July 2018 build 013d7b7c2542+ Fri, 06 Jul 2018 19:26:36 +0100
REM compiler GCC version 9.2.1 20190827 (Red Hat 9.2.1-1)
REM options -cpp -mtune=generic -march=x86-64 -g -O0 -fpre-include=/usr/include/finclude/math-vector-fortran.h
REM seed 1828063346 -770095565 -1657285288 2087220086 -962062917 1994455782 1583618969 -772357609 2057571881 596426394 -1692102648 1508620749 652466602 -1732531986 918269047 -389655676 737995048 -1666987084 1980285616 200803347 -1946240404 -847174667 1715715002 -1588007911 262512999 -1808395744 837689157 745542696 475943969 -20210256 -6461510 -1483087666 -2005098619
REM
CELL 1.54180   50.00000   50.00000   50.00000   90.00000   90.00000   90.00000
LATT -1
SFAC C  
C      1  0.5099600000000  0.4899160000000  0.4627760000000 1.0
C      1  0.5552530000000  0.4840560000000  0.4285520000000 1.0
C      1  0.4260010000000  0.5747140000000  0.5172500000000 1.0
C      1  0.5017330000000  0.5115210000000  0.5035370000000 1.0
C      1  0.4666740000000  0.5147970000000  0.4439630000000 1.0
C      1  0.4918000000000  0.4422820000000  0.6108790000000 1.0
C      1  0.5013500000000  0.5335250000000  0.5480820000000 1.0
C      1  0.4721170000000  0.4800490000000  0.4122530000000 1.0
C      1  0.4869980000000  0.4626590000000  0.5928210000000 1.0
C      1  0.4637640000000  0.4769980000000  0.5812500000000 1.0
C      1  0.4107400000000  0.4751650000000  0.5227900000000 1.0
C      1  0.5587200000000  0.5277460000000  0.5063430000000 1.0
C      1  0.4463300000000  0.5559530000000  0.5136510000000 1.0
C      1  0.4011330000000  0.4986840000000  0.4768490000000 1.0
C      1  0.4608380000000  0.4290190000000  0.5107210000000 1.0
C      1  0.4931190000000  0.5076720000000  0.5584870000000 1.0
C      1  0.4927090000000  0.4689380000000  0.4674650000000 1.0
C      1  0.5466180000000  0.4439790000000  0.5556180000000 1.0
C      1  0.4475150000000  0.4950420000000  0.4797930000000 1.0
C      1  0.5747300000000  0.4792220000000  0.5340730000000 1.0
C      1  0.4370860000000  0.4322590000000  0.5270470000000 1.0
C      1  0.5436210000000  0.5492780000000  0.4386760000000 1.0
C      1  0.4954890000000  0.4186870000000  0.4794710000000 1.0
C      1  0.5126920000000  0.6125570000000  0.5096780000000 1.0
C      1  0.5662640000000  0.5036860000000  0.4452940000000 1.0
C      1  0.5592490000000  0.4091060000000  0.5101490000000 1.0
C      1  0.4685670000000  0.4763850000000  0.4805930000000 1.0
C      1  0.4877410000000  0.4564070000000  0.4169880000000 1.0
C      1  0.5023030000000  0.4561440000000  0.5364750000000 1.0
C      1  0.5182290000000  0.6108040000000  0.4816360000000 1.0
C      1  0.5691770000000  0.4355260000000  0.5120050000000 1.0
C      1  0.3975460000000  0.4899220000000  0.5023570000000 1.0
C      1  0.4478660000000  0.5216120000000  0.5696900000000 1.0
C      1  0.4418680000000  0.4398530000000  0.5545190000000 1.0
C      1  0.5108360000000  0.4092140000000  0.6376280000000 1.0
C      1  0.4947650000000  0.5567830000000  0.4828370000000 1.0
C      1  0.4886720000000  0.4240860000000  0.6312130000000 1.0
C      1  0.6203590000000  0.4985480000000  0.5364310000000 1.0
C      1  0.5582810000000  0.4555990000000  0.4372910000000 1.0
C      1  0.4675430000000  0.6274550000000  0.5362180000000 1.0
C      1  0.4800070000000  0.4493370000000  0.5210280000000 1.0
C      1  0.5563290000000  0.4774390000000  0.4920620000000 1.0
C      1  0.5419270000000  0.5147980000000  0.5257280000000 1.0
C      1  0.4900230000000  0.5636880000000  0.5843630000000 1.0
C      1  0.5385110000000  0.5719750000000  0.5103210000000 1.0
C      1  0.4699490000000  0.5050270000000  0.5753690000000 1.0
C      1  0.5471350000000  0.5751850000000  0.4529580000000 1.0
C      1  0.4379180000000  0.5182830000000  0.4437780000000 1.0
C      1  0.5442550000000  0.5195370000000  0.4820220000000 1.0
C      1  0.4418070000000  0.6341090000000  0.5381100000000 1.0
C      1  0.5038800000000  0.5856360000000  0.5440600000000 1.0
C      1  0.5110260000000  0.5117490000000  0.4231060000000 1.0
C      1  0.4423540000000  0.4673240000000  0.5631830000000 1.0
C      1  0.5133230000000  0.3997740000000  0.4895500000000 1.0
C      1  0.4870610000000  0.6096840000000  0.5294670000000 1.0
C      1  0.4711420000000  0.4722660000000  0.5082790000000 1.0
C      1  0.4324170000000  0.4436800000000  0.4450740000000 1.0
C      1  0.4517330000000  0.5533840000000  0.4184520000000 1.0
C      1  0.4152840000000  0.4474120000000  0.5170160000000 1.0
C      1  0.5923630000000  0.4263240000000  0.4550820000000 1.0
C      1  0.4727440000000  0.5604940000000  0.4350050000000 1.0
C      1  0.4954270000000  0.5526860000000  0.4520940000000 1.0
C      1  0.5700830000000  0.5702630000000  0.4707550000000 1.0
C      1  0.4687660000000  0.5604410000000  0.4958810000000 1.0
C      1  0.5869980000000  0.5213470000000  0.5073320000000 1.0
C      1  0.5501040000000  0.4872410000000  0.5200900000000 1.0
C      1  0.4982950000000  0.5609780000000  0.5581450000000 1.0
C      1  0.4562200000000  0.4306980000000  0.4548260000000 1.0
C      1  0.5285020000000  0.5919320000000  0.5265390000000 1.0
C      1  0.5298370000000  0.5965310000000  0.4613330000000 1.0
C      1  0.5282600000000  0.4885980000000  0.4175570000000 1.0
C      1  0.4832540000000  0.5039670000000  0.4239990000000 1.0
C      1  0.4342210000000  0.5300410000000  0.4174830000000 1.0
C      1  0.4485540000000  0.5116110000000  0.5019960000000 1.0
C      1  0.5234890000000  0.4378120000000  0.5393700000000 1.0
C      1  0.4186140000000  0.6217250000000  0.5330710000000 1.0
C      1  0.5159180000000  0.4610190000000  0.4150420000000 1.0
C      1  0.5664070000000  0.4513670000000  0.4875700000000 1.0
C      1  0.4254920000000  0.5024710000000  0.4632100000000 1.0
C      1  0.5050630000000  0.4437030000000  0.4704630000000 1.0
C      1  0.5850400000000  0.5463870000000  0.4629620000000 1.0
C      1  0.5695090000000  0.4505170000000  0.5381070000000 1.0
C      1  0.5050000000000  0.4809210000000  0.5531770000000 1.0
C      1  0.4265240000000  0.4863950000000  0.5450890000000 1.0
C      1  0.5948600000000  0.4996020000000  0.5263020000000 1.0
C      1  0.4663990000000  0.4215270000000  0.4821490000000 1.0
C      1  0.5341560000000  0.4511640000000  0.5815040000000 1.0
C      1  0.5374160000000  0.3965710000000  0.5008180000000 1.0
C      1  0.4414560000000  0.5290240000000  0.5221320000000 1.0
C      1  0.5721690000000  0.4443510000000  0.4599760000000 1.0
C      1  0.4133680000000  0.5970290000000  0.5242700000000 1.0
C      1  0.4291090000000  0.4612970000000  0.4243750000000 1.0
C      1  0.5635000000000  0.5749250000000  0.4977440000000 1.0
C      1  0.4336090000000  0.5151360000000  0.5460830000000 1.0
C      1  0.5170730000000  0.5100540000000  0.4800040000000 1.0
C      1  0.5150980000000  0.5297710000000  0.5224960000000 1.0
C      1  0.5329240000000  0.4149730000000  0.6223790000000 1.0
C      1  0.5172920000000  0.5539960000000  0.5031490000000 1.0
C      1  0.4325140000000  0.5065040000000  0.4005940000000 1.0
C      1  0.5296530000000  0.4343770000000  0.6032180000000 1.0
C      1  0.4433340000000  0.4805910000000  0.4085780000000 1.0
C      1  0.5361490000000  0.4424940000000  0.4240000000000 1.0
C      1  0.4761720000000  0.4353210000000  0.4330650000000 1.0
C      1  0.5683330000000  0.5323900000000  0.4422900000000 1.0
C      1  0.5994700000000  0.5324940000000  0.4838340000000 1.0
C      1  0.5117100000000  0.4693650000000  0.5787280000000 1.0
C      1  0.5601280000000  0.4975250000000  0.4721310000000 1.0
C      1  0.5170890000000  0.5379130000000  0.4367280000000 1.0
END
