TITL C-247199-3331-110 0.215663789695938 125000 -481.302746885386 0 0 79 (C1) n - 1
REM
REM in /home/nfs/bkarasulu/CARBON/AIRSS/Generating-Clusters/LCBOP/Only-C1/SD-CG/FIRE-HFTN
REM
REM
REM
REM
REM
REM ./C.cell (11c1c37f851c82e70ff6c80c92926a4b)
REM AIRSS Version 0.9.1 bugfix July 2018 build 013d7b7c2542+ Fri, 06 Jul 2018 19:26:36 +0100
REM compiler GCC version 9.2.1 20190827 (Red Hat 9.2.1-1)
REM options -cpp -mtune=generic -march=x86-64 -g -O0 -fpre-include=/usr/include/finclude/math-vector-fortran.h
REM seed -1177592146 -484272116 681185247 -921890405 -833299587 -545162900 -1843675720 1121763729 -159326422 1169818691 -579863594 -1984995984 1871577453 -1351677591 1806610334 -1187147051 1782360013 1232049744 -1114313852 -196819869 -588571977 1431261200 262264968 1248844046 -1896360588 1463079009 -890805348 1127834049 -1061393285 786448941 -1692014407 1423600394 -1689358591
REM
CELL 1.54180   50.00000   50.00000   50.00000   90.00000   90.00000   90.00000
LATT -1
SFAC C  
C      1  0.3756620000000  0.4650300000000  0.5149300000000 1.0
C      1  0.3947090000000  0.5303190000000  0.5548550000000 1.0
C      1  0.4215590000000  0.4585370000000  0.4971710000000 1.0
C      1  0.5525590000000  0.5123140000000  0.5638070000000 1.0
C      1  0.6019430000000  0.4900240000000  0.4676590000000 1.0
C      1  0.4852780000000  0.5161100000000  0.5405090000000 1.0
C      1  0.4959780000000  0.5869060000000  0.4225880000000 1.0
C      1  0.3656390000000  0.4705630000000  0.4886200000000 1.0
C      1  0.5288040000000  0.5601760000000  0.5573230000000 1.0
C      1  0.5443600000000  0.4272520000000  0.6026410000000 1.0
C      1  0.4945290000000  0.4429740000000  0.4993590000000 1.0
C      1  0.4491030000000  0.4544990000000  0.5014570000000 1.0
C      1  0.5501940000000  0.5591050000000  0.4872720000000 1.0
C      1  0.4988460000000  0.6054710000000  0.4712480000000 1.0
C      1  0.4993180000000  0.5360730000000  0.4166540000000 1.0
C      1  0.5205470000000  0.4395160000000  0.4582980000000 1.0
C      1  0.5300180000000  0.5287300000000  0.4546820000000 1.0
C      1  0.5458170000000  0.4482880000000  0.4477130000000 1.0
C      1  0.5265770000000  0.4629280000000  0.5655510000000 1.0
C      1  0.5689310000000  0.5718830000000  0.5010950000000 1.0
C      1  0.5005380000000  0.4874340000000  0.4049210000000 1.0
C      1  0.4294380000000  0.5256770000000  0.4717200000000 1.0
C      1  0.4667150000000  0.5190170000000  0.5592300000000 1.0
C      1  0.5402480000000  0.4716510000000  0.4300490000000 1.0
C      1  0.4553850000000  0.5232350000000  0.4668080000000 1.0
C      1  0.4967800000000  0.6011240000000  0.4450920000000 1.0
C      1  0.4705490000000  0.4489730000000  0.4833240000000 1.0
C      1  0.4421430000000  0.4584170000000  0.5494410000000 1.0
C      1  0.6254100000000  0.5383910000000  0.5135760000000 1.0
C      1  0.5373790000000  0.4887910000000  0.5655280000000 1.0
C      1  0.3821080000000  0.4644550000000  0.4660510000000 1.0
C      1  0.4157050000000  0.4620010000000  0.5450330000000 1.0
C      1  0.4969440000000  0.5135850000000  0.4001070000000 1.0
C      1  0.5204670000000  0.5238970000000  0.5021200000000 1.0
C      1  0.4887360000000  0.4494360000000  0.5269710000000 1.0
C      1  0.5686100000000  0.4537170000000  0.4645140000000 1.0
C      1  0.6184230000000  0.4933000000000  0.4900360000000 1.0
C      1  0.4059920000000  0.5291490000000  0.4836590000000 1.0
C      1  0.5784150000000  0.4798840000000  0.4569870000000 1.0
C      1  0.4429290000000  0.5228740000000  0.5703830000000 1.0
C      1  0.4091760000000  0.4596100000000  0.4720460000000 1.0
C      1  0.6295700000000  0.5182390000000  0.4965140000000 1.0
C      1  0.5339610000000  0.5371380000000  0.4814960000000 1.0
C      1  0.5671120000000  0.4413870000000  0.4897880000000 1.0
C      1  0.6068990000000  0.4723400000000  0.5355390000000 1.0
C      1  0.6050060000000  0.5493090000000  0.5295160000000 1.0
C      1  0.5929970000000  0.4862020000000  0.5536310000000 1.0
C      1  0.5084830000000  0.5930620000000  0.5216090000000 1.0
C      1  0.4967710000000  0.5631620000000  0.4103860000000 1.0
C      1  0.4993030000000  0.4525890000000  0.4428420000000 1.0
C      1  0.5119940000000  0.4705460000000  0.4238600000000 1.0
C      1  0.5036310000000  0.5299730000000  0.4442620000000 1.0
C      1  0.5520580000000  0.5195360000000  0.4389380000000 1.0
C      1  0.5074200000000  0.4549860000000  0.5467100000000 1.0
C      1  0.5804050000000  0.5109340000000  0.5580080000000 1.0
C      1  0.3410320000000  0.4821050000000  0.4852250000000 1.0
C      1  0.4744160000000  0.4529210000000  0.4558050000000 1.0
C      1  0.6171120000000  0.4744450000000  0.5109260000000 1.0
C      1  0.5176940000000  0.5790260000000  0.5422200000000 1.0
C      1  0.3724400000000  0.4631890000000  0.4405810000000 1.0
C      1  0.5891370000000  0.5694840000000  0.5182860000000 1.0
C      1  0.5946920000000  0.5340910000000  0.5507650000000 1.0
C      1  0.3892810000000  0.5317380000000  0.5041470000000 1.0
C      1  0.4808830000000  0.5250430000000  0.4597740000000 1.0
C      1  0.5023800000000  0.6021460000000  0.4973850000000 1.0
C      1  0.5533600000000  0.4102700000000  0.6202550000000 1.0
C      1  0.5400290000000  0.5373730000000  0.5651160000000 1.0
C      1  0.4604860000000  0.4545330000000  0.5286540000000 1.0
C      1  0.4166660000000  0.5269070000000  0.5694990000000 1.0
C      1  0.3414870000000  0.4605300000000  0.5565060000000 1.0
C      1  0.4035830000000  0.4621040000000  0.5195310000000 1.0
C      1  0.5184910000000  0.4355120000000  0.4867000000000 1.0
C      1  0.5587400000000  0.4920770000000  0.4391460000000 1.0
C      1  0.5434440000000  0.4326530000000  0.4999440000000 1.0
C      1  0.3577680000000  0.4622180000000  0.5362280000000 1.0
C      1  0.5664740000000  0.5372060000000  0.4237990000000 1.0
C      1  0.5353010000000  0.4445430000000  0.5847280000000 1.0
C      1  0.3845580000000  0.5321640000000  0.5303190000000 1.0
C      1  0.5024730000000  0.5170070000000  0.5203340000000 1.0
END
