TITL C-247199-3331-488 65.1558995441806 125000 -888.295151733734 0 0 147 (C1) n - 1
REM
REM in /home/nfs/bkarasulu/CARBON/AIRSS/Generating-Clusters/LCBOP/Only-C1/SD-CG/FIRE-HFTN
REM
REM
REM
REM
REM
REM ./C.cell (11c1c37f851c82e70ff6c80c92926a4b)
REM AIRSS Version 0.9.1 bugfix July 2018 build 013d7b7c2542+ Fri, 06 Jul 2018 19:26:36 +0100
REM compiler GCC version 9.2.1 20190827 (Red Hat 9.2.1-1)
REM options -cpp -mtune=generic -march=x86-64 -g -O0 -fpre-include=/usr/include/finclude/math-vector-fortran.h
REM seed 2107407153 1668688582 1391439543 116467948 -1301875318 -1926609527 -988330038 1457198435 912919369 347944108 285674856 1095499501 1608172572 -885347713 -163207092 -745271582 1852115201 1337986593 -310871759 -615751307 -117320991 1049567538 -493288612 160353415 1384567246 -1472618523 1022466831 239206352 1601777213 910599827 1184453946 2043567410 2134319570
REM
CELL 1.54180   50.00000   50.00000   50.00000   90.00000   90.00000   90.00000
LATT -1
SFAC C  
C      1  0.5804970000000  0.4535990000000  0.5627660000000 1.0
C      1  0.5424490000000  0.4832360000000  0.4992390000000 1.0
C      1  0.4860140000000  0.5486900000000  0.3932180000000 1.0
C      1  0.4887190000000  0.4990210000000  0.4764770000000 1.0
C      1  0.4669130000000  0.4162260000000  0.4376560000000 1.0
C      1  0.5332450000000  0.4435540000000  0.5201120000000 1.0
C      1  0.4510130000000  0.5278090000000  0.4630480000000 1.0
C      1  0.5033120000000  0.5149440000000  0.6021150000000 1.0
C      1  0.4460270000000  0.5929890000000  0.5411510000000 1.0
C      1  0.6014220000000  0.4144690000000  0.4783170000000 1.0
C      1  0.5999380000000  0.4762350000000  0.5632580000000 1.0
C      1  0.5152910000000  0.3937630000000  0.4896810000000 1.0
C      1  0.5299610000000  0.5152240000000  0.4367010000000 1.0
C      1  0.6260400000000  0.5005660000000  0.4668910000000 1.0
C      1  0.5101790000000  0.4324680000000  0.5851600000000 1.0
C      1  0.4029120000000  0.5528160000000  0.4420880000000 1.0
C      1  0.5130550000000  0.5963160000000  0.4638000000000 1.0
C      1  0.4724400000000  0.5338560000000  0.5731180000000 1.0
C      1  0.4452440000000  0.4066940000000  0.4501620000000 1.0
C      1  0.5139710000000  0.5586040000000  0.5007420000000 1.0
C      1  0.6052370000000  0.4866330000000  0.4530070000000 1.0
C      1  0.5370580000000  0.4403700000000  0.5917350000000 1.0
C      1  0.5338900000000  0.4572680000000  0.4966330000000 1.0
C      1  0.4755430000000  0.4891790000000  0.5404170000000 1.0
C      1  0.3984180000000  0.4552350000000  0.5513880000000 1.0
C      1  0.5498060000000  0.4261450000000  0.5347780000000 1.0
C      1  0.4889180000000  0.6041000000000  0.4817050000000 1.0
C      1  0.4791270000000  0.5293210000000  0.6003420000000 1.0
C      1  0.4487070000000  0.5435920000000  0.4871060000000 1.0
C      1  0.4828650000000  0.6150730000000  0.5081940000000 1.0
C      1  0.4464840000000  0.4529290000000  0.5510850000000 1.0
C      1  0.5203960000000  0.5731830000000  0.4171020000000 1.0
C      1  0.4029050000000  0.4737910000000  0.4586150000000 1.0
C      1  0.5395030000000  0.3799530000000  0.4792170000000 1.0
C      1  0.4638000000000  0.6086490000000  0.5271970000000 1.0
C      1  0.4721740000000  0.3804440000000  0.5078680000000 1.0
C      1  0.4594130000000  0.5429100000000  0.4007730000000 1.0
C      1  0.5640180000000  0.5700410000000  0.4712090000000 1.0
C      1  0.4429980000000  0.5696870000000  0.5577070000000 1.0
C      1  0.4848200000000  0.3944790000000  0.5294510000000 1.0
C      1  0.4173000000000  0.5189900000000  0.5642370000000 1.0
C      1  0.4176220000000  0.5349860000000  0.4261860000000 1.0
C      1  0.5002990000000  0.4879850000000  0.5942560000000 1.0
C      1  0.5426060000000  0.4809170000000  0.5691630000000 1.0
C      1  0.5185690000000  0.5378130000000  0.4806400000000 1.0
C      1  0.4193900000000  0.5709020000000  0.4583960000000 1.0
C      1  0.4360810000000  0.5300770000000  0.5073690000000 1.0
C      1  0.4877850000000  0.5607450000000  0.5105350000000 1.0
C      1  0.4684440000000  0.5603880000000  0.5660940000000 1.0
C      1  0.4436350000000  0.5331650000000  0.4353260000000 1.0
C      1  0.5590660000000  0.5489540000000  0.4516970000000 1.0
C      1  0.5302030000000  0.4064330000000  0.5432680000000 1.0
C      1  0.5161310000000  0.4995400000000  0.3943480000000 1.0
C      1  0.5966900000000  0.5476520000000  0.5904990000000 1.0
C      1  0.4814850000000  0.4120620000000  0.5519650000000 1.0
C      1  0.5150210000000  0.4814280000000  0.5709340000000 1.0
C      1  0.5511170000000  0.4961670000000  0.4751520000000 1.0
C      1  0.5884570000000  0.5445330000000  0.5430510000000 1.0
C      1  0.4826280000000  0.4379290000000  0.4345700000000 1.0
C      1  0.4698560000000  0.4433610000000  0.5035370000000 1.0
C      1  0.5324580000000  0.4773640000000  0.3894420000000 1.0
C      1  0.3822930000000  0.4908980000000  0.4589470000000 1.0
C      1  0.4648760000000  0.5648750000000  0.4951590000000 1.0
C      1  0.4541280000000  0.5784740000000  0.4526300000000 1.0
C      1  0.5968610000000  0.5640000000000  0.6113460000000 1.0
C      1  0.6024360000000  0.4750570000000  0.5160780000000 1.0
C      1  0.5893760000000  0.5060990000000  0.4374230000000 1.0
C      1  0.4373830000000  0.5359690000000  0.3853410000000 1.0
C      1  0.5768270000000  0.4379120000000  0.5366530000000 1.0
C      1  0.4090180000000  0.4145170000000  0.4877840000000 1.0
C      1  0.4657580000000  0.4345210000000  0.5630340000000 1.0
C      1  0.5442990000000  0.5934990000000  0.5670160000000 1.0
C      1  0.5138840000000  0.5491370000000  0.4023140000000 1.0
C      1  0.4858960000000  0.5391500000000  0.4377580000000 1.0
C      1  0.4053270000000  0.5178820000000  0.5372100000000 1.0
C      1  0.5094280000000  0.4135370000000  0.5633220000000 1.0
C      1  0.3912500000000  0.4400700000000  0.5304550000000 1.0
C      1  0.4192410000000  0.4940030000000  0.4005540000000 1.0
C      1  0.3965670000000  0.4259230000000  0.5084360000000 1.0
C      1  0.4277510000000  0.4917570000000  0.5756720000000 1.0
C      1  0.4892900000000  0.4984460000000  0.4042070000000 1.0
C      1  0.4791470000000  0.5672730000000  0.4400630000000 1.0
C      1  0.5000090000000  0.4776680000000  0.5475400000000 1.0
C      1  0.5043230000000  0.5830120000000  0.4388740000000 1.0
C      1  0.5962660000000  0.4590960000000  0.4588760000000 1.0
C      1  0.4822500000000  0.4449520000000  0.5861540000000 1.0
C      1  0.5961120000000  0.4412660000000  0.4830730000000 1.0
C      1  0.5557760000000  0.4573440000000  0.5780880000000 1.0
C      1  0.5534220000000  0.4949800000000  0.5480090000000 1.0
C      1  0.5840220000000  0.4953060000000  0.5095160000000 1.0
C      1  0.4240000000000  0.5073290000000  0.5185270000000 1.0
C      1  0.4827920000000  0.5150690000000  0.4250360000000 1.0
C      1  0.4647710000000  0.5380900000000  0.6216920000000 1.0
C      1  0.4505670000000  0.4853470000000  0.5935950000000 1.0
C      1  0.6206630000000  0.5254380000000  0.4771710000000 1.0
C      1  0.5102910000000  0.5158290000000  0.5207740000000 1.0
C      1  0.4308640000000  0.4712150000000  0.4607030000000 1.0
C      1  0.5821740000000  0.4477450000000  0.4365480000000 1.0
C      1  0.5779770000000  0.5312940000000  0.4379810000000 1.0
C      1  0.5403660000000  0.5884590000000  0.4763620000000 1.0
C      1  0.5767720000000  0.5095130000000  0.4848320000000 1.0
C      1  0.5557570000000  0.4513330000000  0.4277750000000 1.0
C      1  0.4485640000000  0.4707600000000  0.4376880000000 1.0
C      1  0.4253370000000  0.4073090000000  0.4679470000000 1.0
C      1  0.5820950000000  0.5576400000000  0.4918360000000 1.0
C      1  0.3726760000000  0.5158670000000  0.4574820000000 1.0
C      1  0.5936610000000  0.5327540000000  0.4824640000000 1.0
C      1  0.3920190000000  0.5411590000000  0.5255670000000 1.0
C      1  0.5379070000000  0.5682930000000  0.5652540000000 1.0
C      1  0.4613010000000  0.5032190000000  0.4741210000000 1.0
C      1  0.4552970000000  0.4714290000000  0.5298780000000 1.0
C      1  0.5934300000000  0.5312090000000  0.5679700000000 1.0
C      1  0.4887530000000  0.3780980000000  0.4857390000000 1.0
C      1  0.6166900000000  0.4764320000000  0.5402160000000 1.0
C      1  0.5057260000000  0.5147930000000  0.4927080000000 1.0
C      1  0.4700420000000  0.5138930000000  0.5531770000000 1.0
C      1  0.4244070000000  0.5482880000000  0.5666850000000 1.0
C      1  0.4653530000000  0.5869960000000  0.4774330000000 1.0
C      1  0.5476730000000  0.4590460000000  0.4019240000000 1.0
C      1  0.5318930000000  0.5798420000000  0.5027340000000 1.0
C      1  0.5832690000000  0.5586940000000  0.5204230000000 1.0
C      1  0.5961110000000  0.5804590000000  0.6315480000000 1.0
C      1  0.5377510000000  0.4574860000000  0.4487790000000 1.0
C      1  0.5917420000000  0.4484970000000  0.5111530000000 1.0
C      1  0.5198330000000  0.5291310000000  0.5422900000000 1.0
C      1  0.4370670000000  0.4834770000000  0.5108010000000 1.0
C      1  0.4984380000000  0.4824880000000  0.4553960000000 1.0
C      1  0.3787610000000  0.5414530000000  0.4515640000000 1.0
C      1  0.5106320000000  0.4216820000000  0.4781030000000 1.0
C      1  0.5300900000000  0.4874920000000  0.4508810000000 1.0
C      1  0.4776880000000  0.4651780000000  0.4413990000000 1.0
C      1  0.5952430000000  0.5029430000000  0.5724630000000 1.0
C      1  0.4166950000000  0.5222080000000  0.4001550000000 1.0
C      1  0.5296280000000  0.4426590000000  0.4724550000000 1.0
C      1  0.4358700000000  0.4768210000000  0.4130900000000 1.0
C      1  0.5581260000000  0.4917010000000  0.5213890000000 1.0
C      1  0.4431630000000  0.4831900000000  0.4829710000000 1.0
C      1  0.5262040000000  0.5227830000000  0.4088290000000 1.0
C      1  0.3964870000000  0.5606670000000  0.5067340000000 1.0
C      1  0.4084850000000  0.5728770000000  0.4853410000000 1.0
C      1  0.4222650000000  0.4656340000000  0.5620180000000 1.0
C      1  0.5287330000000  0.5419420000000  0.5659910000000 1.0
C      1  0.5336810000000  0.5363870000000  0.4560080000000 1.0
C      1  0.5141920000000  0.3952000000000  0.5213480000000 1.0
C      1  0.4854370000000  0.4320870000000  0.4864070000000 1.0
C      1  0.4764600000000  0.4718890000000  0.5960310000000 1.0
C      1  0.5253480000000  0.5292110000000  0.5911870000000 1.0
END
