TITL C-247196-3112-378 7.3677559023518e-06 125000 -444.61931812948 0 0 75 (C1) n - 1
REM
REM in /home/nfs/bkarasulu/CARBON/AIRSS/Generating-Clusters/LCBOP/Only-C1/SD-CG/FIRE-HFTN
REM
REM
REM
REM
REM
REM ./C.cell (11c1c37f851c82e70ff6c80c92926a4b)
REM AIRSS Version 0.9.1 bugfix July 2018 build 013d7b7c2542+ Fri, 06 Jul 2018 19:26:36 +0100
REM compiler GCC version 9.2.1 20190827 (Red Hat 9.2.1-1)
REM options -cpp -mtune=generic -march=x86-64 -g -O0 -fpre-include=/usr/include/finclude/math-vector-fortran.h
REM seed 413464454 180546595 597166126 -149452920 -1460975967 -1279031326 289521553 -1644207293 -1589694140 -1238635153 163733488 1843158574 1325576585 -562717331 1392970837 1877736719 461162119 -1120154758 -287087569 -1222437153 1532254193 1088380454 -982217961 -1648907010 1320018269 -1915345686 -695517684 -929552621 -1205802160 676598711 -1577781114 2047504989 85055755
REM
CELL 1.54180   50.00000   50.00000   50.00000   90.00000   90.00000   90.00000
LATT -1
SFAC C  
C      1  0.4724110000000  0.4438970000000  0.4614550000000 1.0
C      1  0.4452880000000  0.4499940000000  0.5064200000000 1.0
C      1  0.5412500000000  0.4744990000000  0.5550110000000 1.0
C      1  0.4979870000000  0.5237130000000  0.5252860000000 1.0
C      1  0.3906980000000  0.5957640000000  0.3894130000000 1.0
C      1  0.5013540000000  0.5138950000000  0.5843270000000 1.0
C      1  0.5033540000000  0.5438330000000  0.3842050000000 1.0
C      1  0.4367050000000  0.5142930000000  0.4983860000000 1.0
C      1  0.6050250000000  0.3959690000000  0.5858320000000 1.0
C      1  0.5188470000000  0.4827630000000  0.5444620000000 1.0
C      1  0.4930890000000  0.4863150000000  0.5865680000000 1.0
C      1  0.5629340000000  0.5358600000000  0.4853270000000 1.0
C      1  0.4891170000000  0.5936590000000  0.4951870000000 1.0
C      1  0.5838510000000  0.4081580000000  0.5767570000000 1.0
C      1  0.5137210000000  0.5928970000000  0.4844790000000 1.0
C      1  0.5159010000000  0.4389720000000  0.5922390000000 1.0
C      1  0.5028940000000  0.4843910000000  0.4995590000000 1.0
C      1  0.4802760000000  0.4901240000000  0.4839540000000 1.0
C      1  0.4944150000000  0.4267870000000  0.4681700000000 1.0
C      1  0.5299530000000  0.4443950000000  0.4984240000000 1.0
C      1  0.5090460000000  0.4658410000000  0.5976890000000 1.0
C      1  0.5058780000000  0.4294240000000  0.4941310000000 1.0
C      1  0.5417300000000  0.4306730000000  0.5850970000000 1.0
C      1  0.4696550000000  0.4781330000000  0.5725010000000 1.0
C      1  0.5034110000000  0.4962910000000  0.5256310000000 1.0
C      1  0.4986990000000  0.5315050000000  0.4523750000000 1.0
C      1  0.5579570000000  0.4248330000000  0.5393010000000 1.0
C      1  0.5074250000000  0.5737730000000  0.4240620000000 1.0
C      1  0.5038540000000  0.4082740000000  0.4504000000000 1.0
C      1  0.4362070000000  0.4960510000000  0.5419350000000 1.0
C      1  0.5175180000000  0.5020010000000  0.4033120000000 1.0
C      1  0.5464330000000  0.5205950000000  0.4412030000000 1.0
C      1  0.5533100000000  0.5255810000000  0.5334110000000 1.0
C      1  0.4524970000000  0.4741410000000  0.5503060000000 1.0
C      1  0.5570190000000  0.5174040000000  0.5065200000000 1.0
C      1  0.4743050000000  0.4301550000000  0.5383650000000 1.0
C      1  0.5335730000000  0.5784570000000  0.4704950000000 1.0
C      1  0.5284830000000  0.4726360000000  0.4940350000000 1.0
C      1  0.4235000000000  0.4952280000000  0.5159010000000 1.0
C      1  0.4425500000000  0.5367270000000  0.5169900000000 1.0
C      1  0.5419830000000  0.5279490000000  0.5577240000000 1.0
C      1  0.4566340000000  0.5030130000000  0.4819630000000 1.0
C      1  0.5263690000000  0.5674590000000  0.4449550000000 1.0
C      1  0.4910400000000  0.4223680000000  0.5170290000000 1.0
C      1  0.4945550000000  0.4221030000000  0.5850040000000 1.0
C      1  0.5286650000000  0.5227760000000  0.5823630000000 1.0
C      1  0.4516570000000  0.4460690000000  0.4806030000000 1.0
C      1  0.4742100000000  0.4789110000000  0.4173180000000 1.0
C      1  0.4741020000000  0.4608220000000  0.4389720000000 1.0
C      1  0.5493110000000  0.4331860000000  0.5154830000000 1.0
C      1  0.4493570000000  0.5631400000000  0.5105500000000 1.0
C      1  0.5534360000000  0.5629240000000  0.4844840000000 1.0
C      1  0.4384740000000  0.5757650000000  0.3984530000000 1.0
C      1  0.4582610000000  0.5352820000000  0.5653110000000 1.0
C      1  0.4659900000000  0.5830630000000  0.5037410000000 1.0
C      1  0.4625010000000  0.5656410000000  0.4030500000000 1.0
C      1  0.5403780000000  0.5022500000000  0.4204840000000 1.0
C      1  0.5256560000000  0.5387850000000  0.4468200000000 1.0
C      1  0.5611570000000  0.4212280000000  0.5670450000000 1.0
C      1  0.4900470000000  0.5386940000000  0.4776960000000 1.0
C      1  0.4888280000000  0.5536320000000  0.4091640000000 1.0
C      1  0.4441030000000  0.5245880000000  0.5437960000000 1.0
C      1  0.4143880000000  0.5858480000000  0.3938950000000 1.0
C      1  0.4804420000000  0.5322890000000  0.5799040000000 1.0
C      1  0.4913800000000  0.5014590000000  0.4161280000000 1.0
C      1  0.4855540000000  0.5276020000000  0.4274930000000 1.0
C      1  0.5429650000000  0.5265010000000  0.6061540000000 1.0
C      1  0.5560200000000  0.5290600000000  0.6285630000000 1.0
C      1  0.5172970000000  0.5205730000000  0.3816830000000 1.0
C      1  0.4783730000000  0.4197440000000  0.5639160000000 1.0
C      1  0.4555760000000  0.4511430000000  0.5328680000000 1.0
C      1  0.5674620000000  0.5233740000000  0.4597760000000 1.0
C      1  0.5500430000000  0.4908530000000  0.4980620000000 1.0
C      1  0.4948030000000  0.5394410000000  0.5039310000000 1.0
C      1  0.4568630000000  0.4745610000000  0.3965000000000 1.0
END
