TITL C-247197-3123-444 5.92013301613035e-05 125000 -227.063058409738 0 0 39 (C1) n - 1
REM
REM in /home/nfs/bkarasulu/CARBON/AIRSS/Generating-Clusters/LCBOP/Only-C1/SD-CG/FIRE-HFTN
REM
REM
REM
REM
REM
REM ./C.cell (11c1c37f851c82e70ff6c80c92926a4b)
REM AIRSS Version 0.9.1 bugfix July 2018 build 013d7b7c2542+ Fri, 06 Jul 2018 19:26:36 +0100
REM compiler GCC version 9.2.1 20190827 (Red Hat 9.2.1-1)
REM options -cpp -mtune=generic -march=x86-64 -g -O0 -fpre-include=/usr/include/finclude/math-vector-fortran.h
REM seed -284869361 -943289806 768060033 -2079967589 -783909564 1102377899 -1476499335 1961953022 -1463164005 672334685 -474314871 670052883 829249850 1251911470 -1559665857 -2029205815 -1852690608 -1570762975 362281615 -1652622455 3686680 -2093810112 824178345 1403526905 1139311175 -438220560 -812009 -510585795 737729697 821495940 5218492 1679423003 609188741
REM
CELL 1.54180   50.00000   50.00000   50.00000   90.00000   90.00000   90.00000
LATT -1
SFAC C  
C      1  0.5662000000000  0.4961730000000  0.4607420000000 1.0
C      1  0.6089340000000  0.5327620000000  0.5426410000000 1.0
C      1  0.3846730000000  0.5645400000000  0.4835760000000 1.0
C      1  0.4603260000000  0.5448880000000  0.4951720000000 1.0
C      1  0.4098360000000  0.5586840000000  0.4870640000000 1.0
C      1  0.5094290000000  0.4497100000000  0.4741340000000 1.0
C      1  0.4951030000000  0.5633170000000  0.5466000000000 1.0
C      1  0.5004200000000  0.4236450000000  0.4688490000000 1.0
C      1  0.4981230000000  0.5072300000000  0.4334200000000 1.0
C      1  0.5551380000000  0.5344900000000  0.5392210000000 1.0
C      1  0.4353180000000  0.5523940000000  0.4907450000000 1.0
C      1  0.4775480000000  0.5448230000000  0.5552440000000 1.0
C      1  0.4703480000000  0.4638600000000  0.5037750000000 1.0
C      1  0.5365090000000  0.4556950000000  0.4696970000000 1.0
C      1  0.5829340000000  0.5338110000000  0.5412060000000 1.0
C      1  0.4840490000000  0.3772720000000  0.4696720000000 1.0
C      1  0.4868180000000  0.5390300000000  0.5008300000000 1.0
C      1  0.5415890000000  0.5587500000000  0.5347140000000 1.0
C      1  0.5395970000000  0.5105010000000  0.5409460000000 1.0
C      1  0.5296190000000  0.5307380000000  0.4630200000000 1.0
C      1  0.4590560000000  0.4991910000000  0.5376720000000 1.0
C      1  0.5084880000000  0.5112950000000  0.4583830000000 1.0
C      1  0.5076820000000  0.5586020000000  0.5002820000000 1.0
C      1  0.4839970000000  0.4033340000000  0.4791980000000 1.0
C      1  0.5576110000000  0.4712150000000  0.4649140000000 1.0
C      1  0.5557100000000  0.5208170000000  0.4594640000000 1.0
C      1  0.5163140000000  0.5079350000000  0.5253920000000 1.0
C      1  0.4841290000000  0.3527980000000  0.4607120000000 1.0
C      1  0.4988410000000  0.4971150000000  0.4813700000000 1.0
C      1  0.5244460000000  0.5546370000000  0.4776960000000 1.0
C      1  0.5470640000000  0.4903500000000  0.5579010000000 1.0
C      1  0.4980320000000  0.5131260000000  0.5046950000000 1.0
C      1  0.4654960000000  0.5211210000000  0.5516710000000 1.0
C      1  0.4642410000000  0.4369940000000  0.5096010000000 1.0
C      1  0.4919730000000  0.4697600000000  0.4852280000000 1.0
C      1  0.4528470000000  0.4837620000000  0.5148240000000 1.0
C      1  0.4674940000000  0.4121190000000  0.5002150000000 1.0
C      1  0.5155290000000  0.5658440000000  0.5269080000000 1.0
C      1  0.4285390000000  0.4876700000000  0.5026060000000 1.0
END
