TITL C-247201-3759-345 -189.927477317467 125000 -1050.29449227808 0 0 170 (C1) n - 1
REM
REM in /home/nfs/bkarasulu/CARBON/AIRSS/Generating-Clusters/LCBOP/Only-C1/SD-CG/FIRE-HFTN
REM
REM
REM
REM
REM
REM ./C.cell (11c1c37f851c82e70ff6c80c92926a4b)
REM AIRSS Version 0.9.1 bugfix July 2018 build 013d7b7c2542+ Fri, 06 Jul 2018 19:26:36 +0100
REM compiler GCC version 9.2.1 20190827 (Red Hat 9.2.1-1)
REM options -cpp -mtune=generic -march=x86-64 -g -O0 -fpre-include=/usr/include/finclude/math-vector-fortran.h
REM seed -2133570147 1987007422 -1062782689 2073323537 306495278 -1026738797 408507666 1722170007 -1010461207 1171130816 -1055731742 -1200886416 338115189 1086238070 589332358 -1969064254 1857857400 -1190241473 2010393016 396177429 69054848 761570741 1981218855 -962331012 -1880392632 -1632741799 -2127488363 1538965324 2106933019 1047389881 1657059660 -370963806 -1638762042
REM
CELL 1.54180   50.00000   50.00000   50.00000   90.00000   90.00000   90.00000
LATT -1
SFAC C  
C      1  0.4926500000000  0.4095750000000  0.5804280000000 1.0
C      1  0.5349610000000  0.4273500000000  0.3689990000000 1.0
C      1  0.4958500000000  0.4374160000000  0.5829530000000 1.0
C      1  0.4585780000000  0.4180270000000  0.4832620000000 1.0
C      1  0.5901140000000  0.5401630000000  0.4818670000000 1.0
C      1  0.4949960000000  0.4743670000000  0.6127830000000 1.0
C      1  0.4868730000000  0.4383630000000  0.5358160000000 1.0
C      1  0.6297750000000  0.5012350000000  0.5416640000000 1.0
C      1  0.5180780000000  0.5365240000000  0.4204120000000 1.0
C      1  0.4150770000000  0.5136480000000  0.4297630000000 1.0
C      1  0.4803210000000  0.5343860000000  0.3912740000000 1.0
C      1  0.5323530000000  0.5586990000000  0.5392360000000 1.0
C      1  0.5619240000000  0.5314890000000  0.4822780000000 1.0
C      1  0.4326590000000  0.5072630000000  0.4526150000000 1.0
C      1  0.5649500000000  0.4581740000000  0.5461670000000 1.0
C      1  0.4720140000000  0.4814400000000  0.4470780000000 1.0
C      1  0.4146810000000  0.4377530000000  0.4762790000000 1.0
C      1  0.5687640000000  0.5034500000000  0.5252360000000 1.0
C      1  0.5996810000000  0.4585710000000  0.4356090000000 1.0
C      1  0.4408010000000  0.5238980000000  0.4765430000000 1.0
C      1  0.5353480000000  0.4449130000000  0.3909350000000 1.0
C      1  0.5761100000000  0.4155430000000  0.4408140000000 1.0
C      1  0.5525060000000  0.5529900000000  0.5212660000000 1.0
C      1  0.5743380000000  0.5260740000000  0.4224800000000 1.0
C      1  0.5816330000000  0.5486520000000  0.5767600000000 1.0
C      1  0.4493710000000  0.5468800000000  0.4228420000000 1.0
C      1  0.4673150000000  0.5362640000000  0.5657880000000 1.0
C      1  0.4952810000000  0.4844800000000  0.5249610000000 1.0
C      1  0.4583340000000  0.5037950000000  0.4391970000000 1.0
C      1  0.4884070000000  0.6045530000000  0.5179760000000 1.0
C      1  0.5020910000000  0.3824680000000  0.5364720000000 1.0
C      1  0.5397960000000  0.5732040000000  0.5870130000000 1.0
C      1  0.5739080000000  0.4464360000000  0.4936770000000 1.0
C      1  0.5257890000000  0.5184240000000  0.5087530000000 1.0
C      1  0.5136760000000  0.4371990000000  0.5231760000000 1.0
C      1  0.4856080000000  0.4483950000000  0.4019810000000 1.0
C      1  0.5779990000000  0.5870090000000  0.5398750000000 1.0
C      1  0.4360210000000  0.4244400000000  0.4632660000000 1.0
C      1  0.4949750000000  0.5902100000000  0.5854900000000 1.0
C      1  0.5555960000000  0.5095290000000  0.5907560000000 1.0
C      1  0.3918230000000  0.4709380000000  0.4324020000000 1.0
C      1  0.5110500000000  0.4533800000000  0.6008100000000 1.0
C      1  0.3841220000000  0.5096860000000  0.4713060000000 1.0
C      1  0.5521410000000  0.5995540000000  0.5490760000000 1.0
C      1  0.4957260000000  0.3858130000000  0.4875510000000 1.0
C      1  0.4106170000000  0.4554140000000  0.4198850000000 1.0
C      1  0.4854890000000  0.3759070000000  0.5135260000000 1.0
C      1  0.6064650000000  0.4850510000000  0.5469590000000 1.0
C      1  0.4724390000000  0.4101890000000  0.4376310000000 1.0
C      1  0.5046120000000  0.4404650000000  0.4783320000000 1.0
C      1  0.4782060000000  0.4401530000000  0.4822480000000 1.0
C      1  0.5537010000000  0.5051370000000  0.4195020000000 1.0
C      1  0.4941760000000  0.3892630000000  0.5627100000000 1.0
C      1  0.5736110000000  0.5757230000000  0.4251790000000 1.0
C      1  0.4633290000000  0.5848900000000  0.4422690000000 1.0
C      1  0.5272030000000  0.3948800000000  0.5262230000000 1.0
C      1  0.4921610000000  0.5446840000000  0.5578070000000 1.0
C      1  0.4833180000000  0.5738030000000  0.4256540000000 1.0
C      1  0.4308820000000  0.5493610000000  0.5942490000000 1.0
C      1  0.4244660000000  0.5009710000000  0.4055500000000 1.0
C      1  0.4198490000000  0.5782710000000  0.4758500000000 1.0
C      1  0.4750050000000  0.5800430000000  0.5132520000000 1.0
C      1  0.5232140000000  0.4523730000000  0.4982680000000 1.0
C      1  0.4737960000000  0.4845340000000  0.4756470000000 1.0
C      1  0.6049670000000  0.5290950000000  0.4602910000000 1.0
C      1  0.4431860000000  0.4492940000000  0.5565670000000 1.0
C      1  0.5160870000000  0.5412860000000  0.6091000000000 1.0
C      1  0.5097600000000  0.6113480000000  0.5711100000000 1.0
C      1  0.4969890000000  0.5223220000000  0.6170970000000 1.0
C      1  0.4037930000000  0.4945640000000  0.5411990000000 1.0
C      1  0.5777010000000  0.5195840000000  0.5736070000000 1.0
C      1  0.6211880000000  0.4539830000000  0.4532970000000 1.0
C      1  0.5895410000000  0.4849300000000  0.4382660000000 1.0
C      1  0.4579590000000  0.4612880000000  0.4025040000000 1.0
C      1  0.5125540000000  0.5223840000000  0.4822710000000 1.0
C      1  0.4015840000000  0.4653460000000  0.5428670000000 1.0
C      1  0.4971090000000  0.4737310000000  0.4375880000000 1.0
C      1  0.5122040000000  0.6198440000000  0.5232470000000 1.0
C      1  0.5364230000000  0.5462750000000  0.4404620000000 1.0
C      1  0.4679040000000  0.4864350000000  0.5209500000000 1.0
C      1  0.5368130000000  0.5342310000000  0.4665170000000 1.0
C      1  0.5495810000000  0.4563970000000  0.4826100000000 1.0
C      1  0.4146360000000  0.4474240000000  0.5609560000000 1.0
C      1  0.6283980000000  0.5283060000000  0.5366840000000 1.0
C      1  0.5607570000000  0.4844720000000  0.4385470000000 1.0
C      1  0.4009200000000  0.5584870000000  0.4860770000000 1.0
C      1  0.5177670000000  0.4804360000000  0.4553770000000 1.0
C      1  0.4229320000000  0.4775690000000  0.4989850000000 1.0
C      1  0.4949610000000  0.5504940000000  0.4106660000000 1.0
C      1  0.4179170000000  0.4313290000000  0.5052520000000 1.0
C      1  0.5603540000000  0.5556890000000  0.5960200000000 1.0
C      1  0.5440910000000  0.5321100000000  0.6050140000000 1.0
C      1  0.4114670000000  0.4560590000000  0.5177430000000 1.0
C      1  0.6252760000000  0.4683510000000  0.4758680000000 1.0
C      1  0.4548070000000  0.4810890000000  0.4967100000000 1.0
C      1  0.4667670000000  0.5370770000000  0.4691570000000 1.0
C      1  0.5860570000000  0.5062980000000  0.5503970000000 1.0
C      1  0.5044020000000  0.4787810000000  0.5510440000000 1.0
C      1  0.5932000000000  0.4594110000000  0.5388370000000 1.0
C      1  0.5398850000000  0.5758650000000  0.5596160000000 1.0
C      1  0.5969800000000  0.5558220000000  0.5059080000000 1.0
C      1  0.4669180000000  0.5313080000000  0.4396950000000 1.0
C      1  0.4497730000000  0.5678590000000  0.5188760000000 1.0
C      1  0.3921300000000  0.5380170000000  0.4641270000000 1.0
C      1  0.5626470000000  0.5512150000000  0.4291810000000 1.0
C      1  0.5338500000000  0.4107480000000  0.3489430000000 1.0
C      1  0.5473130000000  0.4390320000000  0.5589490000000 1.0
C      1  0.4582070000000  0.4339100000000  0.5347630000000 1.0
C      1  0.4806240000000  0.4993190000000  0.6118220000000 1.0
C      1  0.5942420000000  0.5650430000000  0.5553030000000 1.0
C      1  0.6115260000000  0.4853310000000  0.4915310000000 1.0
C      1  0.4476630000000  0.4778670000000  0.5628730000000 1.0
C      1  0.4897190000000  0.5412970000000  0.4859240000000 1.0
C      1  0.3830440000000  0.5091660000000  0.5001640000000 1.0
C      1  0.5447170000000  0.4725720000000  0.4583030000000 1.0
C      1  0.5303170000000  0.4883940000000  0.5560110000000 1.0
C      1  0.4418750000000  0.5849510000000  0.5689200000000 1.0
C      1  0.5272070000000  0.6161540000000  0.5477420000000 1.0
C      1  0.5243800000000  0.3918510000000  0.4954950000000 1.0
C      1  0.4765950000000  0.3975280000000  0.4670620000000 1.0
C      1  0.4075890000000  0.5460750000000  0.5520680000000 1.0
C      1  0.5627970000000  0.4004560000000  0.4583050000000 1.0
C      1  0.4435250000000  0.5400240000000  0.5225690000000 1.0
C      1  0.4110990000000  0.5123960000000  0.5616440000000 1.0
C      1  0.5964250000000  0.5137870000000  0.4378160000000 1.0
C      1  0.4305040000000  0.5241070000000  0.5029940000000 1.0
C      1  0.5894590000000  0.4944470000000  0.5038590000000 1.0
C      1  0.5276150000000  0.5109340000000  0.4097300000000 1.0
C      1  0.3926410000000  0.5508850000000  0.5205540000000 1.0
C      1  0.5413880000000  0.4863720000000  0.5827060000000 1.0
C      1  0.4220770000000  0.5636230000000  0.5705210000000 1.0
C      1  0.5371150000000  0.4580120000000  0.5884460000000 1.0
C      1  0.4878650000000  0.4230720000000  0.4168900000000 1.0
C      1  0.4349170000000  0.4943860000000  0.5826310000000 1.0
C      1  0.5300110000000  0.6551850000000  0.4865410000000 1.0
C      1  0.4679530000000  0.5104740000000  0.3865530000000 1.0
C      1  0.4543890000000  0.5339840000000  0.5912430000000 1.0
C      1  0.4100970000000  0.4667390000000  0.4737680000000 1.0
C      1  0.4498440000000  0.4897450000000  0.3953940000000 1.0
C      1  0.3918430000000  0.4832910000000  0.4585360000000 1.0
C      1  0.5736130000000  0.5713200000000  0.5151230000000 1.0
C      1  0.4534270000000  0.5246090000000  0.5442840000000 1.0
C      1  0.5128830000000  0.5692820000000  0.5979460000000 1.0
C      1  0.5329660000000  0.4215430000000  0.5383210000000 1.0
C      1  0.4544450000000  0.5067020000000  0.6005630000000 1.0
C      1  0.4048680000000  0.5398570000000  0.4377850000000 1.0
C      1  0.4933250000000  0.4535490000000  0.5595360000000 1.0
C      1  0.5150280000000  0.4894590000000  0.3962380000000 1.0
C      1  0.4459430000000  0.4246530000000  0.4365870000000 1.0
C      1  0.4667580000000  0.5895960000000  0.5796020000000 1.0
C      1  0.5037790000000  0.4934940000000  0.4784700000000 1.0
C      1  0.6105070000000  0.5503620000000  0.5325540000000 1.0
C      1  0.5117470000000  0.4795580000000  0.5032430000000 1.0
C      1  0.3729790000000  0.5310590000000  0.5155330000000 1.0
C      1  0.5801740000000  0.4390680000000  0.4257080000000 1.0
C      1  0.5060110000000  0.5516120000000  0.5346140000000 1.0
C      1  0.4352230000000  0.5792630000000  0.4514170000000 1.0
C      1  0.5931030000000  0.4459190000000  0.5132020000000 1.0
C      1  0.4450950000000  0.4219560000000  0.5111760000000 1.0
C      1  0.4376730000000  0.4456170000000  0.4179860000000 1.0
C      1  0.5113520000000  0.4611350000000  0.3949270000000 1.0
C      1  0.4547840000000  0.4964260000000  0.5425650000000 1.0
C      1  0.5593200000000  0.4452120000000  0.4067160000000 1.0
C      1  0.5505740000000  0.4819550000000  0.5367980000000 1.0
C      1  0.4253640000000  0.5592180000000  0.4325010000000 1.0
C      1  0.5211280000000  0.6383780000000  0.5043680000000 1.0
C      1  0.4926790000000  0.5576030000000  0.5097330000000 1.0
C      1  0.4103890000000  0.5024590000000  0.5113510000000 1.0
C      1  0.5539440000000  0.5252440000000  0.5114570000000 1.0
C      1  0.5454990000000  0.3931980000000  0.4772080000000 1.0
END
