TITL C-247202-1916-243 0.91351457758987 125000 -914.392087456451 0 0 150 (C1) n - 1
REM
REM in /home/nfs/bkarasulu/CARBON/AIRSS/Generating-Clusters/LCBOP/Only-C1/SD-CG/FIRE-HFTN
REM
REM
REM
REM
REM
REM ./C.cell (11c1c37f851c82e70ff6c80c92926a4b)
REM AIRSS Version 0.9.1 bugfix July 2018 build 013d7b7c2542+ Fri, 06 Jul 2018 19:26:36 +0100
REM compiler GCC version 9.2.1 20190827 (Red Hat 9.2.1-1)
REM options -cpp -mtune=generic -march=x86-64 -g -O0 -fpre-include=/usr/include/finclude/math-vector-fortran.h
REM seed -1199294586 -152338337 -1936544274 730088129 -51462768 1709308046 342522203 1991965404 357349732 -1638011043 -2036526635 -1244471814 -2105980632 1001416854 485777614 -19546488 -516071048 -1397591669 -284516726 -1437128035 -446300891 -391859594 884695669 715610731 -1925834834 -1993979436 -219980332 -978471765 1206719321 691369118 -322820905 -603607099 -384735989
REM
CELL 1.54180   50.00000   50.00000   50.00000   90.00000   90.00000   90.00000
LATT -1
SFAC C  
C      1  0.5055910000000  0.5770380000000  0.5921990000000 1.0
C      1  0.5250640000000  0.3705080000000  0.5069740000000 1.0
C      1  0.5320260000000  0.5547480000000  0.4753080000000 1.0
C      1  0.5840090000000  0.5217990000000  0.4629920000000 1.0
C      1  0.5318020000000  0.4667990000000  0.5197210000000 1.0
C      1  0.4227470000000  0.5503880000000  0.5310980000000 1.0
C      1  0.4540210000000  0.6010690000000  0.5738830000000 1.0
C      1  0.4582960000000  0.5532440000000  0.4779600000000 1.0
C      1  0.5677340000000  0.4504650000000  0.4630440000000 1.0
C      1  0.4450300000000  0.4890900000000  0.4587870000000 1.0
C      1  0.5266410000000  0.4036710000000  0.4537340000000 1.0
C      1  0.4055770000000  0.4623860000000  0.4982380000000 1.0
C      1  0.3963260000000  0.4466230000000  0.4763110000000 1.0
C      1  0.4976030000000  0.5669730000000  0.6157430000000 1.0
C      1  0.4329640000000  0.5733360000000  0.5166780000000 1.0
C      1  0.3973280000000  0.5429170000000  0.5214490000000 1.0
C      1  0.4607210000000  0.3573880000000  0.5710920000000 1.0
C      1  0.5330300000000  0.4099930000000  0.5352160000000 1.0
C      1  0.4942250000000  0.5901350000000  0.4197740000000 1.0
C      1  0.4665810000000  0.3758270000000  0.5517340000000 1.0
C      1  0.5039190000000  0.5067930000000  0.4317360000000 1.0
C      1  0.4601530000000  0.4998980000000  0.4816350000000 1.0
C      1  0.4981310000000  0.4028030000000  0.4511060000000 1.0
C      1  0.4235810000000  0.3855000000000  0.4634440000000 1.0
C      1  0.4828840000000  0.5651080000000  0.4906730000000 1.0
C      1  0.4690180000000  0.6225900000000  0.5693490000000 1.0
C      1  0.5064790000000  0.5720470000000  0.4743700000000 1.0
C      1  0.5947110000000  0.4489870000000  0.5228580000000 1.0
C      1  0.5628500000000  0.4984440000000  0.5030020000000 1.0
C      1  0.5051460000000  0.3628180000000  0.5234950000000 1.0
C      1  0.4801240000000  0.5168140000000  0.4714580000000 1.0
C      1  0.4641950000000  0.5017700000000  0.6176490000000 1.0
C      1  0.5446680000000  0.5304410000000  0.3975840000000 1.0
C      1  0.5612420000000  0.4542500000000  0.4131950000000 1.0
C      1  0.3882050000000  0.4571010000000  0.4525620000000 1.0
C      1  0.5289710000000  0.4478380000000  0.4987830000000 1.0
C      1  0.3994840000000  0.5026450000000  0.5589830000000 1.0
C      1  0.5906640000000  0.4839720000000  0.5684490000000 1.0
C      1  0.5660430000000  0.4788950000000  0.4632660000000 1.0
C      1  0.4264290000000  0.5121140000000  0.4553110000000 1.0
C      1  0.4932680000000  0.5124720000000  0.3691730000000 1.0
C      1  0.4385400000000  0.5381500000000  0.4646980000000 1.0
C      1  0.5800440000000  0.5554250000000  0.5612020000000 1.0
C      1  0.5087150000000  0.4024860000000  0.5510790000000 1.0
C      1  0.5185520000000  0.4776930000000  0.4658480000000 1.0
C      1  0.4476080000000  0.4906040000000  0.5056080000000 1.0
C      1  0.4847630000000  0.5466900000000  0.4300370000000 1.0
C      1  0.5227780000000  0.5359730000000  0.4962160000000 1.0
C      1  0.6067320000000  0.5176750000000  0.5411980000000 1.0
C      1  0.5768870000000  0.5231090000000  0.4340350000000 1.0
C      1  0.5387090000000  0.4117570000000  0.4289460000000 1.0
C      1  0.4497320000000  0.5748500000000  0.5753240000000 1.0
C      1  0.4853790000000  0.4638270000000  0.5950140000000 1.0
C      1  0.5511010000000  0.4299280000000  0.5484510000000 1.0
C      1  0.4755670000000  0.4409190000000  0.5006860000000 1.0
C      1  0.4182100000000  0.3908900000000  0.4380540000000 1.0
C      1  0.5499080000000  0.4361950000000  0.4814450000000 1.0
C      1  0.3987400000000  0.5054530000000  0.4594580000000 1.0
C      1  0.4357380000000  0.4140880000000  0.5534590000000 1.0
C      1  0.5773720000000  0.4462970000000  0.4361880000000 1.0
C      1  0.5153830000000  0.4936140000000  0.4891040000000 1.0
C      1  0.4534640000000  0.4602220000000  0.4590280000000 1.0
C      1  0.4043560000000  0.4593410000000  0.5968490000000 1.0
C      1  0.5298530000000  0.5128720000000  0.4421260000000 1.0
C      1  0.5562540000000  0.4811940000000  0.4014120000000 1.0
C      1  0.5602090000000  0.5655960000000  0.4811310000000 1.0
C      1  0.4922250000000  0.6345480000000  0.5641410000000 1.0
C      1  0.5767090000000  0.4345140000000  0.5367650000000 1.0
C      1  0.4726450000000  0.5239520000000  0.6301200000000 1.0
C      1  0.5079310000000  0.4928930000000  0.3838600000000 1.0
C      1  0.4840210000000  0.5225780000000  0.4438130000000 1.0
C      1  0.5014910000000  0.4436660000000  0.4887160000000 1.0
C      1  0.5616550000000  0.5485930000000  0.4341470000000 1.0
C      1  0.4914290000000  0.4590920000000  0.5438720000000 1.0
C      1  0.6083630000000  0.4883650000000  0.5463230000000 1.0
C      1  0.5414200000000  0.4891550000000  0.4531490000000 1.0
C      1  0.4246770000000  0.4608440000000  0.5783970000000 1.0
C      1  0.4852090000000  0.5476480000000  0.6296170000000 1.0
C      1  0.5404510000000  0.4087160000000  0.4796610000000 1.0
C      1  0.4334340000000  0.4651620000000  0.5028790000000 1.0
C      1  0.4775970000000  0.4484500000000  0.4479620000000 1.0
C      1  0.4977840000000  0.4174090000000  0.5728870000000 1.0
C      1  0.5622450000000  0.5937620000000  0.4768390000000 1.0
C      1  0.5123500000000  0.4724180000000  0.5996130000000 1.0
C      1  0.3895920000000  0.4852430000000  0.5024370000000 1.0
C      1  0.5190070000000  0.4616980000000  0.5435980000000 1.0
C      1  0.6108740000000  0.5214840000000  0.5130170000000 1.0
C      1  0.5858000000000  0.5284050000000  0.5583910000000 1.0
C      1  0.4845240000000  0.4365230000000  0.5867360000000 1.0
C      1  0.5612000000000  0.6046510000000  0.5576620000000 1.0
C      1  0.4406460000000  0.5969980000000  0.4689510000000 1.0
C      1  0.5827220000000  0.5465030000000  0.4797730000000 1.0
C      1  0.3882710000000  0.5085540000000  0.4862190000000 1.0
C      1  0.4933120000000  0.3794590000000  0.5429170000000 1.0
C      1  0.4649830000000  0.5904380000000  0.4195170000000 1.0
C      1  0.5355050000000  0.4944480000000  0.5114500000000 1.0
C      1  0.4795230000000  0.4205840000000  0.4419440000000 1.0
C      1  0.4348340000000  0.5342220000000  0.5528170000000 1.0
C      1  0.4759090000000  0.5332650000000  0.3710820000000 1.0
C      1  0.5720030000000  0.5060620000000  0.5719060000000 1.0
C      1  0.6073730000000  0.4948040000000  0.4990370000000 1.0
C      1  0.5103940000000  0.6100560000000  0.4309300000000 1.0
C      1  0.6026410000000  0.5451970000000  0.5000170000000 1.0
C      1  0.5426460000000  0.6236950000000  0.5577000000000 1.0
C      1  0.4534990000000  0.5477460000000  0.5694490000000 1.0
C      1  0.4303760000000  0.4384530000000  0.5626010000000 1.0
C      1  0.4348430000000  0.5894330000000  0.4946050000000 1.0
C      1  0.5005410000000  0.4566980000000  0.4627090000000 1.0
C      1  0.4406270000000  0.4851540000000  0.5772970000000 1.0
C      1  0.4750650000000  0.4447740000000  0.5284120000000 1.0
C      1  0.4362470000000  0.3850910000000  0.5147360000000 1.0
C      1  0.4894050000000  0.5640140000000  0.5192520000000 1.0
C      1  0.5720750000000  0.5721880000000  0.4237190000000 1.0
C      1  0.5358840000000  0.4738160000000  0.5834780000000 1.0
C      1  0.4548460000000  0.5743050000000  0.3978850000000 1.0
C      1  0.5027060000000  0.5182350000000  0.4865570000000 1.0
C      1  0.4294680000000  0.3833530000000  0.4891900000000 1.0
C      1  0.4983330000000  0.4902280000000  0.4102480000000 1.0
C      1  0.5316560000000  0.6173140000000  0.4455600000000 1.0
C      1  0.4134930000000  0.3980000000000  0.4134210000000 1.0
C      1  0.5185050000000  0.6346440000000  0.5599360000000 1.0
C      1  0.5250600000000  0.5497260000000  0.4011090000000 1.0
C      1  0.4514200000000  0.4490870000000  0.4867760000000 1.0
C      1  0.4635880000000  0.4835680000000  0.5957300000000 1.0
C      1  0.6070910000000  0.4742930000000  0.5209680000000 1.0
C      1  0.3850720000000  0.5324030000000  0.5002080000000 1.0
C      1  0.4753560000000  0.5329750000000  0.5785500000000 1.0
C      1  0.5375920000000  0.5403020000000  0.4485360000000 1.0
C      1  0.5732340000000  0.5810210000000  0.5593610000000 1.0
C      1  0.5825140000000  0.4965280000000  0.4808290000000 1.0
C      1  0.5229780000000  0.5352200000000  0.5444600000000 1.0
C      1  0.3883860000000  0.4831790000000  0.4449780000000 1.0
C      1  0.5572280000000  0.6078480000000  0.4526200000000 1.0
C      1  0.4992310000000  0.5214730000000  0.5818500000000 1.0
C      1  0.5304320000000  0.5231860000000  0.5208510000000 1.0
C      1  0.5725340000000  0.5980470000000  0.4309230000000 1.0
C      1  0.5444310000000  0.5009320000000  0.5759990000000 1.0
C      1  0.5345210000000  0.4824600000000  0.3816610000000 1.0
C      1  0.4268200000000  0.5074750000000  0.5625260000000 1.0
C      1  0.5637290000000  0.5091130000000  0.4100530000000 1.0
C      1  0.4503740000000  0.5968800000000  0.4434610000000 1.0
C      1  0.5238190000000  0.5198800000000  0.5685330000000 1.0
C      1  0.5379300000000  0.4525780000000  0.5632010000000 1.0
C      1  0.4615080000000  0.5538620000000  0.3812090000000 1.0
C      1  0.4458800000000  0.3916200000000  0.5401430000000 1.0
C      1  0.5065890000000  0.5592600000000  0.5422280000000 1.0
C      1  0.5037190000000  0.5629340000000  0.4155800000000 1.0
C      1  0.5435450000000  0.4314910000000  0.4107660000000 1.0
C      1  0.5068090000000  0.5754690000000  0.5654100000000 1.0
C      1  0.5355680000000  0.3971430000000  0.5069570000000 1.0
END
