TITL C-247200-3482-651 1.39423304269939e-07 125000 -706.401466089846 0 0 114 (C1) n - 1
REM
REM in /home/nfs/bkarasulu/CARBON/AIRSS/Generating-Clusters/LCBOP/Only-C1/SD-CG/FIRE-HFTN
REM
REM
REM
REM
REM
REM ./C.cell (11c1c37f851c82e70ff6c80c92926a4b)
REM AIRSS Version 0.9.1 bugfix July 2018 build 013d7b7c2542+ Fri, 06 Jul 2018 19:26:36 +0100
REM compiler GCC version 9.2.1 20190827 (Red Hat 9.2.1-1)
REM options -cpp -mtune=generic -march=x86-64 -g -O0 -fpre-include=/usr/include/finclude/math-vector-fortran.h
REM seed -631773174 -1121236156 2104728401 1457581802 632328723 -1287296693 1642145100 818906340 -1092171786 28556706 315768310 -730351722 731330610 -2016336368 1434058502 -227124853 671664790 -250561705 -348916962 32627913 -102428714 1885011430 1979489975 461546009 -1628680889 -729107646 1988966525 392457185 -206617329 1147965677 1148487992 1657405199 915678747
REM
CELL 1.54180   50.00000   50.00000   50.00000   90.00000   90.00000   90.00000
LATT -1
SFAC C  
C      1  0.4410910000000  0.4605110000000  0.4851670000000 1.0
C      1  0.5874930000000  0.4608580000000  0.5062480000000 1.0
C      1  0.4719150000000  0.5146470000000  0.5512220000000 1.0
C      1  0.4177210000000  0.5237150000000  0.5475710000000 1.0
C      1  0.3974220000000  0.4878970000000  0.5033960000000 1.0
C      1  0.4875160000000  0.4154660000000  0.4693740000000 1.0
C      1  0.6015140000000  0.5121150000000  0.4517990000000 1.0
C      1  0.5196630000000  0.4430130000000  0.4168390000000 1.0
C      1  0.5817340000000  0.5204720000000  0.5136800000000 1.0
C      1  0.5670330000000  0.5430460000000  0.5037740000000 1.0
C      1  0.6151440000000  0.5161730000000  0.4761500000000 1.0
C      1  0.5546340000000  0.4686880000000  0.6418640000000 1.0
C      1  0.5705550000000  0.5012480000000  0.5314920000000 1.0
C      1  0.4397270000000  0.5706090000000  0.4902720000000 1.0
C      1  0.4678070000000  0.4255100000000  0.5296230000000 1.0
C      1  0.4739470000000  0.4890590000000  0.5098620000000 1.0
C      1  0.4416380000000  0.4519450000000  0.5582240000000 1.0
C      1  0.4704290000000  0.4149610000000  0.4468630000000 1.0
C      1  0.5015090000000  0.4822200000000  0.5164550000000 1.0
C      1  0.4607850000000  0.5432760000000  0.6337910000000 1.0
C      1  0.5435200000000  0.4594220000000  0.4144940000000 1.0
C      1  0.5061180000000  0.4021330000000  0.5114980000000 1.0
C      1  0.5094970000000  0.4335630000000  0.4658150000000 1.0
C      1  0.4227920000000  0.5115750000000  0.4503830000000 1.0
C      1  0.5256460000000  0.5710500000000  0.5138520000000 1.0
C      1  0.4703060000000  0.5183410000000  0.6248210000000 1.0
C      1  0.6069560000000  0.5165660000000  0.5017170000000 1.0
C      1  0.4708750000000  0.5353510000000  0.4811290000000 1.0
C      1  0.4450120000000  0.4418420000000  0.5320890000000 1.0
C      1  0.5497780000000  0.6132510000000  0.5256370000000 1.0
C      1  0.4543440000000  0.6103420000000  0.4663360000000 1.0
C      1  0.4301940000000  0.4387390000000  0.4426240000000 1.0
C      1  0.4243640000000  0.5504820000000  0.5548600000000 1.0
C      1  0.5674420000000  0.5666220000000  0.3957020000000 1.0
C      1  0.4157220000000  0.5093620000000  0.5006800000000 1.0
C      1  0.4195740000000  0.4863590000000  0.5819620000000 1.0
C      1  0.4591360000000  0.5077670000000  0.5264370000000 1.0
C      1  0.4032550000000  0.4629680000000  0.5127010000000 1.0
C      1  0.4975180000000  0.5665980000000  0.5050630000000 1.0
C      1  0.4287000000000  0.4617780000000  0.4589870000000 1.0
C      1  0.5052690000000  0.4809320000000  0.5444450000000 1.0
C      1  0.5343650000000  0.4861830000000  0.4082000000000 1.0
C      1  0.5335570000000  0.4078620000000  0.5066670000000 1.0
C      1  0.4312050000000  0.5138970000000  0.5242620000000 1.0
C      1  0.4949140000000  0.5409330000000  0.4935710000000 1.0
C      1  0.5200370000000  0.4286180000000  0.4403520000000 1.0
C      1  0.5825280000000  0.5571960000000  0.4553480000000 1.0
C      1  0.5826930000000  0.4647060000000  0.4509140000000 1.0
C      1  0.4291400000000  0.4515230000000  0.5097750000000 1.0
C      1  0.4678240000000  0.4562940000000  0.4172680000000 1.0
C      1  0.4946840000000  0.4178370000000  0.5325080000000 1.0
C      1  0.4657500000000  0.5114110000000  0.5978270000000 1.0
C      1  0.5785470000000  0.5583500000000  0.4830300000000 1.0
C      1  0.5137520000000  0.4305790000000  0.5490930000000 1.0
C      1  0.5195850000000  0.4785150000000  0.4934620000000 1.0
C      1  0.5725340000000  0.4614140000000  0.6236480000000 1.0
C      1  0.4439820000000  0.5437190000000  0.4809240000000 1.0
C      1  0.4434350000000  0.4714410000000  0.5783900000000 1.0
C      1  0.4860050000000  0.4908480000000  0.5622550000000 1.0
C      1  0.5394450000000  0.5464660000000  0.5072880000000 1.0
C      1  0.5658170000000  0.4547320000000  0.4308160000000 1.0
C      1  0.5207900000000  0.5280730000000  0.4946690000000 1.0
C      1  0.5414220000000  0.4326900000000  0.4987630000000 1.0
C      1  0.5782720000000  0.4548760000000  0.5726620000000 1.0
C      1  0.4174140000000  0.5706500000000  0.5368650000000 1.0
C      1  0.4825860000000  0.4758490000000  0.4654340000000 1.0
C      1  0.4247280000000  0.5224530000000  0.4769670000000 1.0
C      1  0.5607770000000  0.5410130000000  0.4007580000000 1.0
C      1  0.4451320000000  0.5520560000000  0.5741010000000 1.0
C      1  0.5376660000000  0.4427510000000  0.5505680000000 1.0
C      1  0.5403780000000  0.5059280000000  0.4279290000000 1.0
C      1  0.5583870000000  0.5107280000000  0.5543020000000 1.0
C      1  0.5803670000000  0.4604740000000  0.4787960000000 1.0
C      1  0.4753230000000  0.5033710000000  0.4273200000000 1.0
C      1  0.4762010000000  0.3716460000000  0.4879390000000 1.0
C      1  0.5074950000000  0.4893450000000  0.6503200000000 1.0
C      1  0.4213980000000  0.5756270000000  0.5109260000000 1.0
C      1  0.5998000000000  0.4856220000000  0.4430710000000 1.0
C      1  0.5280990000000  0.5996040000000  0.5167380000000 1.0
C      1  0.4862720000000  0.5023970000000  0.6412210000000 1.0
C      1  0.4738970000000  0.5701170000000  0.3960820000000 1.0
C      1  0.4592520000000  0.5912390000000  0.4853210000000 1.0
C      1  0.4553020000000  0.4830570000000  0.4239730000000 1.0
C      1  0.4200570000000  0.5303390000000  0.4294680000000 1.0
C      1  0.5028040000000  0.6111520000000  0.5082060000000 1.0
C      1  0.4083870000000  0.5057960000000  0.5671160000000 1.0
C      1  0.5315280000000  0.4781040000000  0.6509250000000 1.0
C      1  0.5820120000000  0.5310500000000  0.4431470000000 1.0
C      1  0.4448180000000  0.5694970000000  0.5960490000000 1.0
C      1  0.4508460000000  0.5651940000000  0.6218890000000 1.0
C      1  0.4558320000000  0.4333900000000  0.4312520000000 1.0
C      1  0.5781250000000  0.5843570000000  0.4130190000000 1.0
C      1  0.4813650000000  0.5312190000000  0.4241030000000 1.0
C      1  0.4835340000000  0.5911440000000  0.4998810000000 1.0
C      1  0.5626130000000  0.4559980000000  0.5493130000000 1.0
C      1  0.4953830000000  0.4570910000000  0.4068230000000 1.0
C      1  0.4943790000000  0.4918360000000  0.4460510000000 1.0
C      1  0.5812270000000  0.4567260000000  0.5989930000000 1.0
C      1  0.4329520000000  0.4856540000000  0.4432840000000 1.0
C      1  0.4893020000000  0.3955150000000  0.4894980000000 1.0
C      1  0.5614430000000  0.5247730000000  0.4239870000000 1.0
C      1  0.4651110000000  0.4751120000000  0.4871340000000 1.0
C      1  0.4683450000000  0.4846650000000  0.5849200000000 1.0
C      1  0.4366820000000  0.5456250000000  0.4150800000000 1.0
C      1  0.5844950000000  0.5798570000000  0.4388130000000 1.0
C      1  0.4642990000000  0.5496250000000  0.4113140000000 1.0
C      1  0.6114020000000  0.4490340000000  0.5131390000000 1.0
C      1  0.5058770000000  0.5361340000000  0.4393830000000 1.0
C      1  0.5191720000000  0.5093070000000  0.4494160000000 1.0
C      1  0.5240370000000  0.4506170000000  0.4846800000000 1.0
C      1  0.5078440000000  0.4818460000000  0.3965390000000 1.0
C      1  0.4628990000000  0.5297460000000  0.5745750000000 1.0
C      1  0.5250480000000  0.5043460000000  0.4792170000000 1.0
C      1  0.5721310000000  0.4726920000000  0.5275640000000 1.0
END
