TITL C-247198-3593-274 1835.90039382782 125000 -888.377979278337 0 0 146 (C1) n - 1
REM
REM in /home/nfs/bkarasulu/CARBON/AIRSS/Generating-Clusters/LCBOP/Only-C1/SD-CG/FIRE-HFTN
REM
REM
REM
REM
REM
REM ./C.cell (11c1c37f851c82e70ff6c80c92926a4b)
REM AIRSS Version 0.9.1 bugfix July 2018 build 013d7b7c2542+ Fri, 06 Jul 2018 19:26:36 +0100
REM compiler GCC version 9.2.1 20190827 (Red Hat 9.2.1-1)
REM options -cpp -mtune=generic -march=x86-64 -g -O0 -fpre-include=/usr/include/finclude/math-vector-fortran.h
REM seed -278775745 -2085696239 568523543 587170754 1611248626 -119083724 509226672 597448402 -15515540 129649174 -1853543930 -1411244472 1001922534 -236025114 -453638727 1593292455 27103252 313618458 1557406884 -1876355580 346848545 186889210 1302472489 1394406550 -2001303695 -56423210 412545404 626219818 292096521 1543570351 -518676446 1692667403 252331180
REM
CELL 1.54180   50.00000   50.00000   50.00000   90.00000   90.00000   90.00000
LATT -1
SFAC C  
C      1  0.5111120000000  0.4883360000000  0.4802220000000 1.0
C      1  0.4841140000000  0.4265220000000  0.4713530000000 1.0
C      1  0.5543410000000  0.3944420000000  0.4870210000000 1.0
C      1  0.5660150000000  0.5767040000000  0.4811890000000 1.0
C      1  0.5692900000000  0.5132130000000  0.5140480000000 1.0
C      1  0.4233810000000  0.4257810000000  0.5222300000000 1.0
C      1  0.4058910000000  0.4180590000000  0.6078660000000 1.0
C      1  0.5105960000000  0.3992380000000  0.5582100000000 1.0
C      1  0.4512000000000  0.5429530000000  0.5044280000000 1.0
C      1  0.4349030000000  0.5574970000000  0.4610510000000 1.0
C      1  0.4753690000000  0.4351790000000  0.5268740000000 1.0
C      1  0.4600390000000  0.5176230000000  0.4653790000000 1.0
C      1  0.4534220000000  0.4828460000000  0.4310540000000 1.0
C      1  0.4524800000000  0.5997570000000  0.4512580000000 1.0
C      1  0.4824410000000  0.3964210000000  0.5494690000000 1.0
C      1  0.5445150000000  0.4678880000000  0.5492540000000 1.0
C      1  0.4672510000000  0.4410600000000  0.4531660000000 1.0
C      1  0.6403260000000  0.4887910000000  0.4446250000000 1.0
C      1  0.4748900000000  0.4227490000000  0.6000740000000 1.0
C      1  0.4282430000000  0.4537780000000  0.5169540000000 1.0
C      1  0.4182430000000  0.4561480000000  0.4905620000000 1.0
C      1  0.5113870000000  0.4191710000000  0.4625830000000 1.0
C      1  0.5457300000000  0.5406700000000  0.5658030000000 1.0
C      1  0.5264010000000  0.5162800000000  0.5627740000000 1.0
C      1  0.5854050000000  0.4969390000000  0.5620270000000 1.0
C      1  0.4613310000000  0.5481730000000  0.5975900000000 1.0
C      1  0.5224800000000  0.4969860000000  0.5855870000000 1.0
C      1  0.6432530000000  0.5263060000000  0.3171260000000 1.0
C      1  0.4127930000000  0.5093100000000  0.4280270000000 1.0
C      1  0.5350880000000  0.4438210000000  0.5644400000000 1.0
C      1  0.4379230000000  0.4476790000000  0.5817890000000 1.0
C      1  0.4532680000000  0.5428510000000  0.4762840000000 1.0
C      1  0.4800450000000  0.5777130000000  0.5622870000000 1.0
C      1  0.6202870000000  0.5289890000000  0.3643320000000 1.0
C      1  0.5005800000000  0.5442060000000  0.4073630000000 1.0
C      1  0.5183810000000  0.6036290000000  0.4346770000000 1.0
C      1  0.4291160000000  0.4631500000000  0.4340090000000 1.0
C      1  0.4578700000000  0.3993060000000  0.5035960000000 1.0
C      1  0.4057680000000  0.4817530000000  0.4352450000000 1.0
C      1  0.5789890000000  0.5349080000000  0.4987420000000 1.0
C      1  0.4676640000000  0.4209990000000  0.5518220000000 1.0
C      1  0.4985240000000  0.4518380000000  0.5325560000000 1.0
C      1  0.4588100000000  0.6135510000000  0.4734150000000 1.0
C      1  0.4992840000000  0.5910760000000  0.4207970000000 1.0
C      1  0.5427860000000  0.5072280000000  0.4498030000000 1.0
C      1  0.5056720000000  0.5292070000000  0.4309800000000 1.0
C      1  0.4019350000000  0.3995160000000  0.6257440000000 1.0
C      1  0.5060320000000  0.5804530000000  0.4992810000000 1.0
C      1  0.5587450000000  0.4088010000000  0.5390160000000 1.0
C      1  0.5076710000000  0.5539630000000  0.4907400000000 1.0
C      1  0.5237580000000  0.4353410000000  0.4433180000000 1.0
C      1  0.5712060000000  0.5467830000000  0.5537260000000 1.0
C      1  0.5157590000000  0.4096340000000  0.5069300000000 1.0
C      1  0.5230130000000  0.5491800000000  0.4683510000000 1.0
C      1  0.5309510000000  0.5666370000000  0.5620450000000 1.0
C      1  0.4993110000000  0.5305630000000  0.5039610000000 1.0
C      1  0.4599580000000  0.4303340000000  0.5776100000000 1.0
C      1  0.4757650000000  0.5985740000000  0.5433720000000 1.0
C      1  0.5030640000000  0.3834700000000  0.5116570000000 1.0
C      1  0.5467320000000  0.4902070000000  0.5992010000000 1.0
C      1  0.5364440000000  0.6038380000000  0.5274340000000 1.0
C      1  0.5276130000000  0.5986320000000  0.5012660000000 1.0
C      1  0.5303700000000  0.4842080000000  0.4593970000000 1.0
C      1  0.4659280000000  0.6224260000000  0.4993740000000 1.0
C      1  0.6318600000000  0.5276390000000  0.3405370000000 1.0
C      1  0.5753870000000  0.4324010000000  0.5363890000000 1.0
C      1  0.4249150000000  0.5515810000000  0.5130960000000 1.0
C      1  0.5725880000000  0.5626020000000  0.5065300000000 1.0
C      1  0.4689470000000  0.5232870000000  0.6052120000000 1.0
C      1  0.5326880000000  0.4603840000000  0.4451690000000 1.0
C      1  0.5713140000000  0.4928740000000  0.5847480000000 1.0
C      1  0.3928940000000  0.4516010000000  0.5724860000000 1.0
C      1  0.4892370000000  0.4181420000000  0.6213350000000 1.0
C      1  0.5233240000000  0.3345780000000  0.5015770000000 1.0
C      1  0.5689880000000  0.5680500000000  0.5340130000000 1.0
C      1  0.5599310000000  0.3925650000000  0.5154050000000 1.0
C      1  0.4847260000000  0.4783380000000  0.4765460000000 1.0
C      1  0.4320750000000  0.5975000000000  0.5245620000000 1.0
C      1  0.6215850000000  0.5083790000000  0.4380000000000 1.0
C      1  0.4584040000000  0.6077380000000  0.5226800000000 1.0
C      1  0.4359270000000  0.5032890000000  0.5727580000000 1.0
C      1  0.5364290000000  0.6061890000000  0.4542710000000 1.0
C      1  0.5144130000000  0.3586270000000  0.5062110000000 1.0
C      1  0.5716830000000  0.3858070000000  0.4678740000000 1.0
C      1  0.5847110000000  0.5451430000000  0.3933850000000 1.0
C      1  0.4008150000000  0.5303910000000  0.4436770000000 1.0
C      1  0.4310760000000  0.4100650000000  0.4980290000000 1.0
C      1  0.5459760000000  0.5970450000000  0.4791790000000 1.0
C      1  0.4765120000000  0.3851900000000  0.5225360000000 1.0
C      1  0.5856310000000  0.5032370000000  0.5356420000000 1.0
C      1  0.4380550000000  0.4391540000000  0.4504380000000 1.0
C      1  0.4172930000000  0.4825510000000  0.4803230000000 1.0
C      1  0.5359250000000  0.4954910000000  0.5424420000000 1.0
C      1  0.4962010000000  0.4847680000000  0.5811870000000 1.0
C      1  0.4740090000000  0.4239420000000  0.4987940000000 1.0
C      1  0.4853580000000  0.5679140000000  0.4134900000000 1.0
C      1  0.5869310000000  0.5354310000000  0.4711190000000 1.0
C      1  0.4799200000000  0.6458350000000  0.5021580000000 1.0
C      1  0.4594590000000  0.4736760000000  0.5470820000000 1.0
C      1  0.4630500000000  0.4815270000000  0.4959680000000 1.0
C      1  0.6081710000000  0.5303730000000  0.3893760000000 1.0
C      1  0.4833980000000  0.5191050000000  0.4473440000000 1.0
C      1  0.4115010000000  0.4373820000000  0.5889580000000 1.0
C      1  0.5562950000000  0.5515620000000  0.4364540000000 1.0
C      1  0.4645850000000  0.5273390000000  0.3832100000000 1.0
C      1  0.4995770000000  0.5324050000000  0.5575700000000 1.0
C      1  0.5032450000000  0.5612860000000  0.5618300000000 1.0
C      1  0.6753640000000  0.4517030000000  0.4572710000000 1.0
C      1  0.4434590000000  0.4963070000000  0.4795360000000 1.0
C      1  0.4354760000000  0.4743780000000  0.5660660000000 1.0
C      1  0.4513670000000  0.5201140000000  0.5585110000000 1.0
C      1  0.5351770000000  0.4148890000000  0.5565630000000 1.0
C      1  0.5411380000000  0.5059060000000  0.5163560000000 1.0
C      1  0.4569190000000  0.5664050000000  0.5760180000000 1.0
C      1  0.4750210000000  0.5260170000000  0.5449280000000 1.0
C      1  0.4412040000000  0.5094830000000  0.4214380000000 1.0
C      1  0.5658040000000  0.5531060000000  0.4103150000000 1.0
C      1  0.4916080000000  0.5312110000000  0.3838180000000 1.0
C      1  0.5424630000000  0.4509970000000  0.5074970000000 1.0
C      1  0.4881930000000  0.4711350000000  0.5547140000000 1.0
C      1  0.4506480000000  0.5331850000000  0.4077730000000 1.0
C      1  0.5727800000000  0.5581710000000  0.4590990000000 1.0
C      1  0.6579990000000  0.4701090000000  0.4510010000000 1.0
C      1  0.5171850000000  0.5079210000000  0.5004850000000 1.0
C      1  0.5325100000000  0.5344810000000  0.4444410000000 1.0
C      1  0.6052040000000  0.5194800000000  0.4578010000000 1.0
C      1  0.4054020000000  0.4713430000000  0.5580230000000 1.0
C      1  0.3963140000000  0.4845540000000  0.4618270000000 1.0
C      1  0.5614140000000  0.4557370000000  0.5282740000000 1.0
C      1  0.4251850000000  0.4313840000000  0.4753900000000 1.0
C      1  0.4455950000000  0.5741720000000  0.4412870000000 1.0
C      1  0.4087680000000  0.5474510000000  0.4653170000000 1.0
C      1  0.5288900000000  0.4062820000000  0.4812870000000 1.0
C      1  0.5184370000000  0.4380690000000  0.5157050000000 1.0
C      1  0.4251800000000  0.5715380000000  0.5337090000000 1.0
C      1  0.4741590000000  0.5321080000000  0.5175810000000 1.0
C      1  0.4326790000000  0.5666030000000  0.5607740000000 1.0
C      1  0.4739520000000  0.4696660000000  0.4498370000000 1.0
C      1  0.4516590000000  0.4703130000000  0.5200780000000 1.0
C      1  0.4774630000000  0.4983490000000  0.5984790000000 1.0
C      1  0.4576400000000  0.5604480000000  0.4190590000000 1.0
C      1  0.6190000000000  0.5170360000000  0.4115060000000 1.0
C      1  0.4026970000000  0.5469800000000  0.4940080000000 1.0
C      1  0.3772570000000  0.5421850000000  0.5030390000000 1.0
C      1  0.5461530000000  0.5835870000000  0.5441280000000 1.0
C      1  0.5464770000000  0.4815250000000  0.6251060000000 1.0
END
