TITL C-247196-3112-339 -6.07847959274266e-07 125000 -658.945426553866 0 0 107 (C1) n - 1
REM
REM in /home/nfs/bkarasulu/CARBON/AIRSS/Generating-Clusters/LCBOP/Only-C1/SD-CG/FIRE-HFTN
REM
REM
REM
REM
REM
REM ./C.cell (11c1c37f851c82e70ff6c80c92926a4b)
REM AIRSS Version 0.9.1 bugfix July 2018 build 013d7b7c2542+ Fri, 06 Jul 2018 19:26:36 +0100
REM compiler GCC version 9.2.1 20190827 (Red Hat 9.2.1-1)
REM options -cpp -mtune=generic -march=x86-64 -g -O0 -fpre-include=/usr/include/finclude/math-vector-fortran.h
REM seed -858144159 1746893532 -546340337 -1370643 1619024752 1759055722 -1861389691 -1998475096 1832079793 -1605683588 -634422884 769750864 1783294402 807810063 1645636524 -315754405 -1728909358 832014380 901086414 -1322305696 1717751411 -47021324 -1877488955 -861547516 675909673 1569808769 171013230 -123171699 602792397 -1439331031 -1171395909 -1196944579 -1993362463
REM
CELL 1.54180   50.00000   50.00000   50.00000   90.00000   90.00000   90.00000
LATT -1
SFAC C  
C      1  0.5601820000000  0.4826360000000  0.5393810000000 1.0
C      1  0.5099980000000  0.5004850000000  0.5098940000000 1.0
C      1  0.5761120000000  0.4751400000000  0.4431270000000 1.0
C      1  0.4400890000000  0.5005620000000  0.4336800000000 1.0
C      1  0.4848140000000  0.5509380000000  0.4555570000000 1.0
C      1  0.4664040000000  0.4104810000000  0.5211060000000 1.0
C      1  0.5427540000000  0.5231700000000  0.6124580000000 1.0
C      1  0.4320770000000  0.4451120000000  0.5322090000000 1.0
C      1  0.5934440000000  0.5252450000000  0.4296850000000 1.0
C      1  0.5491130000000  0.5310950000000  0.5059480000000 1.0
C      1  0.4137880000000  0.5435760000000  0.4989460000000 1.0
C      1  0.4845010000000  0.5325150000000  0.5764030000000 1.0
C      1  0.5856830000000  0.4790300000000  0.4942170000000 1.0
C      1  0.4706270000000  0.5279610000000  0.5047850000000 1.0
C      1  0.4070560000000  0.4881420000000  0.4946080000000 1.0
C      1  0.4706190000000  0.4704410000000  0.4810230000000 1.0
C      1  0.5336430000000  0.4877870000000  0.5798930000000 1.0
C      1  0.4536330000000  0.4843290000000  0.4962900000000 1.0
C      1  0.5837570000000  0.4496260000000  0.4968690000000 1.0
C      1  0.4474690000000  0.4296340000000  0.5123350000000 1.0
C      1  0.5163160000000  0.4496100000000  0.4687390000000 1.0
C      1  0.4784130000000  0.4636390000000  0.4244610000000 1.0
C      1  0.4312000000000  0.5655030000000  0.5054240000000 1.0
C      1  0.4065500000000  0.5029290000000  0.4700080000000 1.0
C      1  0.4419870000000  0.5300230000000  0.4362640000000 1.0
C      1  0.4308710000000  0.4946010000000  0.5089420000000 1.0
C      1  0.5498150000000  0.5196770000000  0.4092650000000 1.0
C      1  0.4850320000000  0.5131380000000  0.4260780000000 1.0
C      1  0.5789550000000  0.4408650000000  0.5236480000000 1.0
C      1  0.5907500000000  0.5648300000000  0.5443760000000 1.0
C      1  0.5275510000000  0.4237650000000  0.4684770000000 1.0
C      1  0.4052000000000  0.4490710000000  0.5225430000000 1.0
C      1  0.4812940000000  0.6018950000000  0.5036470000000 1.0
C      1  0.5769640000000  0.5222060000000  0.4080350000000 1.0
C      1  0.5369950000000  0.4945050000000  0.5524660000000 1.0
C      1  0.5236400000000  0.5795660000000  0.4495540000000 1.0
C      1  0.4836200000000  0.3673270000000  0.5277450000000 1.0
C      1  0.4329420000000  0.5236270000000  0.5835650000000 1.0
C      1  0.4961230000000  0.4597670000000  0.4851740000000 1.0
C      1  0.4869170000000  0.4800660000000  0.5489830000000 1.0
C      1  0.4183580000000  0.5013010000000  0.5798730000000 1.0
C      1  0.4991270000000  0.4590170000000  0.5337840000000 1.0
C      1  0.5837630000000  0.5225900000000  0.4577580000000 1.0
C      1  0.4535540000000  0.5667540000000  0.5243490000000 1.0
C      1  0.5041430000000  0.4350640000000  0.5475620000000 1.0
C      1  0.4576160000000  0.4287940000000  0.4609390000000 1.0
C      1  0.5174680000000  0.5526730000000  0.5375020000000 1.0
C      1  0.5906080000000  0.5193830000000  0.5250840000000 1.0
C      1  0.4185170000000  0.4880380000000  0.4477690000000 1.0
C      1  0.5978910000000  0.5384760000000  0.5445610000000 1.0
C      1  0.5545250000000  0.5770760000000  0.5102110000000 1.0
C      1  0.4318890000000  0.5828530000000  0.4823790000000 1.0
C      1  0.4695400000000  0.5380360000000  0.4340640000000 1.0
C      1  0.5448630000000  0.5648140000000  0.4614530000000 1.0
C      1  0.4683050000000  0.4751340000000  0.5926140000000 1.0
C      1  0.4924270000000  0.5169010000000  0.4918000000000 1.0
C      1  0.5253740000000  0.5092750000000  0.5967210000000 1.0
C      1  0.4674570000000  0.4416830000000  0.4391570000000 1.0
C      1  0.5002200000000  0.3846290000000  0.5416050000000 1.0
C      1  0.4106990000000  0.5310050000000  0.4730750000000 1.0
C      1  0.5415460000000  0.4906390000000  0.4775010000000 1.0
C      1  0.4995290000000  0.5274780000000  0.4666130000000 1.0
C      1  0.5354660000000  0.5238300000000  0.4334100000000 1.0
C      1  0.5491980000000  0.4675600000000  0.4365070000000 1.0
C      1  0.5045890000000  0.4608860000000  0.4129230000000 1.0
C      1  0.4395710000000  0.4621100000000  0.5549530000000 1.0
C      1  0.4652130000000  0.4712650000000  0.5647100000000 1.0
C      1  0.5062190000000  0.4701530000000  0.5091750000000 1.0
C      1  0.5062420000000  0.5054350000000  0.5405530000000 1.0
C      1  0.5508370000000  0.5380970000000  0.4523390000000 1.0
C      1  0.4808360000000  0.4947090000000  0.6062120000000 1.0
C      1  0.4635440000000  0.3818980000000  0.5153490000000 1.0
C      1  0.5186290000000  0.4388400000000  0.5717500000000 1.0
C      1  0.5747430000000  0.5816100000000  0.5300820000000 1.0
C      1  0.4301020000000  0.5098390000000  0.5312670000000 1.0
C      1  0.4944190000000  0.5345530000000  0.5474740000000 1.0
C      1  0.5845170000000  0.4920950000000  0.4660330000000 1.0
C      1  0.5096690000000  0.5154600000000  0.4414790000000 1.0
C      1  0.4239250000000  0.5452690000000  0.4517560000000 1.0
C      1  0.5344740000000  0.4697540000000  0.4606820000000 1.0
C      1  0.5620780000000  0.5769790000000  0.4816340000000 1.0
C      1  0.4150370000000  0.4598290000000  0.4505370000000 1.0
C      1  0.5291410000000  0.4601300000000  0.5848940000000 1.0
C      1  0.4398400000000  0.4317590000000  0.4833100000000 1.0
C      1  0.5538590000000  0.4177610000000  0.4700050000000 1.0
C      1  0.4187390000000  0.4768120000000  0.5683240000000 1.0
C      1  0.5777310000000  0.5319840000000  0.5034240000000 1.0
C      1  0.4673740000000  0.5914830000000  0.5241870000000 1.0
C      1  0.5648180000000  0.4545480000000  0.5422480000000 1.0
C      1  0.5762510000000  0.4308540000000  0.4772800000000 1.0
C      1  0.4153350000000  0.4457580000000  0.4756060000000 1.0
C      1  0.4972400000000  0.5760550000000  0.4599870000000 1.0
C      1  0.5814720000000  0.4925360000000  0.5214390000000 1.0
C      1  0.4017020000000  0.4600300000000  0.4965940000000 1.0
C      1  0.4885880000000  0.5947630000000  0.4789560000000 1.0
C      1  0.5362390000000  0.5073980000000  0.4988720000000 1.0
C      1  0.4911260000000  0.4120520000000  0.5383040000000 1.0
C      1  0.5282610000000  0.5963980000000  0.4285030000000 1.0
C      1  0.5891750000000  0.5683640000000  0.4768890000000 1.0
C      1  0.4701340000000  0.5433660000000  0.5280740000000 1.0
C      1  0.4278160000000  0.5729650000000  0.4572350000000 1.0
C      1  0.4668800000000  0.4900660000000  0.4258980000000 1.0
C      1  0.5374150000000  0.5546970000000  0.5174150000000 1.0
C      1  0.5914550000000  0.5401940000000  0.4801300000000 1.0
C      1  0.5317090000000  0.4623300000000  0.4148400000000 1.0
C      1  0.4975390000000  0.5151200000000  0.5955950000000 1.0
C      1  0.4565420000000  0.5362840000000  0.5809830000000 1.0
END
