TITL C-247201-3759-691 932.392001076306 125000 -111.3680487513 0 0 20 (C1) n - 1
REM
REM in /home/nfs/bkarasulu/CARBON/AIRSS/Generating-Clusters/LCBOP/Only-C1/SD-CG/FIRE-HFTN
REM
REM
REM
REM
REM
REM ./C.cell (11c1c37f851c82e70ff6c80c92926a4b)
REM AIRSS Version 0.9.1 bugfix July 2018 build 013d7b7c2542+ Fri, 06 Jul 2018 19:26:36 +0100
REM compiler GCC version 9.2.1 20190827 (Red Hat 9.2.1-1)
REM options -cpp -mtune=generic -march=x86-64 -g -O0 -fpre-include=/usr/include/finclude/math-vector-fortran.h
REM seed -2062401775 376445248 -1967226637 -40416446 257553277 -1469529986 424046550 1623756844 1307070217 -1126370521 -1532952291 -521136251 764518302 1914854653 -1670634512 -1445379739 856298937 -46915438 877033759 532372424 -1866019477 -1511004319 1095783797 1766969226 1142123325 1504602189 -1346202998 -1519962173 2026040399 -385457102 -492612281 1509901428 -1298774926
REM
CELL 1.54180   50.00000   50.00000   50.00000   90.00000   90.00000   90.00000
LATT -1
SFAC C  
C      1  0.3804940000000  0.5212750000000  0.3841190000000 1.0
C      1  0.3847170000000  0.5924270000000  0.3964400000000 1.0
C      1  0.3802310000000  0.6180650000000  0.3949560000000 1.0
C      1  0.5054630000000  0.4881540000000  0.5037600000000 1.0
C      1  0.4136190000000  0.5297320000000  0.4178040000000 1.0
C      1  0.5238620000000  0.4800260000000  0.5210120000000 1.0
C      1  0.6170220000000  0.4400000000000  0.6085380000000 1.0
C      1  0.4686910000000  0.5046020000000  0.4693180000000 1.0
C      1  0.6289870000000  0.4591150000000  0.6250780000000 1.0
C      1  0.5975440000000  0.4480890000000  0.5901780000000 1.0
C      1  0.6242890000000  0.4136890000000  0.6102990000000 1.0
C      1  0.6400360000000  0.4770610000000  0.6404110000000 1.0
C      1  0.3943140000000  0.5389280000000  0.3997890000000 1.0
C      1  0.5606910000000  0.4639510000000  0.5555680000000 1.0
C      1  0.4870720000000  0.4963460000000  0.4865290000000 1.0
C      1  0.5791180000000  0.4559870000000  0.5728670000000 1.0
C      1  0.3892960000000  0.5663760000000  0.3979730000000 1.0
C      1  0.4319600000000  0.5212940000000  0.4349520000000 1.0
C      1  0.4503210000000  0.5129200000000  0.4521260000000 1.0
C      1  0.5422720000000  0.4719610000000  0.5382830000000 1.0
END
