TITL C-247202-1916-309 130.401887589985 125000 -187.451192369641 0 0 33 (C1) n - 1
REM
REM in /home/nfs/bkarasulu/CARBON/AIRSS/Generating-Clusters/LCBOP/Only-C1/SD-CG/FIRE-HFTN
REM
REM
REM
REM
REM
REM ./C.cell (11c1c37f851c82e70ff6c80c92926a4b)
REM AIRSS Version 0.9.1 bugfix July 2018 build 013d7b7c2542+ Fri, 06 Jul 2018 19:26:36 +0100
REM compiler GCC version 9.2.1 20190827 (Red Hat 9.2.1-1)
REM options -cpp -mtune=generic -march=x86-64 -g -O0 -fpre-include=/usr/include/finclude/math-vector-fortran.h
REM seed 1969571917 -202817744 -2075314006 -479916777 110160604 1151971799 1232354095 -1236297280 1748005903 878834134 1022978443 -388008205 -1706121389 -1664592892 -1904571200 -2120180972 -489903478 -2109527539 723820071 197974519 768939561 1864410524 -503761817 1791562400 745674777 2016710547 783580634 -1490996578 2138049764 -1945035582 1892355913 1369101436 -1245139401
REM
CELL 1.54180   50.00000   50.00000   50.00000   90.00000   90.00000   90.00000
LATT -1
SFAC C  
C      1  0.4115090000000  0.4373800000000  0.3815070000000 1.0
C      1  0.4132710000000  0.5168110000000  0.6363130000000 1.0
C      1  0.5646240000000  0.5153660000000  0.4474320000000 1.0
C      1  0.4348790000000  0.5137420000000  0.6220530000000 1.0
C      1  0.4495070000000  0.5128450000000  0.5148130000000 1.0
C      1  0.5988640000000  0.4970200000000  0.5012960000000 1.0
C      1  0.4627020000000  0.4686760000000  0.5297540000000 1.0
C      1  0.5052250000000  0.4919910000000  0.4858980000000 1.0
C      1  0.6153030000000  0.5027520000000  0.4811190000000 1.0
C      1  0.3719550000000  0.5152290000000  0.4935540000000 1.0
C      1  0.4759880000000  0.5559650000000  0.5335850000000 1.0
C      1  0.4786160000000  0.5075630000000  0.5927590000000 1.0
C      1  0.6159380000000  0.5115270000000  0.4544450000000 1.0
C      1  0.5463820000000  0.4987660000000  0.5114600000000 1.0
C      1  0.4568450000000  0.5106230000000  0.6075510000000 1.0
C      1  0.4782620000000  0.4848660000000  0.4868240000000 1.0
C      1  0.4522520000000  0.4650040000000  0.4433920000000 1.0
C      1  0.5908450000000  0.5162890000000  0.4427570000000 1.0
C      1  0.5329160000000  0.5008460000000  0.5358450000000 1.0
C      1  0.5175830000000  0.5026820000000  0.5573630000000 1.0
C      1  0.4386010000000  0.4557460000000  0.4226520000000 1.0
C      1  0.4249430000000  0.4464870000000  0.4019090000000 1.0
C      1  0.6397470000000  0.5152400000000  0.4405750000000 1.0
C      1  0.4635140000000  0.4884420000000  0.5108480000000 1.0
C      1  0.5443710000000  0.5098230000000  0.4637420000000 1.0
C      1  0.4993070000000  0.5048420000000  0.5764300000000 1.0
C      1  0.5742110000000  0.4955570000000  0.5111470000000 1.0
C      1  0.4224090000000  0.5144710000000  0.5082680000000 1.0
C      1  0.6620650000000  0.5187220000000  0.4275750000000 1.0
C      1  0.5318520000000  0.5003160000000  0.4869320000000 1.0
C      1  0.3969540000000  0.5149380000000  0.5009420000000 1.0
C      1  0.4656370000000  0.4743640000000  0.4642430000000 1.0
C      1  0.4629240000000  0.5351070000000  0.5250170000000 1.0
END
