TITL C-247202-1916-532 0.780448321106467 125000 -420.188175169781 0 0 70 (C1) n - 1
REM
REM in /home/nfs/bkarasulu/CARBON/AIRSS/Generating-Clusters/LCBOP/Only-C1/SD-CG/FIRE-HFTN
REM
REM
REM
REM
REM
REM ./C.cell (11c1c37f851c82e70ff6c80c92926a4b)
REM AIRSS Version 0.9.1 bugfix July 2018 build 013d7b7c2542+ Fri, 06 Jul 2018 19:26:36 +0100
REM compiler GCC version 9.2.1 20190827 (Red Hat 9.2.1-1)
REM options -cpp -mtune=generic -march=x86-64 -g -O0 -fpre-include=/usr/include/finclude/math-vector-fortran.h
REM seed 1425899364 889068312 394352628 640385642 -109387753 578298769 414671349 9149597 -1019973148 1600721437 1030277691 497280819 651752422 -1302283242 -525026879 775490528 164268080 -433931640 853030293 -1817759035 1361991811 -676986928 953076847 1970938794 -1288984119 -1296885365 1116801841 104928357 -18843856 786802934 1531996622 -2028685749 2074993608
REM
CELL 1.54180   50.00000   50.00000   50.00000   90.00000   90.00000   90.00000
LATT -1
SFAC C  
C      1  0.5916690000000  0.4715090000000  0.4922650000000 1.0
C      1  0.4678690000000  0.5162380000000  0.4767730000000 1.0
C      1  0.5270840000000  0.4748870000000  0.4825290000000 1.0
C      1  0.5230200000000  0.5065250000000  0.5770700000000 1.0
C      1  0.5788090000000  0.5080950000000  0.4637840000000 1.0
C      1  0.3465540000000  0.4066860000000  0.4470240000000 1.0
C      1  0.4806240000000  0.4726860000000  0.5400800000000 1.0
C      1  0.5202170000000  0.4960880000000  0.5282690000000 1.0
C      1  0.3749400000000  0.4917240000000  0.4932090000000 1.0
C      1  0.5808950000000  0.4819130000000  0.5497470000000 1.0
C      1  0.5676400000000  0.5364200000000  0.5753740000000 1.0
C      1  0.4287160000000  0.4961670000000  0.4988870000000 1.0
C      1  0.5157100000000  0.4839030000000  0.4289650000000 1.0
C      1  0.5284600000000  0.5404470000000  0.5166120000000 1.0
C      1  0.4187500000000  0.4678740000000  0.4466220000000 1.0
C      1  0.5057980000000  0.5559880000000  0.5225480000000 1.0
C      1  0.4898030000000  0.5124770000000  0.4585010000000 1.0
C      1  0.5288190000000  0.4378100000000  0.5468180000000 1.0
C      1  0.5327570000000  0.5984510000000  0.5101670000000 1.0
C      1  0.4789650000000  0.5203000000000  0.5459940000000 1.0
C      1  0.5705660000000  0.5436900000000  0.5482940000000 1.0
C      1  0.5567720000000  0.5846060000000  0.5041890000000 1.0
C      1  0.5431700000000  0.5254490000000  0.5838460000000 1.0
C      1  0.3891260000000  0.4280320000000  0.4546800000000 1.0
C      1  0.5921780000000  0.5329430000000  0.5890630000000 1.0
C      1  0.3992600000000  0.4788600000000  0.4294300000000 1.0
C      1  0.5651140000000  0.4905910000000  0.4456770000000 1.0
C      1  0.4113860000000  0.4427820000000  0.4572130000000 1.0
C      1  0.5328140000000  0.4791310000000  0.5730150000000 1.0
C      1  0.4641330000000  0.4960230000000  0.5396490000000 1.0
C      1  0.4887730000000  0.4590110000000  0.5636130000000 1.0
C      1  0.6188350000000  0.5103340000000  0.5550910000000 1.0
C      1  0.5310720000000  0.5138210000000  0.5099700000000 1.0
C      1  0.5024910000000  0.4745460000000  0.5221570000000 1.0
C      1  0.5177700000000  0.4583120000000  0.5042140000000 1.0
C      1  0.5737750000000  0.5638290000000  0.5056960000000 1.0
C      1  0.5155970000000  0.5216480000000  0.4655360000000 1.0
C      1  0.3565390000000  0.4492210000000  0.4251640000000 1.0
C      1  0.3497500000000  0.4853760000000  0.4879460000000 1.0
C      1  0.5344810000000  0.4397030000000  0.5187100000000 1.0
C      1  0.4701980000000  0.5335650000000  0.4991490000000 1.0
C      1  0.5170970000000  0.4557020000000  0.5662900000000 1.0
C      1  0.6151400000000  0.5229500000000  0.5787590000000 1.0
C      1  0.5086010000000  0.5672940000000  0.4502740000000 1.0
C      1  0.4009320000000  0.4956280000000  0.4965150000000 1.0
C      1  0.5812770000000  0.4477840000000  0.4987060000000 1.0
C      1  0.3637540000000  0.4274450000000  0.4424170000000 1.0
C      1  0.4427590000000  0.4809140000000  0.4529730000000 1.0
C      1  0.4901810000000  0.4915330000000  0.4387680000000 1.0
C      1  0.5105900000000  0.5834620000000  0.5197470000000 1.0
C      1  0.5793260000000  0.5410020000000  0.5212740000000 1.0
C      1  0.4820700000000  0.5398420000000  0.5243520000000 1.0
C      1  0.5901490000000  0.5149520000000  0.5142340000000 1.0
C      1  0.4656470000000  0.4781500000000  0.4365100000000 1.0
C      1  0.5532860000000  0.5496630000000  0.4536460000000 1.0
C      1  0.4982570000000  0.5170710000000  0.5671040000000 1.0
C      1  0.4455170000000  0.4980910000000  0.4758080000000 1.0
C      1  0.5755200000000  0.5353690000000  0.4578640000000 1.0
C      1  0.5309250000000  0.6254950000000  0.5067390000000 1.0
C      1  0.5255040000000  0.5466690000000  0.4562770000000 1.0
C      1  0.5289280000000  0.5039600000000  0.4835080000000 1.0
C      1  0.5882170000000  0.4995400000000  0.4895640000000 1.0
C      1  0.5425120000000  0.4839890000000  0.4324260000000 1.0
C      1  0.3749870000000  0.4702790000000  0.4219060000000 1.0
C      1  0.3324550000000  0.4496970000000  0.4122130000000 1.0
C      1  0.3253670000000  0.4782750000000  0.4820580000000 1.0
C      1  0.5601080000000  0.4347040000000  0.5084790000000 1.0
C      1  0.4407240000000  0.4958520000000  0.5243520000000 1.0
C      1  0.5989760000000  0.4999960000000  0.5376950000000 1.0
C      1  0.5602930000000  0.4770370000000  0.5660060000000 1.0
END
