TITL C-247197-3123-52 0.0094725093643841 125000 -286.132154524418 0 0 47 (C1) n - 1
REM
REM in /home/nfs/bkarasulu/CARBON/AIRSS/Generating-Clusters/LCBOP/Only-C1/SD-CG/FIRE-HFTN
REM
REM
REM
REM
REM
REM ./C.cell (11c1c37f851c82e70ff6c80c92926a4b)
REM AIRSS Version 0.9.1 bugfix July 2018 build 013d7b7c2542+ Fri, 06 Jul 2018 19:26:36 +0100
REM compiler GCC version 9.2.1 20190827 (Red Hat 9.2.1-1)
REM options -cpp -mtune=generic -march=x86-64 -g -O0 -fpre-include=/usr/include/finclude/math-vector-fortran.h
REM seed 376466042 -1959943587 -1242826994 1255737612 297292031 420994325 -1922446750 -1503615307 -1232319145 -397293476 1162673550 131289288 -407406602 1842013932 1818468936 1707571455 -1548698494 -1178608913 -2100241453 -29526544 1125539420 -150828994 -716559071 766851092 102091706 -1310238395 1863948305 671473292 256677210 1604533952 1915403087 -983215094 -1318832625
REM
CELL 1.54180   50.00000   50.00000   50.00000   90.00000   90.00000   90.00000
LATT -1
SFAC C  
C      1  0.5444350000000  0.4356230000000  0.5230540000000 1.0
C      1  0.4525940000000  0.5117220000000  0.4842890000000 1.0
C      1  0.4777600000000  0.4303200000000  0.5479710000000 1.0
C      1  0.5307330000000  0.5300090000000  0.4378970000000 1.0
C      1  0.5342740000000  0.5396970000000  0.4890260000000 1.0
C      1  0.5421600000000  0.5666750000000  0.4887250000000 1.0
C      1  0.5397090000000  0.5547030000000  0.4283600000000 1.0
C      1  0.5351220000000  0.4488070000000  0.4493440000000 1.0
C      1  0.4618990000000  0.5034240000000  0.4601990000000 1.0
C      1  0.5034110000000  0.4885160000000  0.4742420000000 1.0
C      1  0.5124860000000  0.4668340000000  0.5484440000000 1.0
C      1  0.4772890000000  0.5014570000000  0.5499180000000 1.0
C      1  0.5262630000000  0.5276470000000  0.5145350000000 1.0
C      1  0.4815690000000  0.4647070000000  0.5118280000000 1.0
C      1  0.5287240000000  0.5364760000000  0.5419330000000 1.0
C      1  0.5445320000000  0.5838950000000  0.5338790000000 1.0
C      1  0.5194940000000  0.5001030000000  0.5137490000000 1.0
C      1  0.4594150000000  0.4536240000000  0.4984570000000 1.0
C      1  0.5198410000000  0.4632900000000  0.4319070000000 1.0
C      1  0.4902810000000  0.4527640000000  0.5368310000000 1.0
C      1  0.4535680000000  0.5091020000000  0.5363070000000 1.0
C      1  0.5169510000000  0.5166630000000  0.3927580000000 1.0
C      1  0.5314250000000  0.4953850000000  0.4708190000000 1.0
C      1  0.5217010000000  0.5160930000000  0.5606970000000 1.0
C      1  0.5480770000000  0.5776670000000  0.4193140000000 1.0
C      1  0.4203800000000  0.5608670000000  0.5260160000000 1.0
C      1  0.5468160000000  0.5857540000000  0.5070860000000 1.0
C      1  0.4570410000000  0.4140690000000  0.5423650000000 1.0
C      1  0.4402360000000  0.5490960000000  0.5120570000000 1.0
C      1  0.5350050000000  0.5229070000000  0.4653700000000 1.0
C      1  0.4296570000000  0.5084590000000  0.5517940000000 1.0
C      1  0.5467760000000  0.4502870000000  0.4755020000000 1.0
C      1  0.4403240000000  0.4151810000000  0.5211500000000 1.0
C      1  0.5421940000000  0.4817660000000  0.5143490000000 1.0
C      1  0.4418040000000  0.4334830000000  0.5013160000000 1.0
C      1  0.4864070000000  0.4922020000000  0.4520850000000 1.0
C      1  0.5041510000000  0.4938470000000  0.5573000000000 1.0
C      1  0.4509800000000  0.5227390000000  0.5104390000000 1.0
C      1  0.5174010000000  0.5116010000000  0.4197220000000 1.0
C      1  0.5045640000000  0.4878420000000  0.4298130000000 1.0
C      1  0.5478290000000  0.4772760000000  0.4858720000000 1.0
C      1  0.5372940000000  0.4612060000000  0.5336290000000 1.0
C      1  0.4099660000000  0.5260430000000  0.5573410000000 1.0
C      1  0.5368480000000  0.5624790000000  0.5482290000000 1.0
C      1  0.4968070000000  0.4864950000000  0.5015290000000 1.0
C      1  0.5479590000000  0.4308200000000  0.4962750000000 1.0
C      1  0.4058480000000  0.5503790000000  0.5462760000000 1.0
END
