TITL C-247199-3331-344 -1.54314553103825e-06 125000 -693.80118489594 0 0 113 (C1) n - 1
REM
REM in /home/nfs/bkarasulu/CARBON/AIRSS/Generating-Clusters/LCBOP/Only-C1/SD-CG/FIRE-HFTN
REM
REM
REM
REM
REM
REM ./C.cell (11c1c37f851c82e70ff6c80c92926a4b)
REM AIRSS Version 0.9.1 bugfix July 2018 build 013d7b7c2542+ Fri, 06 Jul 2018 19:26:36 +0100
REM compiler GCC version 9.2.1 20190827 (Red Hat 9.2.1-1)
REM options -cpp -mtune=generic -march=x86-64 -g -O0 -fpre-include=/usr/include/finclude/math-vector-fortran.h
REM seed -247961150 -509339797 1755334721 947341386 -1570412022 774029672 808893676 691003189 -1329945955 -734036014 -766779396 615493034 1192883500 -313520504 832416030 -728872116 -466684316 -1654609569 1995152001 537296649 -1614442718 1217115178 918888790 1667662241 1941722414 2082189795 -227224287 -1829789140 1444228119 1138682168 1048847986 -1440359296 721824000
REM
CELL 1.54180   50.00000   50.00000   50.00000   90.00000   90.00000   90.00000
LATT -1
SFAC C  
C      1  0.5052500000000  0.5075580000000  0.6039310000000 1.0
C      1  0.5176410000000  0.5027390000000  0.3904290000000 1.0
C      1  0.4828980000000  0.5385130000000  0.5557300000000 1.0
C      1  0.4929530000000  0.4712790000000  0.4279080000000 1.0
C      1  0.5427150000000  0.5926050000000  0.4542770000000 1.0
C      1  0.4357960000000  0.4178680000000  0.5415270000000 1.0
C      1  0.5062800000000  0.4179490000000  0.5230580000000 1.0
C      1  0.5393130000000  0.5687110000000  0.5779480000000 1.0
C      1  0.4380580000000  0.4588030000000  0.4581240000000 1.0
C      1  0.5581610000000  0.5252140000000  0.4976740000000 1.0
C      1  0.4655190000000  0.5518960000000  0.5746750000000 1.0
C      1  0.4594220000000  0.4595050000000  0.5466480000000 1.0
C      1  0.5019970000000  0.4240300000000  0.4293400000000 1.0
C      1  0.4826280000000  0.4547620000000  0.5636460000000 1.0
C      1  0.5209050000000  0.5427890000000  0.4744050000000 1.0
C      1  0.4206460000000  0.5627870000000  0.4788140000000 1.0
C      1  0.4360830000000  0.4179420000000  0.5123530000000 1.0
C      1  0.4720030000000  0.5249900000000  0.4730140000000 1.0
C      1  0.5425180000000  0.3879840000000  0.5075460000000 1.0
C      1  0.5873470000000  0.5079450000000  0.4587490000000 1.0
C      1  0.5463650000000  0.5825120000000  0.5559830000000 1.0
C      1  0.4494060000000  0.4848430000000  0.4175160000000 1.0
C      1  0.5305210000000  0.5309790000000  0.5355640000000 1.0
C      1  0.4228580000000  0.4606100000000  0.4829030000000 1.0
C      1  0.5509840000000  0.4263940000000  0.4441740000000 1.0
C      1  0.6038450000000  0.4864540000000  0.4988820000000 1.0
C      1  0.5498610000000  0.5077300000000  0.4267440000000 1.0
C      1  0.4039030000000  0.5356590000000  0.5354330000000 1.0
C      1  0.5958590000000  0.4800860000000  0.5249730000000 1.0
C      1  0.5781210000000  0.4662500000000  0.4339200000000 1.0
C      1  0.4586110000000  0.3822430000000  0.4881040000000 1.0
C      1  0.5532160000000  0.4012770000000  0.4868310000000 1.0
C      1  0.5475740000000  0.4246180000000  0.4724010000000 1.0
C      1  0.5306130000000  0.5208100000000  0.4099610000000 1.0
C      1  0.5336340000000  0.4463340000000  0.4848150000000 1.0
C      1  0.4781380000000  0.4662160000000  0.6133170000000 1.0
C      1  0.4720680000000  0.4648280000000  0.5001480000000 1.0
C      1  0.5051650000000  0.5371490000000  0.6027500000000 1.0
C      1  0.4577520000000  0.5900550000000  0.5303000000000 1.0
C      1  0.5932000000000  0.4797710000000  0.4532110000000 1.0
C      1  0.4854160000000  0.5314580000000  0.4008160000000 1.0
C      1  0.5998040000000  0.5117260000000  0.4849500000000 1.0
C      1  0.4438660000000  0.4846030000000  0.4454320000000 1.0
C      1  0.4383010000000  0.5704950000000  0.5249280000000 1.0
C      1  0.4215690000000  0.4876930000000  0.4930110000000 1.0
C      1  0.4538760000000  0.5755270000000  0.4399860000000 1.0
C      1  0.5445490000000  0.5199450000000  0.5851500000000 1.0
C      1  0.4796570000000  0.5755140000000  0.4323420000000 1.0
C      1  0.5328690000000  0.4866990000000  0.5139340000000 1.0
C      1  0.4388350000000  0.4940810000000  0.5132580000000 1.0
C      1  0.5310250000000  0.4736500000000  0.5699010000000 1.0
C      1  0.5281130000000  0.5840110000000  0.4333190000000 1.0
C      1  0.5094390000000  0.4987230000000  0.4620020000000 1.0
C      1  0.4312450000000  0.5713180000000  0.4540470000000 1.0
C      1  0.5799340000000  0.4738390000000  0.5456680000000 1.0
C      1  0.5352420000000  0.4577340000000  0.5115260000000 1.0
C      1  0.5354710000000  0.4592220000000  0.4137850000000 1.0
C      1  0.5619550000000  0.5189710000000  0.4505400000000 1.0
C      1  0.4237820000000  0.5557700000000  0.5443760000000 1.0
C      1  0.4033130000000  0.4831530000000  0.5419610000000 1.0
C      1  0.6171520000000  0.4430570000000  0.4779030000000 1.0
C      1  0.5287820000000  0.4341160000000  0.4269740000000 1.0
C      1  0.4578780000000  0.4747520000000  0.5218160000000 1.0
C      1  0.4534270000000  0.4367320000000  0.4478330000000 1.0
C      1  0.4405410000000  0.5592060000000  0.4989300000000 1.0
C      1  0.5045550000000  0.4728410000000  0.4534600000000 1.0
C      1  0.4536130000000  0.5021530000000  0.5697190000000 1.0
C      1  0.5581700000000  0.4702870000000  0.5610290000000 1.0
C      1  0.5053820000000  0.4929100000000  0.5157610000000 1.0
C      1  0.4847780000000  0.4203000000000  0.5038000000000 1.0
C      1  0.5269000000000  0.4966700000000  0.5869600000000 1.0
C      1  0.5192530000000  0.4427460000000  0.5319330000000 1.0
C      1  0.3956960000000  0.5525390000000  0.4873740000000 1.0
C      1  0.4131690000000  0.4572210000000  0.5332350000000 1.0
C      1  0.4865310000000  0.4444100000000  0.4888590000000 1.0
C      1  0.5080810000000  0.5435370000000  0.5440180000000 1.0
C      1  0.4887150000000  0.5037870000000  0.3931180000000 1.0
C      1  0.6007930000000  0.6252630000000  0.4923110000000 1.0
C      1  0.4545830000000  0.5067990000000  0.4597690000000 1.0
C      1  0.5082580000000  0.4523540000000  0.4727140000000 1.0
C      1  0.3902390000000  0.5405710000000  0.5111760000000 1.0
C      1  0.5549440000000  0.4790150000000  0.4220440000000 1.0
C      1  0.4758620000000  0.4255110000000  0.4371060000000 1.0
C      1  0.5570010000000  0.5956230000000  0.5034400000000 1.0
C      1  0.4084690000000  0.5104490000000  0.5500780000000 1.0
C      1  0.4597220000000  0.4063190000000  0.5010650000000 1.0
C      1  0.4990000000000  0.5790070000000  0.5032000000000 1.0
C      1  0.5796740000000  0.6110430000000  0.4978760000000 1.0
C      1  0.4911960000000  0.4971050000000  0.5374380000000 1.0
C      1  0.5191960000000  0.5684180000000  0.4871600000000 1.0
C      1  0.5451140000000  0.5127460000000  0.5189400000000 1.0
C      1  0.5510310000000  0.5896100000000  0.5305310000000 1.0
C      1  0.4195190000000  0.4425410000000  0.5057850000000 1.0
C      1  0.4761850000000  0.5109430000000  0.5553170000000 1.0
C      1  0.4808690000000  0.5520080000000  0.5990620000000 1.0
C      1  0.4885980000000  0.4903810000000  0.6182480000000 1.0
C      1  0.5476770000000  0.5315670000000  0.4721230000000 1.0
C      1  0.5001210000000  0.5239580000000  0.4693460000000 1.0
C      1  0.4299600000000  0.5174910000000  0.5692960000000 1.0
C      1  0.4762710000000  0.4840220000000  0.4089250000000 1.0
C      1  0.4347040000000  0.4451210000000  0.5506030000000 1.0
C      1  0.5109310000000  0.4564430000000  0.5563080000000 1.0
C      1  0.5218310000000  0.3944600000000  0.5235020000000 1.0
C      1  0.4374380000000  0.5464940000000  0.5684450000000 1.0
C      1  0.5063570000000  0.5679050000000  0.4255060000000 1.0
C      1  0.5313450000000  0.5452530000000  0.5912110000000 1.0
C      1  0.5756980000000  0.4379200000000  0.4357430000000 1.0
C      1  0.4613340000000  0.5420710000000  0.4921280000000 1.0
C      1  0.5097810000000  0.5425940000000  0.4130560000000 1.0
C      1  0.5408730000000  0.5864090000000  0.4817630000000 1.0
C      1  0.4823180000000  0.5917860000000  0.5196040000000 1.0
C      1  0.6052800000000  0.4674920000000  0.4766500000000 1.0
C      1  0.4771190000000  0.4512240000000  0.5911520000000 1.0
END
