TITL C-247198-3593-427 -0.000601240643782736 125000 -595.655236271634 0 0 96 (C1) n - 1
REM
REM in /home/nfs/bkarasulu/CARBON/AIRSS/Generating-Clusters/LCBOP/Only-C1/SD-CG/FIRE-HFTN
REM
REM
REM
REM
REM
REM ./C.cell (11c1c37f851c82e70ff6c80c92926a4b)
REM AIRSS Version 0.9.1 bugfix July 2018 build 013d7b7c2542+ Fri, 06 Jul 2018 19:26:36 +0100
REM compiler GCC version 9.2.1 20190827 (Red Hat 9.2.1-1)
REM options -cpp -mtune=generic -march=x86-64 -g -O0 -fpre-include=/usr/include/finclude/math-vector-fortran.h
REM seed 60454599 -1534049889 1760851567 1020924649 -943788453 -1285408646 -97566700 1850103711 -37319820 -977409018 -173025364 -947842771 -719978839 652676905 -1241274001 1088618175 21944899 -1211847165 573564477 -614305794 368227440 1321333985 -1350032960 993044630 2098207966 -584281284 465628384 26190357 759163907 -1962991540 700015594 1194700630 -2084224065
REM
CELL 1.54180   50.00000   50.00000   50.00000   90.00000   90.00000   90.00000
LATT -1
SFAC C  
C      1  0.4827240000000  0.5225720000000  0.4889390000000 1.0
C      1  0.5487560000000  0.4100760000000  0.5080930000000 1.0
C      1  0.5082990000000  0.3853120000000  0.5462210000000 1.0
C      1  0.4522400000000  0.5347720000000  0.4504170000000 1.0
C      1  0.5629350000000  0.5118080000000  0.5584030000000 1.0
C      1  0.5005530000000  0.5033980000000  0.4751000000000 1.0
C      1  0.5257100000000  0.5167800000000  0.4782820000000 1.0
C      1  0.4034670000000  0.4901790000000  0.5566200000000 1.0
C      1  0.5742190000000  0.4761340000000  0.4894780000000 1.0
C      1  0.5163620000000  0.5998700000000  0.4554360000000 1.0
C      1  0.5390000000000  0.5851460000000  0.4668720000000 1.0
C      1  0.4812160000000  0.5213300000000  0.6345930000000 1.0
C      1  0.3904910000000  0.4796370000000  0.5354040000000 1.0
C      1  0.4463000000000  0.5736640000000  0.5079620000000 1.0
C      1  0.5420350000000  0.5224440000000  0.5721540000000 1.0
C      1  0.5418940000000  0.5010220000000  0.4287720000000 1.0
C      1  0.5501360000000  0.3817100000000  0.5054210000000 1.0
C      1  0.4630960000000  0.4443640000000  0.5525310000000 1.0
C      1  0.5930400000000  0.3820470000000  0.4860760000000 1.0
C      1  0.4957590000000  0.6023150000000  0.4757450000000 1.0
C      1  0.5057510000000  0.4761030000000  0.4745780000000 1.0
C      1  0.4681180000000  0.5992040000000  0.4715580000000 1.0
C      1  0.5152250000000  0.6098020000000  0.4301580000000 1.0
C      1  0.4932370000000  0.5347230000000  0.4251880000000 1.0
C      1  0.4684710000000  0.4658130000000  0.5712830000000 1.0
C      1  0.5761350000000  0.5001560000000  0.5376160000000 1.0
C      1  0.4110300000000  0.4534250000000  0.4664460000000 1.0
C      1  0.5079870000000  0.5972800000000  0.5021480000000 1.0
C      1  0.4743680000000  0.5404790000000  0.4681120000000 1.0
C      1  0.5763640000000  0.4998440000000  0.4715200000000 1.0
C      1  0.5621660000000  0.5110280000000  0.4468450000000 1.0
C      1  0.5645150000000  0.4502440000000  0.4806770000000 1.0
C      1  0.5233030000000  0.5413460000000  0.4640050000000 1.0
C      1  0.4258170000000  0.5301350000000  0.4576840000000 1.0
C      1  0.4718760000000  0.5141160000000  0.5629700000000 1.0
C      1  0.5715330000000  0.4537030000000  0.5328080000000 1.0
C      1  0.4269150000000  0.4931500000000  0.5693920000000 1.0
C      1  0.5694180000000  0.4248000000000  0.4927370000000 1.0
C      1  0.4569850000000  0.5041010000000  0.4115260000000 1.0
C      1  0.5086340000000  0.4121310000000  0.5398130000000 1.0
C      1  0.5446330000000  0.4468910000000  0.5380120000000 1.0
C      1  0.4641770000000  0.5279990000000  0.4247800000000 1.0
C      1  0.5179150000000  0.4581280000000  0.4572580000000 1.0
C      1  0.5022470000000  0.4926740000000  0.4020940000000 1.0
C      1  0.3989170000000  0.4684380000000  0.4873700000000 1.0
C      1  0.4780260000000  0.4607820000000  0.4282070000000 1.0
C      1  0.5331810000000  0.4227010000000  0.5286090000000 1.0
C      1  0.4848640000000  0.4268300000000  0.5459000000000 1.0
C      1  0.4932240000000  0.5920020000000  0.5262970000000 1.0
C      1  0.5065730000000  0.5820330000000  0.5494320000000 1.0
C      1  0.5381130000000  0.5317490000000  0.5187580000000 1.0
C      1  0.4864340000000  0.5232920000000  0.6091370000000 1.0
C      1  0.4309060000000  0.4518300000000  0.4481240000000 1.0
C      1  0.5205100000000  0.4831480000000  0.5181000000000 1.0
C      1  0.5778060000000  0.4781570000000  0.5191730000000 1.0
C      1  0.5009420000000  0.4689620000000  0.5018690000000 1.0
C      1  0.4687310000000  0.4466010000000  0.4748970000000 1.0
C      1  0.4981940000000  0.5457650000000  0.4514180000000 1.0
C      1  0.5164770000000  0.5355600000000  0.5725030000000 1.0
C      1  0.5602930000000  0.5492740000000  0.5147150000000 1.0
C      1  0.4690620000000  0.5239190000000  0.5362500000000 1.0
C      1  0.3944600000000  0.4955340000000  0.4804040000000 1.0
C      1  0.4655350000000  0.5854760000000  0.5252570000000 1.0
C      1  0.5226690000000  0.4748440000000  0.4139770000000 1.0
C      1  0.5450310000000  0.5585520000000  0.4579890000000 1.0
C      1  0.4409340000000  0.4956220000000  0.5126760000000 1.0
C      1  0.4053980000000  0.5167770000000  0.4684250000000 1.0
C      1  0.5922090000000  0.4092530000000  0.4854520000000 1.0
C      1  0.4170650000000  0.4419210000000  0.5259660000000 1.0
C      1  0.4917540000000  0.5239710000000  0.5817020000000 1.0
C      1  0.3983220000000  0.4609230000000  0.5153650000000 1.0
C      1  0.5716430000000  0.3681790000000  0.4956530000000 1.0
C      1  0.4948050000000  0.4668330000000  0.5812490000000 1.0
C      1  0.4550860000000  0.4912770000000  0.5699220000000 1.0
C      1  0.5129100000000  0.5548410000000  0.5518920000000 1.0
C      1  0.5437890000000  0.4498090000000  0.4621090000000 1.0
C      1  0.5075540000000  0.4576510000000  0.4313710000000 1.0
C      1  0.5120970000000  0.5172920000000  0.4134460000000 1.0
C      1  0.4470820000000  0.5861040000000  0.4824710000000 1.0
C      1  0.4890510000000  0.5299870000000  0.5167470000000 1.0
C      1  0.4439680000000  0.5221930000000  0.5223630000000 1.0
C      1  0.4742330000000  0.4595930000000  0.4995970000000 1.0
C      1  0.4351730000000  0.5478970000000  0.5135490000000 1.0
C      1  0.5171020000000  0.4724200000000  0.5675790000000 1.0
C      1  0.5644190000000  0.5408110000000  0.4460920000000 1.0
C      1  0.4756930000000  0.4832070000000  0.4092570000000 1.0
C      1  0.5839220000000  0.5394380000000  0.5031090000000 1.0
C      1  0.4527850000000  0.4697700000000  0.5143760000000 1.0
C      1  0.5340200000000  0.5071590000000  0.5050430000000 1.0
C      1  0.5278740000000  0.4694510000000  0.5420650000000 1.0
C      1  0.5130190000000  0.5415450000000  0.5268860000000 1.0
C      1  0.5540190000000  0.5766780000000  0.5130720000000 1.0
C      1  0.4432080000000  0.4500690000000  0.5328080000000 1.0
C      1  0.5357180000000  0.5893320000000  0.4961160000000 1.0
C      1  0.5908610000000  0.5208220000000  0.4850220000000 1.0
C      1  0.4592910000000  0.4518690000000  0.4485080000000 1.0
END
