TITL C-247196-3112-52 225482.414214621 125000 -1157.99607610739 0 0 189 (C1) n - 1
REM
REM in /home/nfs/bkarasulu/CARBON/AIRSS/Generating-Clusters/LCBOP/Only-C1/SD-CG/FIRE-HFTN
REM
REM
REM
REM
REM
REM ./C.cell (11c1c37f851c82e70ff6c80c92926a4b)
REM AIRSS Version 0.9.1 bugfix July 2018 build 013d7b7c2542+ Fri, 06 Jul 2018 19:26:36 +0100
REM compiler GCC version 9.2.1 20190827 (Red Hat 9.2.1-1)
REM options -cpp -mtune=generic -march=x86-64 -g -O0 -fpre-include=/usr/include/finclude/math-vector-fortran.h
REM seed -1240782733 1504980838 -1124990503 -1116851485 -1756821338 666135954 1441802682 234004893 -298775023 1330648423 1751583962 92897907 66273703 1538844841 1528139623 214098522 806096052 -2006539303 1949011705 1806570770 -1687597912 472576814 -160236300 1767575079 122584923 -1597091346 1239553955 -940565482 -1192629334 399057846 -911514313 -1648179911 1048104433
REM
CELL 1.54180   50.00000   50.00000   50.00000   90.00000   90.00000   90.00000
LATT -1
SFAC C  
C      1  0.4849700000000  0.5881070000000  0.5189390000000 1.0
C      1  0.4696790000000  0.3600340000000  0.4864130000000 1.0
C      1  0.5418080000000  0.4590910000000  0.5518860000000 1.0
C      1  0.4524680000000  0.5922270000000  0.5586510000000 1.0
C      1  0.4451550000000  0.4680210000000  0.5442900000000 1.0
C      1  0.4423000000000  0.5517630000000  0.4462260000000 1.0
C      1  0.4679850000000  0.4222680000000  0.4184230000000 1.0
C      1  0.5474230000000  0.5217320000000  0.5123240000000 1.0
C      1  0.5081260000000  0.4134740000000  0.4511760000000 1.0
C      1  0.4939780000000  0.4174970000000  0.5813600000000 1.0
C      1  0.5701430000000  0.4055420000000  0.5613780000000 1.0
C      1  0.5284430000000  0.4930930000000  0.4257690000000 1.0
C      1  0.5399730000000  0.5089450000000  0.5593620000000 1.0
C      1  0.6081480000000  0.5461970000000  0.5083010000000 1.0
C      1  0.4878820000000  0.5727770000000  0.4644380000000 1.0
C      1  0.4771910000000  0.3992390000000  0.4597040000000 1.0
C      1  0.5704780000000  0.4472070000000  0.5929370000000 1.0
C      1  0.3989260000000  0.4997490000000  0.5566950000000 1.0
C      1  0.5613650000000  0.5807380000000  0.5618660000000 1.0
C      1  0.6118410000000  0.4609560000000  0.4686170000000 1.0
C      1  0.4927630000000  0.4935630000000  0.5319340000000 1.0
C      1  0.4170920000000  0.5767940000000  0.5288090000000 1.0
C      1  0.4868380000000  0.5193150000000  0.4489240000000 1.0
C      1  0.4118390000000  0.6002500000000  0.4854670000000 1.0
C      1  0.5966150000000  0.4192430000000  0.4976800000000 1.0
C      1  0.4957360000000  0.5450850000000  0.4008310000000 1.0
C      1  0.5422880000000  0.6317630000000  0.5170960000000 1.0
C      1  0.4020800000000  0.4527970000000  0.5774820000000 1.0
C      1  0.6032110000000  0.4463410000000  0.4925090000000 1.0
C      1  0.6275220000000  0.4849870000000  0.4764450000000 1.0
C      1  0.5140550000000  0.5606670000000  0.4683890000000 1.0
C      1  0.4607740000000  0.4018840000000  0.5093500000000 1.0
C      1  0.5626680000000  0.4645460000000  0.4017630000000 1.0
C      1  0.5840900000000  0.4801740000000  0.5851480000000 1.0
C      1  0.4584820000000  0.4588050000000  0.5911780000000 1.0
C      1  0.5363450000000  0.6045100000000  0.4591930000000 1.0
C      1  0.4622710000000  0.5077630000000  0.4386160000000 1.0
C      1  0.5853360000000  0.3950050000000  0.5397300000000 1.0
C      1  0.5911090000000  0.4652540000000  0.5107500000000 1.0
C      1  0.4690210000000  0.5044010000000  0.4108930000000 1.0
C      1  0.4603950000000  0.5973170000000  0.5100850000000 1.0
C      1  0.4986210000000  0.4759190000000  0.4599710000000 1.0
C      1  0.4805460000000  0.5158740000000  0.5198520000000 1.0
C      1  0.5314770000000  0.5747450000000  0.4147980000000 1.0
C      1  0.4789000000000  0.4505730000000  0.5200700000000 1.0
C      1  0.4813220000000  0.5916800000000  0.5704880000000 1.0
C      1  0.5411960000000  0.4456200000000  0.3933020000000 1.0
C      1  0.4424540000000  0.5317200000000  0.6024550000000 1.0
C      1  0.4542160000000  0.5145320000000  0.5608880000000 1.0
C      1  0.4157450000000  0.5204780000000  0.4983150000000 1.0
C      1  0.4807030000000  0.5211100000000  0.5742230000000 1.0
C      1  0.5184910000000  0.4872060000000  0.5247470000000 1.0
C      1  0.5775840000000  0.4316650000000  0.5694890000000 1.0
C      1  0.4088380000000  0.5294510000000  0.5604770000000 1.0
C      1  0.5765300000000  0.5044530000000  0.5984550000000 1.0
C      1  0.4399610000000  0.6063040000000  0.3800650000000 1.0
C      1  0.5509610000000  0.6235500000000  0.5415590000000 1.0
C      1  0.4280620000000  0.4050050000000  0.4417750000000 1.0
C      1  0.5468310000000  0.3942550000000  0.4768660000000 1.0
C      1  0.4050890000000  0.4844860000000  0.4287660000000 1.0
C      1  0.5694610000000  0.5289320000000  0.5850490000000 1.0
C      1  0.3999990000000  0.4525720000000  0.5283780000000 1.0
C      1  0.5932490000000  0.4635260000000  0.4452400000000 1.0
C      1  0.5240420000000  0.5969010000000  0.4328180000000 1.0
C      1  0.5759700000000  0.5858900000000  0.5851270000000 1.0
C      1  0.5146670000000  0.6130910000000  0.4787500000000 1.0
C      1  0.5158500000000  0.4954520000000  0.4745910000000 1.0
C      1  0.4493120000000  0.4414510000000  0.4057510000000 1.0
C      1  0.4326380000000  0.5241530000000  0.5764760000000 1.0
C      1  0.5380850000000  0.4431260000000  0.4796870000000 1.0
C      1  0.4413650000000  0.5935440000000  0.5313000000000 1.0
C      1  0.4267140000000  0.5350810000000  0.4306760000000 1.0
C      1  0.5251430000000  0.5488750000000  0.4017200000000 1.0
C      1  0.5409690000000  0.4035280000000  0.5581830000000 1.0
C      1  0.5693360000000  0.4502010000000  0.5492370000000 1.0
C      1  0.4338690000000  0.6107400000000  0.4735950000000 1.0
C      1  0.4410700000000  0.4278940000000  0.5061660000000 1.0
C      1  0.4943300000000  0.5453570000000  0.5810390000000 1.0
C      1  0.4760970000000  0.4358460000000  0.5964830000000 1.0
C      1  0.5735060000000  0.4843550000000  0.4512990000000 1.0
C      1  0.4770290000000  0.5312840000000  0.4730620000000 1.0
C      1  0.5624340000000  0.5972760000000  0.4681110000000 1.0
C      1  0.5459070000000  0.4592850000000  0.5011440000000 1.0
C      1  0.5566230000000  0.5393180000000  0.4567640000000 1.0
C      1  0.5131250000000  0.4833710000000  0.5947120000000 1.0
C      1  0.5383690000000  0.5229100000000  0.3891820000000 1.0
C      1  0.5067780000000  0.4124080000000  0.5246780000000 1.0
C      1  0.5196400000000  0.5492120000000  0.5681990000000 1.0
C      1  0.5516970000000  0.3975350000000  0.5056110000000 1.0
C      1  0.4734120000000  0.5133340000000  0.4936430000000 1.0
C      1  0.4946090000000  0.5118230000000  0.3684910000000 1.0
C      1  0.4894710000000  0.5633920000000  0.5311430000000 1.0
C      1  0.5713100000000  0.5567890000000  0.5460100000000 1.0
C      1  0.4132690000000  0.4427620000000  0.5033700000000 1.0
C      1  0.5159560000000  0.4454580000000  0.4069240000000 1.0
C      1  0.4348010000000  0.5723700000000  0.5733910000000 1.0
C      1  0.4692810000000  0.3876170000000  0.4848230000000 1.0
C      1  0.5465910000000  0.4772920000000  0.4445630000000 1.0
C      1  0.5114810000000  0.4328050000000  0.4757760000000 1.0
C      1  0.5218340000000  0.5149920000000  0.3661740000000 1.0
C      1  0.4761860000000  0.4667020000000  0.4415090000000 1.0
C      1  0.5087850000000  0.6024100000000  0.5563160000000 1.0
C      1  0.4649310000000  0.4668910000000  0.5645150000000 1.0
C      1  0.4651260000000  0.5556240000000  0.4636630000000 1.0
C      1  0.5414630000000  0.5316040000000  0.5760610000000 1.0
C      1  0.4784760000000  0.6143540000000  0.4146000000000 1.0
C      1  0.4190780000000  0.4521450000000  0.4201340000000 1.0
C      1  0.4141710000000  0.5589620000000  0.5534000000000 1.0
C      1  0.3874630000000  0.4762290000000  0.4777760000000 1.0
C      1  0.4310800000000  0.4692610000000  0.4599730000000 1.0
C      1  0.3888400000000  0.5586670000000  0.4921110000000 1.0
C      1  0.5895220000000  0.4664320000000  0.5385720000000 1.0
C      1  0.4121120000000  0.4792110000000  0.5821150000000 1.0
C      1  0.5299610000000  0.4645750000000  0.5799560000000 1.0
C      1  0.5567760000000  0.5474540000000  0.5226850000000 1.0
C      1  0.6112660000000  0.5197040000000  0.5194170000000 1.0
C      1  0.5852380000000  0.5358170000000  0.5607990000000 1.0
C      1  0.4506580000000  0.5598670000000  0.5960430000000 1.0
C      1  0.4520590000000  0.4452170000000  0.5290630000000 1.0
C      1  0.3903400000000  0.4809100000000  0.5296540000000 1.0
C      1  0.5383560000000  0.5047450000000  0.5326210000000 1.0
C      1  0.4617960000000  0.4894360000000  0.4855960000000 1.0
C      1  0.4168840000000  0.5108320000000  0.4214250000000 1.0
C      1  0.5186730000000  0.6204380000000  0.5063410000000 1.0
C      1  0.5288160000000  0.5416790000000  0.4518120000000 1.0
C      1  0.5957960000000  0.4868090000000  0.5576560000000 1.0
C      1  0.4800580000000  0.4020190000000  0.5606240000000 1.0
C      1  0.5401170000000  0.6011080000000  0.5566450000000 1.0
C      1  0.3848070000000  0.5195720000000  0.4604490000000 1.0
C      1  0.3956510000000  0.5331260000000  0.4830020000000 1.0
C      1  0.4796570000000  0.4767030000000  0.4120970000000 1.0
C      1  0.5824660000000  0.5844930000000  0.4809680000000 1.0
C      1  0.3785550000000  0.4860240000000  0.5036700000000 1.0
C      1  0.5141030000000  0.5198190000000  0.4392680000000 1.0
C      1  0.4296190000000  0.5083580000000  0.5175170000000 1.0
C      1  0.3991310000000  0.4399650000000  0.5537620000000 1.0
C      1  0.5983230000000  0.5673320000000  0.4945600000000 1.0
C      1  0.4758470000000  0.4984530000000  0.6257300000000 1.0
C      1  0.4431430000000  0.4967830000000  0.5393600000000 1.0
C      1  0.4787290000000  0.5676950000000  0.5889540000000 1.0
C      1  0.4529300000000  0.4511690000000  0.4548260000000 1.0
C      1  0.4965550000000  0.4977770000000  0.5771960000000 1.0
C      1  0.5405360000000  0.4411260000000  0.5942860000000 1.0
C      1  0.4809310000000  0.4009380000000  0.5317510000000 1.0
C      1  0.4631820000000  0.4615610000000  0.3933070000000 1.0
C      1  0.5005400000000  0.4872880000000  0.6204870000000 1.0
C      1  0.5248190000000  0.4176830000000  0.5806600000000 1.0
C      1  0.4153910000000  0.3825160000000  0.4510040000000 1.0
C      1  0.4377730000000  0.4800000000000  0.5993390000000 1.0
C      1  0.5734090000000  0.5247620000000  0.4721890000000 1.0
C      1  0.4867950000000  0.4817810000000  0.5567370000000 1.0
C      1  0.4593100000000  0.6125770000000  0.3963770000000 1.0
C      1  0.5781370000000  0.4471390000000  0.4240750000000 1.0
C      1  0.5275820000000  0.4594450000000  0.5253210000000 1.0
C      1  0.5797630000000  0.4017300000000  0.5126210000000 1.0
C      1  0.4570670000000  0.4057240000000  0.4397140000000 1.0
C      1  0.5447670000000  0.4507440000000  0.4538100000000 1.0
C      1  0.5573010000000  0.4292640000000  0.4385510000000 1.0
C      1  0.3874280000000  0.4916730000000  0.4532400000000 1.0
C      1  0.5999840000000  0.5142510000000  0.5468060000000 1.0
C      1  0.4743100000000  0.5408090000000  0.5299980000000 1.0
C      1  0.4604970000000  0.6076400000000  0.4827130000000 1.0
C      1  0.5314760000000  0.5128160000000  0.4890890000000 1.0
C      1  0.5030500000000  0.6080790000000  0.5271320000000 1.0
C      1  0.5048770000000  0.4406350000000  0.5242740000000 1.0
C      1  0.5494830000000  0.4978680000000  0.4026520000000 1.0
C      1  0.4727950000000  0.4617780000000  0.4936420000000 1.0
C      1  0.5256950000000  0.5670500000000  0.4931450000000 1.0
C      1  0.4870990000000  0.6032930000000  0.4653190000000 1.0
C      1  0.5088220000000  0.4734890000000  0.4109160000000 1.0
C      1  0.4965340000000  0.4554200000000  0.4790880000000 1.0
C      1  0.4034710000000  0.5797530000000  0.5035210000000 1.0
C      1  0.4106890000000  0.4598770000000  0.4791250000000 1.0
C      1  0.5338440000000  0.5631240000000  0.5193100000000 1.0
C      1  0.4462270000000  0.4938450000000  0.4606410000000 1.0
C      1  0.6223390000000  0.5001910000000  0.5008370000000 1.0
C      1  0.4500340000000  0.5044000000000  0.6136580000000 1.0
C      1  0.4814890000000  0.5218780000000  0.3920180000000 1.0
C      1  0.5158520000000  0.5595690000000  0.5408520000000 1.0
C      1  0.4958720000000  0.6077330000000  0.4350110000000 1.0
C      1  0.6471950000000  0.4943040000000  0.4588040000000 1.0
C      1  0.4987030000000  0.4260350000000  0.4217880000000 1.0
C      1  0.5326450000000  0.4011370000000  0.5291690000000 1.0
C      1  0.5686680000000  0.4774660000000  0.4979010000000 1.0
C      1  0.5743860000000  0.4968320000000  0.4766000000000 1.0
C      1  0.6623040000000  0.5055170000000  0.4407700000000 1.0
C      1  0.4123450000000  0.4279270000000  0.4336140000000 1.0
C      1  0.4552860000000  0.4401520000000  0.4813680000000 1.0
C      1  0.5401200000000  0.4053140000000  0.4493990000000 1.0
END
