TITL C-247202-1916-708 8.93083579104001e-08 125000 -703.435201252458 0 0 114 (C1) n - 1
REM
REM in /home/nfs/bkarasulu/CARBON/AIRSS/Generating-Clusters/LCBOP/Only-C1/SD-CG/FIRE-HFTN
REM
REM
REM
REM
REM
REM ./C.cell (11c1c37f851c82e70ff6c80c92926a4b)
REM AIRSS Version 0.9.1 bugfix July 2018 build 013d7b7c2542+ Fri, 06 Jul 2018 19:26:36 +0100
REM compiler GCC version 9.2.1 20190827 (Red Hat 9.2.1-1)
REM options -cpp -mtune=generic -march=x86-64 -g -O0 -fpre-include=/usr/include/finclude/math-vector-fortran.h
REM seed 1224723076 1682047175 -511336180 1530325042 -1944783715 1387176090 217843977 -1424226617 -1110047898 1729415924 1983095561 -1794339931 -1976330021 242465016 990832921 -498975516 1247324143 1480640956 928681910 -104642428 -835390191 -669208865 970329201 1620656988 -1999335071 183058111 908046155 -582387267 -224135912 -863489766 -957846661 373364633 -1410982370
REM
CELL 1.54180   50.00000   50.00000   50.00000   90.00000   90.00000   90.00000
LATT -1
SFAC C  
C      1  0.4628570000000  0.4389420000000  0.5287930000000 1.0
C      1  0.4702080000000  0.4683920000000  0.5900860000000 1.0
C      1  0.5590980000000  0.4166640000000  0.4838480000000 1.0
C      1  0.4558800000000  0.5302380000000  0.5038310000000 1.0
C      1  0.5539840000000  0.5537650000000  0.4497370000000 1.0
C      1  0.4286930000000  0.5382780000000  0.5448020000000 1.0
C      1  0.5362190000000  0.4821050000000  0.4665290000000 1.0
C      1  0.4580830000000  0.4537420000000  0.5008530000000 1.0
C      1  0.4970090000000  0.4658300000000  0.5210880000000 1.0
C      1  0.4439940000000  0.5570410000000  0.5597650000000 1.0
C      1  0.4830020000000  0.5437580000000  0.5890490000000 1.0
C      1  0.4226570000000  0.4782710000000  0.5204260000000 1.0
C      1  0.4521460000000  0.4827650000000  0.5116080000000 1.0
C      1  0.4539520000000  0.4381240000000  0.4344470000000 1.0
C      1  0.5783300000000  0.4353860000000  0.4706080000000 1.0
C      1  0.4711830000000  0.5314450000000  0.3953590000000 1.0
C      1  0.4822820000000  0.5147230000000  0.5910820000000 1.0
C      1  0.6022150000000  0.4860050000000  0.5364860000000 1.0
C      1  0.5519540000000  0.4738410000000  0.5253740000000 1.0
C      1  0.4347660000000  0.5551500000000  0.4680590000000 1.0
C      1  0.5225200000000  0.4953450000000  0.4876670000000 1.0
C      1  0.5633700000000  0.4539300000000  0.5101410000000 1.0
C      1  0.4869610000000  0.5095410000000  0.5425350000000 1.0
C      1  0.5447140000000  0.4268270000000  0.4410940000000 1.0
C      1  0.5387670000000  0.5037370000000  0.4114850000000 1.0
C      1  0.5068990000000  0.5457830000000  0.4540050000000 1.0
C      1  0.5600240000000  0.5710080000000  0.5228320000000 1.0
C      1  0.4737840000000  0.5458750000000  0.4881660000000 1.0
C      1  0.4557080000000  0.4109940000000  0.4719980000000 1.0
C      1  0.5370540000000  0.4111860000000  0.4648690000000 1.0
C      1  0.4206240000000  0.4786080000000  0.4681150000000 1.0
C      1  0.4968030000000  0.5052810000000  0.5685960000000 1.0
C      1  0.5005890000000  0.4838680000000  0.4366700000000 1.0
C      1  0.5043130000000  0.5803400000000  0.5275290000000 1.0
C      1  0.4569980000000  0.5546050000000  0.5847940000000 1.0
C      1  0.5295890000000  0.5754780000000  0.4843200000000 1.0
C      1  0.5583580000000  0.4834740000000  0.4163650000000 1.0
C      1  0.4196750000000  0.4536500000000  0.5347410000000 1.0
C      1  0.4565090000000  0.5037230000000  0.4917720000000 1.0
C      1  0.5250900000000  0.5043370000000  0.5737700000000 1.0
C      1  0.5956300000000  0.5076410000000  0.5206950000000 1.0
C      1  0.4952730000000  0.5345580000000  0.5315460000000 1.0
C      1  0.5462570000000  0.5204470000000  0.5208950000000 1.0
C      1  0.4454650000000  0.5358830000000  0.4055360000000 1.0
C      1  0.5281540000000  0.5636300000000  0.4576860000000 1.0
C      1  0.4202570000000  0.5122980000000  0.5527290000000 1.0
C      1  0.4904330000000  0.4417390000000  0.5357420000000 1.0
C      1  0.5551290000000  0.5471100000000  0.5665600000000 1.0
C      1  0.4379410000000  0.5184090000000  0.4264820000000 1.0
C      1  0.5287450000000  0.4191810000000  0.5239930000000 1.0
C      1  0.5017970000000  0.4315630000000  0.4204700000000 1.0
C      1  0.5098600000000  0.5010690000000  0.4154280000000 1.0
C      1  0.4379050000000  0.4301770000000  0.4580340000000 1.0
C      1  0.4782920000000  0.4870620000000  0.5279200000000 1.0
C      1  0.4354760000000  0.5031100000000  0.4707680000000 1.0
C      1  0.4535260000000  0.4967720000000  0.6564200000000 1.0
C      1  0.5851850000000  0.4835500000000  0.5597230000000 1.0
C      1  0.4947720000000  0.4543630000000  0.5865290000000 1.0
C      1  0.4333160000000  0.4928270000000  0.5695380000000 1.0
C      1  0.5805690000000  0.5665400000000  0.4113580000000 1.0
C      1  0.4286500000000  0.5557950000000  0.3958970000000 1.0
C      1  0.5087640000000  0.5538310000000  0.5773040000000 1.0
C      1  0.4743120000000  0.6163100000000  0.4743920000000 1.0
C      1  0.5204560000000  0.5765460000000  0.5521880000000 1.0
C      1  0.5584840000000  0.4749240000000  0.5531870000000 1.0
C      1  0.5318350000000  0.5337700000000  0.5776450000000 1.0
C      1  0.4615800000000  0.5683910000000  0.4754120000000 1.0
C      1  0.4772010000000  0.4735120000000  0.4507660000000 1.0
C      1  0.5659520000000  0.5429510000000  0.4747050000000 1.0
C      1  0.5548580000000  0.5634630000000  0.4956670000000 1.0
C      1  0.4317940000000  0.5414400000000  0.5156130000000 1.0
C      1  0.5356870000000  0.4769610000000  0.5698920000000 1.0
C      1  0.4933320000000  0.5318470000000  0.4739180000000 1.0
C      1  0.4801630000000  0.5906790000000  0.4823060000000 1.0
C      1  0.4711690000000  0.4931030000000  0.6057270000000 1.0
C      1  0.5060860000000  0.5855940000000  0.4983510000000 1.0
C      1  0.4622440000000  0.4947800000000  0.6319440000000 1.0
C      1  0.4484260000000  0.4674600000000  0.5710880000000 1.0
C      1  0.5492920000000  0.5297220000000  0.4088980000000 1.0
C      1  0.5733600000000  0.5144480000000  0.4723400000000 1.0
C      1  0.5389360000000  0.4950050000000  0.5116010000000 1.0
C      1  0.5223340000000  0.4684660000000  0.4459200000000 1.0
C      1  0.5228280000000  0.5351390000000  0.5244760000000 1.0
C      1  0.5482440000000  0.5694440000000  0.5490860000000 1.0
C      1  0.4126790000000  0.5747470000000  0.3878420000000 1.0
C      1  0.4074560000000  0.4991850000000  0.5309980000000 1.0
C      1  0.5242150000000  0.4434970000000  0.4322500000000 1.0
C      1  0.4343360000000  0.5273700000000  0.4538180000000 1.0
C      1  0.4434300000000  0.4474760000000  0.5496480000000 1.0
C      1  0.4835190000000  0.4097130000000  0.4613870000000 1.0
C      1  0.4557460000000  0.4670540000000  0.4323340000000 1.0
C      1  0.5705180000000  0.4406990000000  0.4432150000000 1.0
C      1  0.5855240000000  0.5086030000000  0.5738680000000 1.0
C      1  0.5015620000000  0.4591520000000  0.4936840000000 1.0
C      1  0.4927820000000  0.5165630000000  0.3997140000000 1.0
C      1  0.4837410000000  0.5608990000000  0.5321000000000 1.0
C      1  0.4774700000000  0.4593710000000  0.4780660000000 1.0
C      1  0.4953350000000  0.5061020000000  0.4832290000000 1.0
C      1  0.4601020000000  0.5716780000000  0.5419910000000 1.0
C      1  0.5107280000000  0.4058230000000  0.5048850000000 1.0
C      1  0.5766830000000  0.4609960000000  0.4853710000000 1.0
C      1  0.5528870000000  0.4270480000000  0.5105600000000 1.0
C      1  0.5758280000000  0.5304180000000  0.5582320000000 1.0
C      1  0.5186680000000  0.4525120000000  0.5703620000000 1.0
C      1  0.4207430000000  0.4513140000000  0.4666790000000 1.0
C      1  0.4793730000000  0.4230570000000  0.4348520000000 1.0
C      1  0.5618310000000  0.5504950000000  0.4229890000000 1.0
C      1  0.5096800000000  0.4068670000000  0.4757120000000 1.0
C      1  0.5736640000000  0.5237640000000  0.5299040000000 1.0
C      1  0.5158320000000  0.4334400000000  0.5469670000000 1.0
C      1  0.4188280000000  0.5546810000000  0.4932570000000 1.0
C      1  0.4417640000000  0.4897900000000  0.4224320000000 1.0
C      1  0.5668510000000  0.4840880000000  0.4661960000000 1.0
C      1  0.5713930000000  0.4700350000000  0.4377900000000 1.0
END
