TITL C-247200-3482-413 0.00630651779305552 125000 -662.707518254133 0 0 108 (C1) n - 1
REM
REM in /home/nfs/bkarasulu/CARBON/AIRSS/Generating-Clusters/LCBOP/Only-C1/SD-CG/FIRE-HFTN
REM
REM
REM
REM
REM
REM ./C.cell (11c1c37f851c82e70ff6c80c92926a4b)
REM AIRSS Version 0.9.1 bugfix July 2018 build 013d7b7c2542+ Fri, 06 Jul 2018 19:26:36 +0100
REM compiler GCC version 9.2.1 20190827 (Red Hat 9.2.1-1)
REM options -cpp -mtune=generic -march=x86-64 -g -O0 -fpre-include=/usr/include/finclude/math-vector-fortran.h
REM seed -921379138 204029310 1654913831 -1138388440 -2044413974 -317926781 -1394528616 -842657331 -2012934667 52088575 1609400900 422695178 -1507880400 1555881726 555065441 1926901432 1395840127 1240265972 -353351514 -349039309 -1707460935 -882870612 -61169862 1161628842 1202155357 1045125830 -1240636530 -2040802030 -1714262551 -1159656826 385423525 -732675114 -928351384
REM
CELL 1.54180   50.00000   50.00000   50.00000   90.00000   90.00000   90.00000
LATT -1
SFAC C  
C      1  0.5523170000000  0.4403410000000  0.4323730000000 1.0
C      1  0.4647640000000  0.4564410000000  0.5843800000000 1.0
C      1  0.4460150000000  0.5819050000000  0.5026210000000 1.0
C      1  0.4904480000000  0.5399050000000  0.5233900000000 1.0
C      1  0.4774300000000  0.5046340000000  0.5920930000000 1.0
C      1  0.4446630000000  0.5289530000000  0.5330010000000 1.0
C      1  0.4199510000000  0.5137880000000  0.5284100000000 1.0
C      1  0.4041640000000  0.5560070000000  0.5132290000000 1.0
C      1  0.5364220000000  0.5766550000000  0.4652020000000 1.0
C      1  0.5698480000000  0.5459740000000  0.4835520000000 1.0
C      1  0.5139090000000  0.5428440000000  0.5648580000000 1.0
C      1  0.6374600000000  0.3985740000000  0.5232240000000 1.0
C      1  0.5359460000000  0.4206180000000  0.4401490000000 1.0
C      1  0.3859440000000  0.5144990000000  0.4941880000000 1.0
C      1  0.5051850000000  0.4995000000000  0.5901700000000 1.0
C      1  0.4423590000000  0.5186190000000  0.4519290000000 1.0
C      1  0.5169310000000  0.4210810000000  0.5370890000000 1.0
C      1  0.5265260000000  0.5004720000000  0.3784340000000 1.0
C      1  0.5476960000000  0.4816910000000  0.3836860000000 1.0
C      1  0.5028600000000  0.4353040000000  0.5590810000000 1.0
C      1  0.4859180000000  0.6235080000000  0.5734310000000 1.0
C      1  0.4862180000000  0.5829250000000  0.5372000000000 1.0
C      1  0.4202520000000  0.4901460000000  0.5451830000000 1.0
C      1  0.5135840000000  0.5236690000000  0.4545990000000 1.0
C      1  0.5540530000000  0.4757530000000  0.4822780000000 1.0
C      1  0.4177830000000  0.4640580000000  0.5349240000000 1.0
C      1  0.4661440000000  0.5647450000000  0.4446420000000 1.0
C      1  0.4395970000000  0.4293350000000  0.5046860000000 1.0
C      1  0.4948240000000  0.5212410000000  0.4794210000000 1.0
C      1  0.4572800000000  0.5424680000000  0.4592030000000 1.0
C      1  0.5234910000000  0.5173450000000  0.5762490000000 1.0
C      1  0.5082770000000  0.5802990000000  0.4652210000000 1.0
C      1  0.4942420000000  0.5671450000000  0.4436750000000 1.0
C      1  0.4932680000000  0.5889070000000  0.4880180000000 1.0
C      1  0.4664840000000  0.4151190000000  0.4650200000000 1.0
C      1  0.4878400000000  0.4499190000000  0.4043460000000 1.0
C      1  0.4593270000000  0.4940110000000  0.4546710000000 1.0
C      1  0.5102940000000  0.4542790000000  0.4852510000000 1.0
C      1  0.4744290000000  0.5862470000000  0.5098070000000 1.0
C      1  0.5097110000000  0.4054480000000  0.5130260000000 1.0
C      1  0.5472350000000  0.4271070000000  0.4930990000000 1.0
C      1  0.5472990000000  0.5113490000000  0.4194060000000 1.0
C      1  0.4633590000000  0.4692740000000  0.4405280000000 1.0
C      1  0.6126390000000  0.4062810000000  0.5211950000000 1.0
C      1  0.5055880000000  0.5337370000000  0.4074270000000 1.0
C      1  0.4576000000000  0.4838040000000  0.5854970000000 1.0
C      1  0.5235500000000  0.4962210000000  0.5295230000000 1.0
C      1  0.4860360000000  0.5179540000000  0.3929180000000 1.0
C      1  0.4637720000000  0.4540950000000  0.5378770000000 1.0
C      1  0.4762510000000  0.4767790000000  0.5259830000000 1.0
C      1  0.5143900000000  0.4149410000000  0.4580250000000 1.0
C      1  0.5573780000000  0.4678040000000  0.4329730000000 1.0
C      1  0.4860610000000  0.6042540000000  0.5552460000000 1.0
C      1  0.5752380000000  0.5642570000000  0.4388040000000 1.0
C      1  0.4980290000000  0.5568960000000  0.5446380000000 1.0
C      1  0.4979630000000  0.4948110000000  0.3798020000000 1.0
C      1  0.5320290000000  0.5204440000000  0.5179520000000 1.0
C      1  0.5874480000000  0.4142320000000  0.5191770000000 1.0
C      1  0.5094580000000  0.5298050000000  0.5045920000000 1.0
C      1  0.5144460000000  0.4725260000000  0.5912530000000 1.0
C      1  0.5451650000000  0.4312040000000  0.5389540000000 1.0
C      1  0.4914660000000  0.3843530000000  0.5152450000000 1.0
C      1  0.4495260000000  0.5236100000000  0.5612600000000 1.0
C      1  0.4637340000000  0.5372630000000  0.5136490000000 1.0
C      1  0.4386610000000  0.4467310000000  0.5270850000000 1.0
C      1  0.4161420000000  0.5560130000000  0.4679250000000 1.0
C      1  0.4679370000000  0.5537790000000  0.5966490000000 1.0
C      1  0.5586790000000  0.4804210000000  0.5520490000000 1.0
C      1  0.5583080000000  0.4849560000000  0.4101470000000 1.0
C      1  0.5775600000000  0.5179880000000  0.4852750000000 1.0
C      1  0.4216770000000  0.5679710000000  0.4938960000000 1.0
C      1  0.4801650000000  0.4470820000000  0.4313960000000 1.0
C      1  0.5763270000000  0.5196100000000  0.5359780000000 1.0
C      1  0.5308010000000  0.5224280000000  0.3987080000000 1.0
C      1  0.4745120000000  0.4774050000000  0.4978830000000 1.0
C      1  0.4898890000000  0.4685010000000  0.3850970000000 1.0
C      1  0.4625700000000  0.4310190000000  0.4878510000000 1.0
C      1  0.4854900000000  0.6610980000000  0.6101870000000 1.0
C      1  0.4877560000000  0.4236640000000  0.4481140000000 1.0
C      1  0.5733000000000  0.4914550000000  0.5285700000000 1.0
C      1  0.4194130000000  0.4116110000000  0.4996800000000 1.0
C      1  0.5654760000000  0.5831440000000  0.5170930000000 1.0
C      1  0.5614790000000  0.4235360000000  0.5171910000000 1.0
C      1  0.5232470000000  0.4107220000000  0.4869790000000 1.0
C      1  0.4756380000000  0.4437360000000  0.5613050000000 1.0
C      1  0.4782750000000  0.4957820000000  0.4771390000000 1.0
C      1  0.4690080000000  0.5393140000000  0.4844800000000 1.0
C      1  0.5381830000000  0.4537760000000  0.4886150000000 1.0
C      1  0.4857070000000  0.6424720000000  0.5919470000000 1.0
C      1  0.4154990000000  0.5280640000000  0.4579480000000 1.0
C      1  0.5371440000000  0.5087200000000  0.4470930000000 1.0
C      1  0.4825910000000  0.4513530000000  0.4898650000000 1.0
C      1  0.5648510000000  0.6080640000000  0.5246910000000 1.0
C      1  0.5222600000000  0.4528530000000  0.5726570000000 1.0
C      1  0.5054910000000  0.5428590000000  0.4341070000000 1.0
C      1  0.4738510000000  0.3653250000000  0.5178300000000 1.0
C      1  0.3944120000000  0.5126730000000  0.4685270000000 1.0
C      1  0.5606760000000  0.5620220000000  0.4618280000000 1.0
C      1  0.4382790000000  0.4960160000000  0.5672880000000 1.0
C      1  0.5633380000000  0.5566590000000  0.5093140000000 1.0
C      1  0.5497340000000  0.4842210000000  0.4558240000000 1.0
C      1  0.4997880000000  0.4866690000000  0.5365690000000 1.0
C      1  0.3995190000000  0.5277560000000  0.5151480000000 1.0
C      1  0.5708150000000  0.4922430000000  0.4986090000000 1.0
C      1  0.5467900000000  0.4544930000000  0.5562940000000 1.0
C      1  0.4665730000000  0.5301760000000  0.5833620000000 1.0
C      1  0.5550830000000  0.5356690000000  0.5260170000000 1.0
C      1  0.5475910000000  0.5025770000000  0.5688590000000 1.0
END
