TITL C-247198-3593-171 0.985149877763306 125000 -576.966390802842 0 0 95 (C1) n - 1
REM
REM in /home/nfs/bkarasulu/CARBON/AIRSS/Generating-Clusters/LCBOP/Only-C1/SD-CG/FIRE-HFTN
REM
REM
REM
REM
REM
REM ./C.cell (11c1c37f851c82e70ff6c80c92926a4b)
REM AIRSS Version 0.9.1 bugfix July 2018 build 013d7b7c2542+ Fri, 06 Jul 2018 19:26:36 +0100
REM compiler GCC version 9.2.1 20190827 (Red Hat 9.2.1-1)
REM options -cpp -mtune=generic -march=x86-64 -g -O0 -fpre-include=/usr/include/finclude/math-vector-fortran.h
REM seed -1645364531 -2067408598 1731615584 -1385913136 880872083 -714774277 -265262668 -542819516 1100077001 -1379849999 -1242999515 -850951705 1603558455 95529881 1093579899 921814844 -420261572 -536800004 -158688418 -1721324745 -638071714 -821694322 1413222548 1255831338 1737905102 1295180162 1173390847 1894813389 -1137600549 -1613329835 118346645 -1801879285 2107047261
REM
CELL 1.54180   50.00000   50.00000   50.00000   90.00000   90.00000   90.00000
LATT -1
SFAC C  
C      1  0.4654030000000  0.5324840000000  0.3998880000000 1.0
C      1  0.4576150000000  0.5884240000000  0.4422390000000 1.0
C      1  0.5236190000000  0.5434430000000  0.5004310000000 1.0
C      1  0.5214720000000  0.5271890000000  0.4773620000000 1.0
C      1  0.5052750000000  0.4861710000000  0.4968930000000 1.0
C      1  0.4827390000000  0.4200060000000  0.4623900000000 1.0
C      1  0.4665360000000  0.5753520000000  0.5875200000000 1.0
C      1  0.5721480000000  0.4549710000000  0.5272170000000 1.0
C      1  0.4352320000000  0.5430640000000  0.4341000000000 1.0
C      1  0.4463430000000  0.4773600000000  0.4567040000000 1.0
C      1  0.5496270000000  0.4399370000000  0.5204930000000 1.0
C      1  0.4996880000000  0.4164070000000  0.4826860000000 1.0
C      1  0.4580950000000  0.5629120000000  0.4328440000000 1.0
C      1  0.4193280000000  0.5205000000000  0.5235190000000 1.0
C      1  0.4395760000000  0.5772870000000  0.5850940000000 1.0
C      1  0.5891470000000  0.5399890000000  0.4852260000000 1.0
C      1  0.4381790000000  0.5669410000000  0.5156810000000 1.0
C      1  0.5656220000000  0.5814030000000  0.4734240000000 1.0
C      1  0.4263290000000  0.4445460000000  0.3745140000000 1.0
C      1  0.4974580000000  0.4938640000000  0.5899190000000 1.0
C      1  0.5650400000000  0.5130350000000  0.5688950000000 1.0
C      1  0.4933620000000  0.4814420000000  0.4038840000000 1.0
C      1  0.5075550000000  0.5670990000000  0.5023430000000 1.0
C      1  0.4428960000000  0.4518030000000  0.4453000000000 1.0
C      1  0.5680160000000  0.4741820000000  0.4646710000000 1.0
C      1  0.5740440000000  0.4683110000000  0.5526510000000 1.0
C      1  0.5485290000000  0.2938240000000  0.5869200000000 1.0
C      1  0.4804440000000  0.5526180000000  0.5432100000000 1.0
C      1  0.4265720000000  0.5659820000000  0.5400860000000 1.0
C      1  0.5416290000000  0.3189610000000  0.5865330000000 1.0
C      1  0.5420820000000  0.5934890000000  0.4774840000000 1.0
C      1  0.4708040000000  0.5027360000000  0.5938300000000 1.0
C      1  0.4892580000000  0.4718770000000  0.3793910000000 1.0
C      1  0.4722750000000  0.4608650000000  0.3620440000000 1.0
C      1  0.4799990000000  0.4225120000000  0.5257150000000 1.0
C      1  0.4557790000000  0.5360900000000  0.4756990000000 1.0
C      1  0.4477160000000  0.4506570000000  0.3597440000000 1.0
C      1  0.5135560000000  0.4211180000000  0.5836430000000 1.0
C      1  0.5116400000000  0.5382600000000  0.4533720000000 1.0
C      1  0.4269620000000  0.5586280000000  0.5676200000000 1.0
C      1  0.4471600000000  0.5140010000000  0.5875940000000 1.0
C      1  0.4518280000000  0.4883830000000  0.5064940000000 1.0
C      1  0.5783170000000  0.5573580000000  0.4657940000000 1.0
C      1  0.4237790000000  0.4473080000000  0.4253770000000 1.0
C      1  0.4500170000000  0.4627980000000  0.5211620000000 1.0
C      1  0.5346130000000  0.3445190000000  0.5861390000000 1.0
C      1  0.6137270000000  0.4585380000000  0.4723520000000 1.0
C      1  0.4331330000000  0.4877820000000  0.4802740000000 1.0
C      1  0.4917910000000  0.5070520000000  0.5412250000000 1.0
C      1  0.5305500000000  0.5514230000000  0.4123950000000 1.0
C      1  0.6366080000000  0.4493070000000  0.4639620000000 1.0
C      1  0.5046190000000  0.5945270000000  0.5411480000000 1.0
C      1  0.5913140000000  0.5228190000000  0.5057200000000 1.0
C      1  0.5437660000000  0.4850320000000  0.4657360000000 1.0
C      1  0.5068910000000  0.4463290000000  0.5790140000000 1.0
C      1  0.4524860000000  0.5563050000000  0.4953180000000 1.0
C      1  0.5118240000000  0.4702870000000  0.5197120000000 1.0
C      1  0.5172520000000  0.5884320000000  0.4864930000000 1.0
C      1  0.5033530000000  0.4817050000000  0.5442660000000 1.0
C      1  0.5291600000000  0.5975490000000  0.5520250000000 1.0
C      1  0.4941750000000  0.5720280000000  0.5269010000000 1.0
C      1  0.4469640000000  0.5129670000000  0.5250790000000 1.0
C      1  0.4590700000000  0.4389420000000  0.5287930000000 1.0
C      1  0.4714040000000  0.5257820000000  0.5361410000000 1.0
C      1  0.5221580000000  0.4439170000000  0.5166600000000 1.0
C      1  0.4682150000000  0.4947450000000  0.4492030000000 1.0
C      1  0.5743750000000  0.5499420000000  0.4388430000000 1.0
C      1  0.4810790000000  0.5599280000000  0.5708010000000 1.0
C      1  0.5203460000000  0.5095440000000  0.5954460000000 1.0
C      1  0.5067690000000  0.5473270000000  0.4270030000000 1.0
C      1  0.5776360000000  0.4970750000000  0.5497240000000 1.0
C      1  0.5895170000000  0.4685270000000  0.4816850000000 1.0
C      1  0.5275980000000  0.3700700000000  0.5857420000000 1.0
C      1  0.4168510000000  0.5120230000000  0.4760450000000 1.0
C      1  0.5024700000000  0.4725360000000  0.5710700000000 1.0
C      1  0.4802240000000  0.5504860000000  0.4174240000000 1.0
C      1  0.5505160000000  0.5811520000000  0.5510620000000 1.0
C      1  0.4310220000000  0.5320570000000  0.4599940000000 1.0
C      1  0.5445780000000  0.5161050000000  0.5859480000000 1.0
C      1  0.5551770000000  0.5580140000000  0.5382460000000 1.0
C      1  0.4615210000000  0.4317150000000  0.4514390000000 1.0
C      1  0.5205690000000  0.3956140000000  0.5852050000000 1.0
C      1  0.4175840000000  0.4439510000000  0.3997030000000 1.0
C      1  0.5849310000000  0.4737640000000  0.5089600000000 1.0
C      1  0.4787840000000  0.4957310000000  0.4937410000000 1.0
C      1  0.5566820000000  0.5503270000000  0.4186910000000 1.0
C      1  0.4396010000000  0.5282230000000  0.4094460000000 1.0
C      1  0.4731690000000  0.5133530000000  0.4713270000000 1.0
C      1  0.5436750000000  0.5418870000000  0.5200910000000 1.0
C      1  0.5030420000000  0.4241590000000  0.5094470000000 1.0
C      1  0.5863600000000  0.5002300000000  0.5216480000000 1.0
C      1  0.4298650000000  0.5317250000000  0.5768070000000 1.0
C      1  0.4852070000000  0.4895500000000  0.4278390000000 1.0
C      1  0.4047110000000  0.5204880000000  0.5004240000000 1.0
C      1  0.5243790000000  0.4989200000000  0.4800370000000 1.0
END
