TITL C-247197-3123-581 5.17960211087737e-08 125000 -611.188854746233 0 0 102 (C1) n - 1
REM
REM in /home/nfs/bkarasulu/CARBON/AIRSS/Generating-Clusters/LCBOP/Only-C1/SD-CG/FIRE-HFTN
REM
REM
REM
REM
REM
REM ./C.cell (11c1c37f851c82e70ff6c80c92926a4b)
REM AIRSS Version 0.9.1 bugfix July 2018 build 013d7b7c2542+ Fri, 06 Jul 2018 19:26:36 +0100
REM compiler GCC version 9.2.1 20190827 (Red Hat 9.2.1-1)
REM options -cpp -mtune=generic -march=x86-64 -g -O0 -fpre-include=/usr/include/finclude/math-vector-fortran.h
REM seed 1675798891 693882895 893247972 1147779059 94166116 -488190843 1516353786 -1071452055 456969802 -994496551 -288387696 1694466544 -1513440091 -321917922 1309797412 -983967142 -798815558 -842748641 -1169891767 137229864 2129431815 1822404300 1792544033 2118384200 -681539283 266127495 1412064359 -647590339 671886541 1411758339 -1383432494 -958113155 570282062
REM
CELL 1.54180   50.00000   50.00000   50.00000   90.00000   90.00000   90.00000
LATT -1
SFAC C  
C      1  0.4319050000000  0.5770770000000  0.4939780000000 1.0
C      1  0.4363610000000  0.5054880000000  0.4889030000000 1.0
C      1  0.5694950000000  0.4165560000000  0.5096640000000 1.0
C      1  0.4249510000000  0.5465180000000  0.5311190000000 1.0
C      1  0.5239730000000  0.4723150000000  0.5762650000000 1.0
C      1  0.5987160000000  0.4876070000000  0.5080650000000 1.0
C      1  0.5270890000000  0.4445360000000  0.5797320000000 1.0
C      1  0.5503270000000  0.4785670000000  0.4663670000000 1.0
C      1  0.4990070000000  0.5465730000000  0.4374160000000 1.0
C      1  0.5120640000000  0.5040300000000  0.4080070000000 1.0
C      1  0.4714720000000  0.4201980000000  0.5339810000000 1.0
C      1  0.5969040000000  0.5139400000000  0.4971810000000 1.0
C      1  0.4332910000000  0.4840550000000  0.4677350000000 1.0
C      1  0.4593500000000  0.5214890000000  0.4879980000000 1.0
C      1  0.5260960000000  0.5474470000000  0.4828810000000 1.0
C      1  0.5510570000000  0.5459350000000  0.5535360000000 1.0
C      1  0.5164170000000  0.4564320000000  0.4223980000000 1.0
C      1  0.5210900000000  0.5427410000000  0.4553240000000 1.0
C      1  0.5380920000000  0.4987560000000  0.5084790000000 1.0
C      1  0.5474620000000  0.4060440000000  0.5211400000000 1.0
C      1  0.5701790000000  0.5124750000000  0.4122750000000 1.0
C      1  0.5363780000000  0.5249120000000  0.4969650000000 1.0
C      1  0.5378510000000  0.4892830000000  0.5936230000000 1.0
C      1  0.5757700000000  0.5031650000000  0.5492640000000 1.0
C      1  0.5127120000000  0.4443840000000  0.4883150000000 1.0
C      1  0.5874850000000  0.5595240000000  0.4699140000000 1.0
C      1  0.5052850000000  0.5885030000000  0.4952690000000 1.0
C      1  0.4125910000000  0.5008170000000  0.5040420000000 1.0
C      1  0.4723050000000  0.5821440000000  0.4618660000000 1.0
C      1  0.3345850000000  0.5465310000000  0.4141710000000 1.0
C      1  0.4102550000000  0.5234920000000  0.5429330000000 1.0
C      1  0.4984320000000  0.5168090000000  0.5284610000000 1.0
C      1  0.4664210000000  0.5107230000000  0.5833450000000 1.0
C      1  0.5711430000000  0.5299770000000  0.5388620000000 1.0
C      1  0.4737760000000  0.4855710000000  0.5765150000000 1.0
C      1  0.4970220000000  0.5289370000000  0.5538220000000 1.0
C      1  0.5042050000000  0.5714160000000  0.5462680000000 1.0
C      1  0.4373250000000  0.4458470000000  0.5076770000000 1.0
C      1  0.4726980000000  0.4711770000000  0.4985430000000 1.0
C      1  0.5949320000000  0.4888590000000  0.4538970000000 1.0
C      1  0.5001290000000  0.4394740000000  0.4366180000000 1.0
C      1  0.4274000000000  0.5069000000000  0.5593050000000 1.0
C      1  0.5188270000000  0.4956390000000  0.5287500000000 1.0
C      1  0.5815610000000  0.4399920000000  0.5047280000000 1.0
C      1  0.4431040000000  0.4726220000000  0.4417880000000 1.0
C      1  0.5031850000000  0.4857480000000  0.4659030000000 1.0
C      1  0.4836800000000  0.4758560000000  0.5516640000000 1.0
C      1  0.5489620000000  0.5137200000000  0.5939020000000 1.0
C      1  0.5394500000000  0.5343290000000  0.5776610000000 1.0
C      1  0.5000760000000  0.5275620000000  0.4154610000000 1.0
C      1  0.5915570000000  0.5371490000000  0.4531950000000 1.0
C      1  0.4965300000000  0.4670440000000  0.4852550000000 1.0
C      1  0.5421840000000  0.3816870000000  0.4508610000000 1.0
C      1  0.5001620000000  0.4156510000000  0.5370100000000 1.0
C      1  0.4769050000000  0.5681100000000  0.5350360000000 1.0
C      1  0.5312510000000  0.5660080000000  0.5455640000000 1.0
C      1  0.3941950000000  0.5223610000000  0.4627350000000 1.0
C      1  0.5338180000000  0.4019130000000  0.4650170000000 1.0
C      1  0.4174400000000  0.5551180000000  0.5040350000000 1.0
C      1  0.5582120000000  0.4873470000000  0.4199520000000 1.0
C      1  0.5251140000000  0.4228010000000  0.4789050000000 1.0
C      1  0.4305180000000  0.4725230000000  0.5558250000000 1.0
C      1  0.5836520000000  0.5359060000000  0.5125400000000 1.0
C      1  0.3965330000000  0.5085760000000  0.5238370000000 1.0
C      1  0.5110670000000  0.5347960000000  0.5760300000000 1.0
C      1  0.5823360000000  0.5322970000000  0.4266320000000 1.0
C      1  0.5560990000000  0.5775740000000  0.5022540000000 1.0
C      1  0.5282450000000  0.4940660000000  0.4584600000000 1.0
C      1  0.5294110000000  0.4811950000000  0.4138140000000 1.0
C      1  0.4753030000000  0.5562070000000  0.4499970000000 1.0
C      1  0.4401630000000  0.4654750000000  0.5300190000000 1.0
C      1  0.5651630000000  0.4506540000000  0.5537480000000 1.0
C      1  0.4687050000000  0.4734210000000  0.5273270000000 1.0
C      1  0.5542850000000  0.4790900000000  0.4945870000000 1.0
C      1  0.5344350000000  0.5191990000000  0.4484660000000 1.0
C      1  0.4388440000000  0.4480270000000  0.5701070000000 1.0
C      1  0.4790410000000  0.5810640000000  0.5087930000000 1.0
C      1  0.5781250000000  0.5601500000000  0.4970110000000 1.0
C      1  0.5425690000000  0.4333930000000  0.5591560000000 1.0
C      1  0.5290470000000  0.5729680000000  0.4949960000000 1.0
C      1  0.4619400000000  0.5360830000000  0.4642510000000 1.0
C      1  0.3734410000000  0.5307150000000  0.4458400000000 1.0
C      1  0.4467200000000  0.4627270000000  0.4858980000000 1.0
C      1  0.5291200000000  0.4167340000000  0.5398500000000 1.0
C      1  0.4753730000000  0.4331490000000  0.4509970000000 1.0
C      1  0.4501790000000  0.5254660000000  0.5654670000000 1.0
C      1  0.4552440000000  0.4286300000000  0.5576890000000 1.0
C      1  0.4585060000000  0.5820580000000  0.4881490000000 1.0
C      1  0.5697930000000  0.4781210000000  0.4455690000000 1.0
C      1  0.4022850000000  0.5404690000000  0.4840210000000 1.0
C      1  0.5742170000000  0.4763650000000  0.5535480000000 1.0
C      1  0.4583330000000  0.4239470000000  0.5069860000000 1.0
C      1  0.5984440000000  0.5135860000000  0.4680570000000 1.0
C      1  0.4538010000000  0.4478680000000  0.4391720000000 1.0
C      1  0.4696210000000  0.4209450000000  0.4783470000000 1.0
C      1  0.3538560000000  0.5386860000000  0.4298780000000 1.0
C      1  0.4060030000000  0.4960520000000  0.4574450000000 1.0
C      1  0.4798400000000  0.5212080000000  0.5075830000000 1.0
C      1  0.5121010000000  0.4788030000000  0.5507060000000 1.0
C      1  0.4521800000000  0.5494020000000  0.5450390000000 1.0
C      1  0.4964440000000  0.5966460000000  0.4685220000000 1.0
C      1  0.5788120000000  0.4678800000000  0.5038470000000 1.0
END
