TITL C-247199-3331-212 2.30837553383936 125000 -1058.51123716945 0 0 174 (C1) n - 1
REM
REM in /home/nfs/bkarasulu/CARBON/AIRSS/Generating-Clusters/LCBOP/Only-C1/SD-CG/FIRE-HFTN
REM
REM
REM
REM
REM
REM ./C.cell (11c1c37f851c82e70ff6c80c92926a4b)
REM AIRSS Version 0.9.1 bugfix July 2018 build 013d7b7c2542+ Fri, 06 Jul 2018 19:26:36 +0100
REM compiler GCC version 9.2.1 20190827 (Red Hat 9.2.1-1)
REM options -cpp -mtune=generic -march=x86-64 -g -O0 -fpre-include=/usr/include/finclude/math-vector-fortran.h
REM seed 931372097 -699943061 -331139173 -660389997 580758344 575846390 -1352743021 -1855291968 1541673822 1685762448 1544256276 -1254872161 -1074240166 1257780754 -397579601 -2010519674 254741176 -1259364768 965241776 -912205874 14179077 1334898806 1760008098 -430996979 269046089 -1343687145 26078689 -1332536366 -1219912852 -974053091 -1667930964 180918398 1099550062
REM
CELL 1.54180   50.00000   50.00000   50.00000   90.00000   90.00000   90.00000
LATT -1
SFAC C  
C      1  0.4225710000000  0.4802290000000  0.5805220000000 1.0
C      1  0.5834690000000  0.5436760000000  0.4862900000000 1.0
C      1  0.4444520000000  0.5231510000000  0.4837120000000 1.0
C      1  0.5308190000000  0.6249760000000  0.5027580000000 1.0
C      1  0.4705420000000  0.4568020000000  0.4735020000000 1.0
C      1  0.5197450000000  0.5227690000000  0.4905020000000 1.0
C      1  0.5183700000000  0.5534660000000  0.4921460000000 1.0
C      1  0.5512660000000  0.4405910000000  0.5700670000000 1.0
C      1  0.3908090000000  0.4657810000000  0.5167390000000 1.0
C      1  0.4877280000000  0.3989100000000  0.5582450000000 1.0
C      1  0.4841610000000  0.4967510000000  0.5126580000000 1.0
C      1  0.5435510000000  0.3739870000000  0.4664900000000 1.0
C      1  0.5315330000000  0.4223870000000  0.5581290000000 1.0
C      1  0.4502630000000  0.6029740000000  0.5194290000000 1.0
C      1  0.5330030000000  0.5246290000000  0.4352560000000 1.0
C      1  0.3965930000000  0.4556620000000  0.5446150000000 1.0
C      1  0.6249150000000  0.4819300000000  0.5327600000000 1.0
C      1  0.5018680000000  0.4860450000000  0.4273730000000 1.0
C      1  0.5876850000000  0.4287370000000  0.4575410000000 1.0
C      1  0.5757070000000  0.4097190000000  0.4750410000000 1.0
C      1  0.5890140000000  0.5409480000000  0.5641720000000 1.0
C      1  0.5104860000000  0.4633810000000  0.4929160000000 1.0
C      1  0.4904900000000  0.6254640000000  0.5765120000000 1.0
C      1  0.3866660000000  0.4991100000000  0.5051190000000 1.0
C      1  0.5305230000000  0.5737270000000  0.4331380000000 1.0
C      1  0.5892020000000  0.5692300000000  0.4979520000000 1.0
C      1  0.4192160000000  0.4064550000000  0.5381890000000 1.0
C      1  0.5516710000000  0.4859390000000  0.4944730000000 1.0
C      1  0.4913060000000  0.5462290000000  0.5328790000000 1.0
C      1  0.4742000000000  0.4473220000000  0.5202990000000 1.0
C      1  0.4914940000000  0.5529200000000  0.4179740000000 1.0
C      1  0.5432550000000  0.5434690000000  0.5957770000000 1.0
C      1  0.6179260000000  0.4479140000000  0.4950330000000 1.0
C      1  0.4345890000000  0.5825840000000  0.4761510000000 1.0
C      1  0.3826100000000  0.5458580000000  0.5223810000000 1.0
C      1  0.5591650000000  0.5693440000000  0.3946860000000 1.0
C      1  0.5393540000000  0.4529900000000  0.4053240000000 1.0
C      1  0.5075840000000  0.4647420000000  0.5756490000000 1.0
C      1  0.5602140000000  0.5442500000000  0.3846670000000 1.0
C      1  0.3909880000000  0.5188010000000  0.5256880000000 1.0
C      1  0.4682210000000  0.4439390000000  0.4481490000000 1.0
C      1  0.4732080000000  0.5162340000000  0.6387850000000 1.0
C      1  0.5619880000000  0.5329600000000  0.5037960000000 1.0
C      1  0.4762960000000  0.5769110000000  0.4102650000000 1.0
C      1  0.4222030000000  0.5090090000000  0.5848170000000 1.0
C      1  0.4476770000000  0.5318810000000  0.4322810000000 1.0
C      1  0.5577630000000  0.4899040000000  0.5501920000000 1.0
C      1  0.5684140000000  0.5391120000000  0.5835780000000 1.0
C      1  0.4453030000000  0.4458250000000  0.5130620000000 1.0
C      1  0.4254060000000  0.4335140000000  0.4952770000000 1.0
C      1  0.4738120000000  0.5420860000000  0.4370860000000 1.0
C      1  0.3943340000000  0.5106280000000  0.4783260000000 1.0
C      1  0.5245020000000  0.5110420000000  0.3899200000000 1.0
C      1  0.5261260000000  0.4410220000000  0.4493420000000 1.0
C      1  0.6010870000000  0.4897670000000  0.4919170000000 1.0
C      1  0.4838880000000  0.5110170000000  0.3547240000000 1.0
C      1  0.5324990000000  0.5980650000000  0.5109570000000 1.0
C      1  0.4102890000000  0.5659910000000  0.4845650000000 1.0
C      1  0.5212190000000  0.6394950000000  0.4562960000000 1.0
C      1  0.4477850000000  0.4233100000000  0.4476640000000 1.0
C      1  0.3996790000000  0.4463670000000  0.4975270000000 1.0
C      1  0.4574970000000  0.6012180000000  0.5464490000000 1.0
C      1  0.4883960000000  0.4972510000000  0.6259970000000 1.0
C      1  0.6060390000000  0.4909350000000  0.5520850000000 1.0
C      1  0.4326580000000  0.4204450000000  0.4712680000000 1.0
C      1  0.6224580000000  0.4753170000000  0.5053750000000 1.0
C      1  0.5973200000000  0.4307830000000  0.5449930000000 1.0
C      1  0.4675530000000  0.4548280000000  0.5963900000000 1.0
C      1  0.5159250000000  0.5105170000000  0.5210730000000 1.0
C      1  0.4895650000000  0.4428810000000  0.4937550000000 1.0
C      1  0.3910850000000  0.4559700000000  0.4292020000000 1.0
C      1  0.5347510000000  0.4947200000000  0.5375440000000 1.0
C      1  0.5995170000000  0.4992690000000  0.4644190000000 1.0
C      1  0.4908250000000  0.5798410000000  0.4621780000000 1.0
C      1  0.5221020000000  0.6179730000000  0.4385880000000 1.0
C      1  0.5257340000000  0.4196120000000  0.4690580000000 1.0
C      1  0.4284660000000  0.4345790000000  0.5744710000000 1.0
C      1  0.5458720000000  0.4372690000000  0.4292800000000 1.0
C      1  0.5466690000000  0.5136400000000  0.4851570000000 1.0
C      1  0.5257660000000  0.6416630000000  0.4825730000000 1.0
C      1  0.4911760000000  0.4418350000000  0.5831830000000 1.0
C      1  0.4755380000000  0.4737400000000  0.6164930000000 1.0
C      1  0.4480550000000  0.4088460000000  0.4230160000000 1.0
C      1  0.5897430000000  0.4068700000000  0.4998320000000 1.0
C      1  0.5124600000000  0.5917090000000  0.4470970000000 1.0
C      1  0.5043760000000  0.5109610000000  0.3708240000000 1.0
C      1  0.3933890000000  0.5657540000000  0.5073120000000 1.0
C      1  0.5817670000000  0.4760670000000  0.5563700000000 1.0
C      1  0.5547860000000  0.5203530000000  0.4559780000000 1.0
C      1  0.4321530000000  0.5293930000000  0.5088910000000 1.0
C      1  0.5344060000000  0.4649760000000  0.5046550000000 1.0
C      1  0.5474410000000  0.5866200000000  0.4136450000000 1.0
C      1  0.5520600000000  0.6349960000000  0.4021630000000 1.0
C      1  0.5518960000000  0.5171400000000  0.3840270000000 1.0
C      1  0.4305400000000  0.4894000000000  0.5292360000000 1.0
C      1  0.5541470000000  0.5914650000000  0.5289740000000 1.0
C      1  0.4858960000000  0.5894840000000  0.4888780000000 1.0
C      1  0.4600060000000  0.3932210000000  0.5639930000000 1.0
C      1  0.5280210000000  0.5231520000000  0.6082810000000 1.0
C      1  0.4007920000000  0.5170850000000  0.6020290000000 1.0
C      1  0.4263000000000  0.5486270000000  0.4433460000000 1.0
C      1  0.4612290000000  0.5755200000000  0.5571640000000 1.0
C      1  0.4688940000000  0.6222770000000  0.5610480000000 1.0
C      1  0.4373760000000  0.5026410000000  0.4635460000000 1.0
C      1  0.5204850000000  0.5049580000000  0.4175580000000 1.0
C      1  0.5332480000000  0.5697110000000  0.5934240000000 1.0
C      1  0.4763810000000  0.5314160000000  0.5745320000000 1.0
C      1  0.5189560000000  0.5378540000000  0.5347460000000 1.0
C      1  0.4836620000000  0.4739500000000  0.5334740000000 1.0
C      1  0.4370670000000  0.5768450000000  0.4465800000000 1.0
C      1  0.5123430000000  0.4067280000000  0.5152280000000 1.0
C      1  0.6051560000000  0.5181100000000  0.5599550000000 1.0
C      1  0.4406160000000  0.4577320000000  0.5852880000000 1.0
C      1  0.4063040000000  0.5424910000000  0.4662370000000 1.0
C      1  0.5831850000000  0.4651390000000  0.4263150000000 1.0
C      1  0.4543200000000  0.5858570000000  0.4250430000000 1.0
C      1  0.4203460000000  0.5167470000000  0.5333420000000 1.0
C      1  0.4735480000000  0.4910120000000  0.4278290000000 1.0
C      1  0.5414740000000  0.6147940000000  0.4169630000000 1.0
C      1  0.5009600000000  0.5054440000000  0.4781380000000 1.0
C      1  0.5482340000000  0.5965540000000  0.5562000000000 1.0
C      1  0.4407180000000  0.4742340000000  0.5086800000000 1.0
C      1  0.3961920000000  0.4726960000000  0.5678810000000 1.0
C      1  0.5058880000000  0.4182920000000  0.4898750000000 1.0
C      1  0.4258750000000  0.5245550000000  0.5612300000000 1.0
C      1  0.6077740000000  0.4486800000000  0.4663250000000 1.0
C      1  0.5985390000000  0.4318460000000  0.5142580000000 1.0
C      1  0.5484900000000  0.4012850000000  0.4704190000000 1.0
C      1  0.4855720000000  0.4391300000000  0.4164400000000 1.0
C      1  0.5114970000000  0.5804480000000  0.5015890000000 1.0
C      1  0.5640890000000  0.4713860000000  0.4041230000000 1.0
C      1  0.4505800000000  0.5039640000000  0.4382630000000 1.0
C      1  0.4912720000000  0.3939330000000  0.5292570000000 1.0
C      1  0.4766460000000  0.5524810000000  0.5561250000000 1.0
C      1  0.4618360000000  0.4805040000000  0.4903230000000 1.0
C      1  0.5337580000000  0.4853450000000  0.6371790000000 1.0
C      1  0.5322570000000  0.5938560000000  0.5791350000000 1.0
C      1  0.4105840000000  0.4934080000000  0.4630570000000 1.0
C      1  0.4643350000000  0.3878540000000  0.5194190000000 1.0
C      1  0.3764440000000  0.5050950000000  0.5985970000000 1.0
C      1  0.5784640000000  0.4473300000000  0.5605140000000 1.0
C      1  0.5380040000000  0.3486870000000  0.4636240000000 1.0
C      1  0.5732560000000  0.4387360000000  0.4354920000000 1.0
C      1  0.5167030000000  0.5018650000000  0.6233040000000 1.0
C      1  0.5331360000000  0.4212440000000  0.5293390000000 1.0
C      1  0.4690960000000  0.5383200000000  0.4852750000000 1.0
C      1  0.5794450000000  0.5776780000000  0.5238840000000 1.0
C      1  0.4790570000000  0.5526430000000  0.4626980000000 1.0
C      1  0.4691910000000  0.4183840000000  0.4061790000000 1.0
C      1  0.5476000000000  0.4424970000000  0.5160570000000 1.0
C      1  0.5773000000000  0.4763080000000  0.4998750000000 1.0
C      1  0.5130590000000  0.6135760000000  0.5843100000000 1.0
C      1  0.4823960000000  0.5055680000000  0.5715810000000 1.0
C      1  0.5679590000000  0.4942380000000  0.3879280000000 1.0
C      1  0.5466920000000  0.5430290000000  0.5269210000000 1.0
C      1  0.5125930000000  0.4676050000000  0.4471330000000 1.0
C      1  0.3813940000000  0.4388200000000  0.4121300000000 1.0
C      1  0.5746390000000  0.4496020000000  0.5104950000000 1.0
C      1  0.3737820000000  0.4843400000000  0.5810510000000 1.0
C      1  0.4567600000000  0.5926290000000  0.4939000000000 1.0
C      1  0.5075480000000  0.4805900000000  0.4714300000000 1.0
C      1  0.5191140000000  0.5492700000000  0.4270260000000 1.0
C      1  0.4010230000000  0.4731750000000  0.4467260000000 1.0
C      1  0.6009440000000  0.4739470000000  0.4486810000000 1.0
C      1  0.5900960000000  0.5630670000000  0.5463230000000 1.0
C      1  0.5350940000000  0.4616400000000  0.5815260000000 1.0
C      1  0.4784230000000  0.5325390000000  0.5114270000000 1.0
C      1  0.4121260000000  0.4308650000000  0.5510510000000 1.0
C      1  0.4308880000000  0.3888720000000  0.4163480000000 1.0
C      1  0.5099780000000  0.4481940000000  0.4025160000000 1.0
C      1  0.4435760000000  0.3920020000000  0.5396230000000 1.0
C      1  0.5040960000000  0.4187100000000  0.5702860000000 1.0
C      1  0.5843400000000  0.5247120000000  0.4615330000000 1.0
C      1  0.4922450000000  0.4822070000000  0.5596680000000 1.0
END
