TITL C-247195-3186-622 2.05689522518076e-06 125000 -1201.81351605063 0 0 197 (C1) n - 1
REM
REM in /home/nfs/bkarasulu/CARBON/AIRSS/Generating-Clusters/LCBOP/Only-C1/SD-CG/FIRE-HFTN
REM
REM
REM
REM
REM
REM ./C.cell (11c1c37f851c82e70ff6c80c92926a4b)
REM AIRSS Version 0.9.1 bugfix July 2018 build 013d7b7c2542+ Fri, 06 Jul 2018 19:26:36 +0100
REM compiler GCC version 9.2.1 20190827 (Red Hat 9.2.1-1)
REM options -cpp -mtune=generic -march=x86-64 -g -O0 -fpre-include=/usr/include/finclude/math-vector-fortran.h
REM seed 380500943 -747861389 -998447362 -648592783 -2076553212 -249443767 -1202462740 1420864001 1300642680 1596854875 877948244 1701968804 -1288935760 -602474893 -843488548 -43834555 -289687341 1256140682 -2031872767 -85676603 -846970239 -1556280014 699631684 -2042519318 -1309067337 1982476022 -1389776080 186759814 2024811567 1550020737 -1395153929 796067690 -1132144527
REM
CELL 1.54180   50.00000   50.00000   50.00000   90.00000   90.00000   90.00000
LATT -1
SFAC C  
C      1  0.6437840000000  0.5226170000000  0.4646410000000 1.0
C      1  0.4136520000000  0.4234080000000  0.4950810000000 1.0
C      1  0.5483610000000  0.6324450000000  0.5414910000000 1.0
C      1  0.4518800000000  0.6059980000000  0.4770310000000 1.0
C      1  0.4557820000000  0.4778890000000  0.3883030000000 1.0
C      1  0.6187650000000  0.5162980000000  0.4610870000000 1.0
C      1  0.5075240000000  0.4258300000000  0.4389030000000 1.0
C      1  0.4556310000000  0.5574140000000  0.5617550000000 1.0
C      1  0.5838020000000  0.4031130000000  0.4536590000000 1.0
C      1  0.4947000000000  0.5570980000000  0.6374440000000 1.0
C      1  0.4447860000000  0.4630890000000  0.4539890000000 1.0
C      1  0.4781310000000  0.4950380000000  0.5456720000000 1.0
C      1  0.4976720000000  0.5321730000000  0.5732660000000 1.0
C      1  0.5928060000000  0.4773550000000  0.5692640000000 1.0
C      1  0.4630870000000  0.5390820000000  0.6068030000000 1.0
C      1  0.5082800000000  0.5051880000000  0.5800250000000 1.0
C      1  0.5337300000000  0.4659210000000  0.4450730000000 1.0
C      1  0.5596270000000  0.3940830000000  0.5393360000000 1.0
C      1  0.4064340000000  0.5002140000000  0.4184190000000 1.0
C      1  0.4329540000000  0.5101740000000  0.4177020000000 1.0
C      1  0.4535170000000  0.5751760000000  0.5202620000000 1.0
C      1  0.4367500000000  0.5090190000000  0.5082390000000 1.0
C      1  0.5683580000000  0.5163360000000  0.5306870000000 1.0
C      1  0.4726360000000  0.5216150000000  0.4412550000000 1.0
C      1  0.4780190000000  0.5939820000000  0.4741800000000 1.0
C      1  0.6070860000000  0.6497910000000  0.5006690000000 1.0
C      1  0.4213140000000  0.4234590000000  0.4674610000000 1.0
C      1  0.4828990000000  0.5800340000000  0.5208110000000 1.0
C      1  0.5256710000000  0.4716600000000  0.4187440000000 1.0
C      1  0.3941080000000  0.5460770000000  0.4240200000000 1.0
C      1  0.3810150000000  0.4789840000000  0.5705320000000 1.0
C      1  0.5363700000000  0.3805100000000  0.5295990000000 1.0
C      1  0.4712530000000  0.3863210000000  0.4742960000000 1.0
C      1  0.4891490000000  0.4298710000000  0.4609470000000 1.0
C      1  0.5190320000000  0.4277390000000  0.5447450000000 1.0
C      1  0.5444170000000  0.5846710000000  0.5929930000000 1.0
C      1  0.5973530000000  0.6214520000000  0.5356800000000 1.0
C      1  0.5527030000000  0.5247210000000  0.4857890000000 1.0
C      1  0.3925010000000  0.5588430000000  0.5386990000000 1.0
C      1  0.3848180000000  0.4794150000000  0.5430470000000 1.0
C      1  0.4379060000000  0.5729520000000  0.4231380000000 1.0
C      1  0.5188070000000  0.4023760000000  0.4845750000000 1.0
C      1  0.5191020000000  0.5830520000000  0.4435990000000 1.0
C      1  0.4051230000000  0.5816660000000  0.5305690000000 1.0
C      1  0.5890790000000  0.5844400000000  0.5731030000000 1.0
C      1  0.3969390000000  0.4474160000000  0.5029000000000 1.0
C      1  0.4885080000000  0.4573780000000  0.4683260000000 1.0
C      1  0.4926370000000  0.5979100000000  0.4984370000000 1.0
C      1  0.4512690000000  0.4990590000000  0.5529490000000 1.0
C      1  0.3793570000000  0.5096760000000  0.4558030000000 1.0
C      1  0.5256800000000  0.6102970000000  0.4402050000000 1.0
C      1  0.5455190000000  0.5555950000000  0.5224560000000 1.0
C      1  0.4872520000000  0.5340770000000  0.4978240000000 1.0
C      1  0.3825380000000  0.5059270000000  0.5307270000000 1.0
C      1  0.5061200000000  0.5449120000000  0.3772130000000 1.0
C      1  0.5585840000000  0.5338050000000  0.5116150000000 1.0
C      1  0.5141480000000  0.3678820000000  0.5423920000000 1.0
C      1  0.5376190000000  0.5502510000000  0.5496160000000 1.0
C      1  0.4979410000000  0.5544390000000  0.5177930000000 1.0
C      1  0.4099640000000  0.4486740000000  0.4254830000000 1.0
C      1  0.5217380000000  0.3525250000000  0.4645280000000 1.0
C      1  0.5720980000000  0.5319770000000  0.4668100000000 1.0
C      1  0.5802860000000  0.6530640000000  0.5065400000000 1.0
C      1  0.5062330000000  0.4589290000000  0.5993310000000 1.0
C      1  0.4795140000000  0.4495570000000  0.5937240000000 1.0
C      1  0.4105700000000  0.5685070000000  0.4305670000000 1.0
C      1  0.4290140000000  0.5277660000000  0.4663440000000 1.0
C      1  0.5048240000000  0.5291580000000  0.4752100000000 1.0
C      1  0.5602590000000  0.5459090000000  0.5669980000000 1.0
C      1  0.5059640000000  0.4837100000000  0.5103210000000 1.0
C      1  0.5461120000000  0.6212580000000  0.4547820000000 1.0
C      1  0.6242530000000  0.4168320000000  0.4959170000000 1.0
C      1  0.5117700000000  0.6254300000000  0.4221030000000 1.0
C      1  0.4359830000000  0.4884940000000  0.5305770000000 1.0
C      1  0.5110820000000  0.4686320000000  0.4861220000000 1.0
C      1  0.4795370000000  0.5427380000000  0.3753770000000 1.0
C      1  0.6083490000000  0.3901440000000  0.4596330000000 1.0
C      1  0.6194120000000  0.5040490000000  0.5430680000000 1.0
C      1  0.5174510000000  0.5689100000000  0.6306910000000 1.0
C      1  0.4878560000000  0.4095900000000  0.4830560000000 1.0
C      1  0.4766870000000  0.3630010000000  0.4895530000000 1.0
C      1  0.6265400000000  0.3965850000000  0.4783800000000 1.0
C      1  0.5241100000000  0.5646440000000  0.5073110000000 1.0
C      1  0.5941620000000  0.4360200000000  0.5293740000000 1.0
C      1  0.4487190000000  0.3896180000000  0.5216140000000 1.0
C      1  0.4561630000000  0.3850280000000  0.4508420000000 1.0
C      1  0.4352760000000  0.6115370000000  0.4985040000000 1.0
C      1  0.5289200000000  0.5125990000000  0.4753250000000 1.0
C      1  0.5311980000000  0.3849380000000  0.5023010000000 1.0
C      1  0.6449250000000  0.6219130000000  0.5184040000000 1.0
C      1  0.5247090000000  0.5384540000000  0.4291430000000 1.0
C      1  0.4017320000000  0.4725380000000  0.4159080000000 1.0
C      1  0.4639350000000  0.4524650000000  0.3896130000000 1.0
C      1  0.5808580000000  0.5049720000000  0.4318710000000 1.0
C      1  0.5101340000000  0.5447160000000  0.5510410000000 1.0
C      1  0.4947930000000  0.5401390000000  0.4485670000000 1.0
C      1  0.4875670000000  0.5918940000000  0.5492290000000 1.0
C      1  0.5195120000000  0.4858270000000  0.5984780000000 1.0
C      1  0.4608990000000  0.4483310000000  0.5091290000000 1.0
C      1  0.5781540000000  0.4139420000000  0.5383570000000 1.0
C      1  0.5618350000000  0.5056940000000  0.4108410000000 1.0
C      1  0.3924900000000  0.4293400000000  0.5464580000000 1.0
C      1  0.5992290000000  0.5064820000000  0.5642920000000 1.0
C      1  0.3887980000000  0.5187780000000  0.4307770000000 1.0
C      1  0.4701770000000  0.5441510000000  0.6334300000000 1.0
C      1  0.4881850000000  0.3618650000000  0.5365090000000 1.0
C      1  0.5488220000000  0.4841280000000  0.5983460000000 1.0
C      1  0.3725740000000  0.5072560000000  0.5041670000000 1.0
C      1  0.4570460000000  0.4622210000000  0.5806290000000 1.0
C      1  0.5523530000000  0.4582560000000  0.5586360000000 1.0
C      1  0.3898270000000  0.4978860000000  0.4815590000000 1.0
C      1  0.5913800000000  0.4841280000000  0.5072160000000 1.0
C      1  0.4811810000000  0.4934810000000  0.5171280000000 1.0
C      1  0.4543560000000  0.4066700000000  0.4048040000000 1.0
C      1  0.4492000000000  0.4486760000000  0.5559060000000 1.0
C      1  0.4221740000000  0.4029370000000  0.5159080000000 1.0
C      1  0.4888600000000  0.5734700000000  0.4494360000000 1.0
C      1  0.4710990000000  0.5414040000000  0.5800980000000 1.0
C      1  0.4320270000000  0.5966400000000  0.5245600000000 1.0
C      1  0.5200010000000  0.4679970000000  0.3929180000000 1.0
C      1  0.5222460000000  0.4794740000000  0.3688190000000 1.0
C      1  0.5857310000000  0.4325000000000  0.4527670000000 1.0
C      1  0.5286690000000  0.5051060000000  0.3637480000000 1.0
C      1  0.4439660000000  0.5236410000000  0.4414430000000 1.0
C      1  0.5481350000000  0.6276540000000  0.5700390000000 1.0
C      1  0.4680130000000  0.5132660000000  0.5031210000000 1.0
C      1  0.4724090000000  0.4277290000000  0.3999560000000 1.0
C      1  0.5395260000000  0.5829640000000  0.6209060000000 1.0
C      1  0.4053250000000  0.4064110000000  0.5391940000000 1.0
C      1  0.5847780000000  0.4442170000000  0.4269130000000 1.0
C      1  0.3882130000000  0.4671020000000  0.4841650000000 1.0
C      1  0.3876720000000  0.5321410000000  0.5417270000000 1.0
C      1  0.5637700000000  0.5547970000000  0.4511680000000 1.0
C      1  0.4835990000000  0.3988370000000  0.5964270000000 1.0
C      1  0.5684820000000  0.4820730000000  0.3956940000000 1.0
C      1  0.4410610000000  0.6054050000000  0.5531180000000 1.0
C      1  0.5240650000000  0.6197690000000  0.5321830000000 1.0
C      1  0.5989120000000  0.6022540000000  0.5558410000000 1.0
C      1  0.4629390000000  0.4225900000000  0.5575620000000 1.0
C      1  0.4768090000000  0.4215410000000  0.5830680000000 1.0
C      1  0.4715380000000  0.4711610000000  0.4511440000000 1.0
C      1  0.4451810000000  0.5512250000000  0.5344320000000 1.0
C      1  0.4973260000000  0.4246810000000  0.4130310000000 1.0
C      1  0.5479230000000  0.4742620000000  0.5355810000000 1.0
C      1  0.5090490000000  0.4331080000000  0.5193860000000 1.0
C      1  0.4802560000000  0.4944970000000  0.4388400000000 1.0
C      1  0.4488340000000  0.5045060000000  0.3946430000000 1.0
C      1  0.4497260000000  0.3904050000000  0.4255540000000 1.0
C      1  0.5381160000000  0.5233420000000  0.4083910000000 1.0
C      1  0.6133350000000  0.4813240000000  0.5262320000000 1.0
C      1  0.4278300000000  0.4415050000000  0.4462540000000 1.0
C      1  0.5381700000000  0.5611790000000  0.4398030000000 1.0
C      1  0.5217490000000  0.4836640000000  0.5339370000000 1.0
C      1  0.4641310000000  0.5756430000000  0.4295340000000 1.0
C      1  0.5339760000000  0.4266390000000  0.4776050000000 1.0
C      1  0.5282290000000  0.4845990000000  0.4670720000000 1.0
C      1  0.5610670000000  0.3861200000000  0.4508440000000 1.0
C      1  0.4669460000000  0.4092390000000  0.5328290000000 1.0
C      1  0.6028010000000  0.4597560000000  0.5449950000000 1.0
C      1  0.5042780000000  0.4915030000000  0.5554110000000 1.0
C      1  0.5319550000000  0.4370820000000  0.4506470000000 1.0
C      1  0.5725730000000  0.6359570000000  0.5283790000000 1.0
C      1  0.4541380000000  0.5368630000000  0.6542490000000 1.0
C      1  0.5347080000000  0.4374600000000  0.5655620000000 1.0
C      1  0.4300460000000  0.5378600000000  0.5139680000000 1.0
C      1  0.4809050000000  0.4246760000000  0.5107770000000 1.0
C      1  0.6191400000000  0.6302390000000  0.5182150000000 1.0
C      1  0.4619760000000  0.5870160000000  0.5625350000000 1.0
C      1  0.4206610000000  0.5029960000000  0.4827550000000 1.0
C      1  0.4311210000000  0.6268390000000  0.5664480000000 1.0
C      1  0.5904840000000  0.5088380000000  0.4592240000000 1.0
C      1  0.5921430000000  0.4490550000000  0.4763990000000 1.0
C      1  0.5787000000000  0.4588470000000  0.4052730000000 1.0
C      1  0.4593340000000  0.5260680000000  0.3801980000000 1.0
C      1  0.3903620000000  0.4531480000000  0.5307160000000 1.0
C      1  0.4087750000000  0.5706790000000  0.4791250000000 1.0
C      1  0.5666040000000  0.4718260000000  0.5793140000000 1.0
C      1  0.5246310000000  0.4444990000000  0.4978110000000 1.0
C      1  0.3471100000000  0.5162820000000  0.4992720000000 1.0
C      1  0.5120000000000  0.6167420000000  0.5069130000000 1.0
C      1  0.6028320000000  0.4349090000000  0.5009520000000 1.0
C      1  0.5904200000000  0.4781880000000  0.4797480000000 1.0
C      1  0.5565980000000  0.5954010000000  0.6383610000000 1.0
C      1  0.4990750000000  0.3486170000000  0.4790710000000 1.0
C      1  0.5270080000000  0.5267130000000  0.3818680000000 1.0
C      1  0.5316790000000  0.6045660000000  0.5769520000000 1.0
C      1  0.5124030000000  0.6040130000000  0.5546170000000 1.0
C      1  0.4674130000000  0.3662670000000  0.5168010000000 1.0
C      1  0.4240420000000  0.5485530000000  0.4867800000000 1.0
C      1  0.4030390000000  0.5808500000000  0.4549280000000 1.0
C      1  0.5425330000000  0.3667110000000  0.4544430000000 1.0
C      1  0.5664540000000  0.5697780000000  0.5812630000000 1.0
C      1  0.4323960000000  0.4786310000000  0.4728000000000 1.0
C      1  0.5250920000000  0.4383980000000  0.5920310000000 1.0
C      1  0.5769880000000  0.5240670000000  0.5573140000000 1.0
C      1  0.5678860000000  0.4895140000000  0.5225030000000 1.0
C      1  0.4446330000000  0.4603390000000  0.5298300000000 1.0
END
