TITL C-247201-3759-296 93.5990497804749 125000 -97.3085726644407 0 0 18 (C1) n - 1
REM
REM in /home/nfs/bkarasulu/CARBON/AIRSS/Generating-Clusters/LCBOP/Only-C1/SD-CG/FIRE-HFTN
REM
REM
REM
REM
REM
REM ./C.cell (11c1c37f851c82e70ff6c80c92926a4b)
REM AIRSS Version 0.9.1 bugfix July 2018 build 013d7b7c2542+ Fri, 06 Jul 2018 19:26:36 +0100
REM compiler GCC version 9.2.1 20190827 (Red Hat 9.2.1-1)
REM options -cpp -mtune=generic -march=x86-64 -g -O0 -fpre-include=/usr/include/finclude/math-vector-fortran.h
REM seed 119939937 1612745386 1112055769 445286196 1436275467 -453207613 462967008 1663539966 -1593470668 -147516686 1294733069 812714387 316932556 -1519776866 -1431667695 1971712741 602114909 -1437385712 902053165 -1909257784 772470106 608765881 1107035792 1263726002 -310341877 1763838429 -1274500256 1112700701 1714074605 -686375694 -960757177 -1291385343 -1309806484
REM
CELL 1.54180   50.00000   50.00000   50.00000   90.00000   90.00000   90.00000
LATT -1
SFAC C  
C      1  0.5646470000000  0.4662370000000  0.5073830000000 1.0
C      1  0.4988800000000  0.5106600000000  0.4120130000000 1.0
C      1  0.4773470000000  0.5129170000000  0.6232280000000 1.0
C      1  0.5083450000000  0.4714670000000  0.5402580000000 1.0
C      1  0.4774760000000  0.5203440000000  0.5969030000000 1.0
C      1  0.4792360000000  0.5323590000000  0.3678210000000 1.0
C      1  0.5378380000000  0.4666210000000  0.5019260000000 1.0
C      1  0.4982460000000  0.4873590000000  0.5588860000000 1.0
C      1  0.5193220000000  0.4552760000000  0.5202890000000 1.0
C      1  0.5282430000000  0.4781470000000  0.4783360000000 1.0
C      1  0.5086960000000  0.4998180000000  0.4341120000000 1.0
C      1  0.4890610000000  0.5215070000000  0.3899190000000 1.0
C      1  0.4571130000000  0.5680240000000  0.5817040000000 1.0
C      1  0.4669140000000  0.5450430000000  0.5891260000000 1.0
C      1  0.5123910000000  0.4288800000000  0.5183300000000 1.0
C      1  0.4881680000000  0.5033240000000  0.5774640000000 1.0
C      1  0.5185040000000  0.4889820000000  0.4562150000000 1.0
C      1  0.4695730000000  0.5430330000000  0.3460880000000 1.0
END
