TITL C-247195-3186-464 3.64734631290213e-07 125000 -115.219544082611 0 0 20 (C1) n - 1
REM
REM in /home/nfs/bkarasulu/CARBON/AIRSS/Generating-Clusters/LCBOP/Only-C1/SD-CG/FIRE-HFTN
REM
REM
REM
REM
REM
REM ./C.cell (11c1c37f851c82e70ff6c80c92926a4b)
REM AIRSS Version 0.9.1 bugfix July 2018 build 013d7b7c2542+ Fri, 06 Jul 2018 19:26:36 +0100
REM compiler GCC version 9.2.1 20190827 (Red Hat 9.2.1-1)
REM options -cpp -mtune=generic -march=x86-64 -g -O0 -fpre-include=/usr/include/finclude/math-vector-fortran.h
REM seed -145953278 -671491564 2022212020 -1314668656 -315125003 -1930869044 657650951 1453103396 1196091428 640517423 183778854 -228880342 1072217615 915705682 1494547443 -1266586836 1705642736 -1108433893 1953206545 19675286 -1135317890 7471010 1838978046 305507375 -543415913 685464438 1375420249 -654262204 10335259 -697157134 -973364002 -1615338951 1623196140
REM
CELL 1.54180   50.00000   50.00000   50.00000   90.00000   90.00000   90.00000
LATT -1
SFAC C  
C      1  0.4664690000000  0.4697510000000  0.5452750000000 1.0
C      1  0.4847770000000  0.5048160000000  0.5180010000000 1.0
C      1  0.5330450000000  0.4505670000000  0.4431080000000 1.0
C      1  0.4695410000000  0.5238590000000  0.5333420000000 1.0
C      1  0.5471600000000  0.4698190000000  0.4314390000000 1.0
C      1  0.5163300000000  0.4420410000000  0.4619070000000 1.0
C      1  0.4491630000000  0.5340820000000  0.5774060000000 1.0
C      1  0.5549790000000  0.4951730000000  0.4300360000000 1.0
C      1  0.4561710000000  0.4879410000000  0.5623360000000 1.0
C      1  0.5545080000000  0.5214890000000  0.4396450000000 1.0
C      1  0.4803740000000  0.4766420000000  0.5216980000000 1.0
C      1  0.4888520000000  0.4575010000000  0.5033830000000 1.0
C      1  0.4656410000000  0.5492690000000  0.5238180000000 1.0
C      1  0.4410490000000  0.5513500000000  0.5951590000000 1.0
C      1  0.5214630000000  0.5229400000000  0.4820640000000 1.0
C      1  0.4578790000000  0.5158290000000  0.5583230000000 1.0
C      1  0.5008320000000  0.4451050000000  0.4832370000000 1.0
C      1  0.5383830000000  0.5267010000000  0.4619780000000 1.0
C      1  0.5691380000000  0.5412350000000  0.4277580000000 1.0
C      1  0.5042450000000  0.5138900000000  0.5000860000000 1.0
END
