TITL C-247198-3593-78 -2.29833755117371e-06 125000 -977.310058765882 0 0 163 (C1) n - 1
REM
REM in /home/nfs/bkarasulu/CARBON/AIRSS/Generating-Clusters/LCBOP/Only-C1/SD-CG/FIRE-HFTN
REM
REM
REM
REM
REM
REM ./C.cell (11c1c37f851c82e70ff6c80c92926a4b)
REM AIRSS Version 0.9.1 bugfix July 2018 build 013d7b7c2542+ Fri, 06 Jul 2018 19:26:36 +0100
REM compiler GCC version 9.2.1 20190827 (Red Hat 9.2.1-1)
REM options -cpp -mtune=generic -march=x86-64 -g -O0 -fpre-include=/usr/include/finclude/math-vector-fortran.h
REM seed 1156314347 -1006301117 -903974195 1395820938 328496028 979649119 653334912 31856716 414292866 356325633 -999779975 -928510563 1382262949 2138292867 -369945545 -546158930 -1492931265 1207982869 1162844888 607474246 1735860705 1181092382 1382254293 1988635744 -1549903688 513863033 -282175899 1688228391 465369352 -791183651 -771926599 1362787445 -1031651142
REM
CELL 1.54180   50.00000   50.00000   50.00000   90.00000   90.00000   90.00000
LATT -1
SFAC C  
C      1  0.4635450000000  0.5498160000000  0.6030330000000 1.0
C      1  0.5560070000000  0.5454440000000  0.3557270000000 1.0
C      1  0.6197760000000  0.4818870000000  0.5050700000000 1.0
C      1  0.5261190000000  0.5056330000000  0.4263710000000 1.0
C      1  0.5915850000000  0.4456060000000  0.5331980000000 1.0
C      1  0.4673550000000  0.3994530000000  0.4470850000000 1.0
C      1  0.5925050000000  0.5371940000000  0.4676950000000 1.0
C      1  0.3892090000000  0.5230040000000  0.4728960000000 1.0
C      1  0.6171340000000  0.4887000000000  0.5316160000000 1.0
C      1  0.4467350000000  0.3904500000000  0.4313920000000 1.0
C      1  0.5078070000000  0.6034130000000  0.4859800000000 1.0
C      1  0.5314280000000  0.4640820000000  0.4988760000000 1.0
C      1  0.5195200000000  0.4524000000000  0.4497880000000 1.0
C      1  0.4934400000000  0.5106490000000  0.6216380000000 1.0
C      1  0.5525020000000  0.4171990000000  0.4531000000000 1.0
C      1  0.4366720000000  0.5411350000000  0.6095950000000 1.0
C      1  0.3864620000000  0.4701210000000  0.5260450000000 1.0
C      1  0.4111250000000  0.4992780000000  0.6013460000000 1.0
C      1  0.4460640000000  0.5588210000000  0.4180230000000 1.0
C      1  0.5357620000000  0.6078010000000  0.4904110000000 1.0
C      1  0.5934430000000  0.4603240000000  0.4630660000000 1.0
C      1  0.5478300000000  0.5992350000000  0.5145460000000 1.0
C      1  0.3997380000000  0.4343640000000  0.4977650000000 1.0
C      1  0.4106430000000  0.5802440000000  0.4431780000000 1.0
C      1  0.4457530000000  0.4907760000000  0.4260810000000 1.0
C      1  0.4557220000000  0.4768330000000  0.4969040000000 1.0
C      1  0.5091950000000  0.4026880000000  0.5725730000000 1.0
C      1  0.5699380000000  0.5652310000000  0.4137300000000 1.0
C      1  0.3908500000000  0.5554310000000  0.5556170000000 1.0
C      1  0.5581860000000  0.4616440000000  0.5591930000000 1.0
C      1  0.5074770000000  0.4978210000000  0.5689720000000 1.0
C      1  0.4283460000000  0.5152990000000  0.6174900000000 1.0
C      1  0.4048130000000  0.5123110000000  0.5765580000000 1.0
C      1  0.5083880000000  0.4351680000000  0.5402040000000 1.0
C      1  0.4824830000000  0.4220680000000  0.4386700000000 1.0
C      1  0.5519930000000  0.5036400000000  0.3791280000000 1.0
C      1  0.4732620000000  0.3861810000000  0.4719710000000 1.0
C      1  0.4896190000000  0.4806850000000  0.4027390000000 1.0
C      1  0.4892120000000  0.4810180000000  0.5788150000000 1.0
C      1  0.4189730000000  0.5671900000000  0.4204940000000 1.0
C      1  0.6010130000000  0.4896050000000  0.5540000000000 1.0
C      1  0.4044780000000  0.5127190000000  0.4515450000000 1.0
C      1  0.4588190000000  0.3630480000000  0.4801180000000 1.0
C      1  0.5453210000000  0.4465660000000  0.4355830000000 1.0
C      1  0.5079860000000  0.4875160000000  0.6238230000000 1.0
C      1  0.4020150000000  0.4746410000000  0.6083680000000 1.0
C      1  0.4978210000000  0.6139260000000  0.4616670000000 1.0
C      1  0.6417570000000  0.5568450000000  0.5467920000000 1.0
C      1  0.5553020000000  0.5150160000000  0.5278880000000 1.0
C      1  0.4329040000000  0.5697570000000  0.5700000000000 1.0
C      1  0.5118430000000  0.5486310000000  0.5994690000000 1.0
C      1  0.5598070000000  0.4609350000000  0.4972100000000 1.0
C      1  0.4706950000000  0.5711600000000  0.4863770000000 1.0
C      1  0.4919470000000  0.5843440000000  0.5008660000000 1.0
C      1  0.4671670000000  0.4349100000000  0.5799780000000 1.0
C      1  0.4497170000000  0.5131360000000  0.3629290000000 1.0
C      1  0.5722110000000  0.5575600000000  0.5066880000000 1.0
C      1  0.5565910000000  0.6166480000000  0.5336080000000 1.0
C      1  0.5002350000000  0.4265330000000  0.4838600000000 1.0
C      1  0.3892240000000  0.5503690000000  0.4801540000000 1.0
C      1  0.5737760000000  0.5841430000000  0.4323580000000 1.0
C      1  0.5053790000000  0.4045640000000  0.5435450000000 1.0
C      1  0.5773380000000  0.4285410000000  0.5850230000000 1.0
C      1  0.5777620000000  0.4670250000000  0.5177490000000 1.0
C      1  0.4239820000000  0.5805770000000  0.4689860000000 1.0
C      1  0.6010390000000  0.5038520000000  0.4322290000000 1.0
C      1  0.5809810000000  0.4418180000000  0.5599360000000 1.0
C      1  0.5081990000000  0.5133660000000  0.5118190000000 1.0
C      1  0.3963160000000  0.5397580000000  0.5791700000000 1.0
C      1  0.5192100000000  0.5551140000000  0.4444340000000 1.0
C      1  0.4606460000000  0.5696110000000  0.4401120000000 1.0
C      1  0.5722340000000  0.4950800000000  0.5225410000000 1.0
C      1  0.5226880000000  0.3850620000000  0.4800860000000 1.0
C      1  0.4882120000000  0.3971430000000  0.5202010000000 1.0
C      1  0.5167510000000  0.5001930000000  0.4516020000000 1.0
C      1  0.5766840000000  0.4898280000000  0.4299440000000 1.0
C      1  0.5267930000000  0.5572020000000  0.5263640000000 1.0
C      1  0.4730250000000  0.5426170000000  0.4881600000000 1.0
C      1  0.6106490000000  0.4705500000000  0.4818160000000 1.0
C      1  0.5560780000000  0.6449390000000  0.4670050000000 1.0
C      1  0.4407340000000  0.4598380000000  0.4829370000000 1.0
C      1  0.4974470000000  0.6133370000000  0.4349350000000 1.0
C      1  0.5524610000000  0.3989860000000  0.5524280000000 1.0
C      1  0.5682560000000  0.5049870000000  0.5866290000000 1.0
C      1  0.5226480000000  0.4649890000000  0.6187490000000 1.0
C      1  0.4866390000000  0.4310020000000  0.4122650000000 1.0
C      1  0.4954940000000  0.3962450000000  0.4896620000000 1.0
C      1  0.4526530000000  0.5785130000000  0.4661270000000 1.0
C      1  0.5454710000000  0.4033710000000  0.4777150000000 1.0
C      1  0.3936320000000  0.4955020000000  0.5167960000000 1.0
C      1  0.6107440000000  0.4289820000000  0.5229570000000 1.0
C      1  0.5437950000000  0.4182470000000  0.5033110000000 1.0
C      1  0.4156870000000  0.5672260000000  0.5443870000000 1.0
C      1  0.4498220000000  0.5182850000000  0.5585550000000 1.0
C      1  0.5375540000000  0.4033800000000  0.5776650000000 1.0
C      1  0.5207690000000  0.5212670000000  0.5609850000000 1.0
C      1  0.4662320000000  0.4164790000000  0.5246710000000 1.0
C      1  0.4998040000000  0.5337950000000  0.4884290000000 1.0
C      1  0.5447330000000  0.5297380000000  0.4761500000000 1.0
C      1  0.4610550000000  0.5451070000000  0.3979550000000 1.0
C      1  0.4694720000000  0.4633290000000  0.5405310000000 1.0
C      1  0.4194430000000  0.5596090000000  0.5165810000000 1.0
C      1  0.4882730000000  0.5367940000000  0.6101500000000 1.0
C      1  0.6197010000000  0.5589720000000  0.5330610000000 1.0
C      1  0.5542750000000  0.5057560000000  0.4256060000000 1.0
C      1  0.4713320000000  0.5274370000000  0.5429020000000 1.0
C      1  0.5743550000000  0.4862630000000  0.5666950000000 1.0
C      1  0.4586920000000  0.5179200000000  0.3890190000000 1.0
C      1  0.5363160000000  0.4819220000000  0.3896620000000 1.0
C      1  0.5003080000000  0.5688770000000  0.5245350000000 1.0
C      1  0.5970040000000  0.5597470000000  0.5194240000000 1.0
C      1  0.4206990000000  0.4422750000000  0.4832560000000 1.0
C      1  0.4598120000000  0.5710980000000  0.5820110000000 1.0
C      1  0.3682090000000  0.4258290000000  0.5336280000000 1.0
C      1  0.4280230000000  0.5317810000000  0.5127720000000 1.0
C      1  0.5505270000000  0.4229420000000  0.5948630000000 1.0
C      1  0.5497930000000  0.5711450000000  0.5175400000000 1.0
C      1  0.4416920000000  0.5084960000000  0.3385750000000 1.0
C      1  0.4695910000000  0.3382440000000  0.4757720000000 1.0
C      1  0.4496270000000  0.5286780000000  0.4949100000000 1.0
C      1  0.5280080000000  0.5271340000000  0.5321180000000 1.0
C      1  0.5558960000000  0.5281080000000  0.5919270000000 1.0
C      1  0.5526990000000  0.6178650000000  0.4696280000000 1.0
C      1  0.5227230000000  0.4905820000000  0.4973580000000 1.0
C      1  0.5334720000000  0.5032970000000  0.4740990000000 1.0
C      1  0.5734560000000  0.4643110000000  0.4424750000000 1.0
C      1  0.5366470000000  0.4437390000000  0.5443520000000 1.0
C      1  0.3817840000000  0.5051310000000  0.4932280000000 1.0
C      1  0.5521190000000  0.5327150000000  0.3799570000000 1.0
C      1  0.3842030000000  0.4428560000000  0.5196000000000 1.0
C      1  0.4343630000000  0.3658890000000  0.4921190000000 1.0
C      1  0.5041050000000  0.5732430000000  0.4025450000000 1.0
C      1  0.4147590000000  0.5109770000000  0.5276620000000 1.0
C      1  0.5309860000000  0.5369630000000  0.5826470000000 1.0
C      1  0.5660750000000  0.6003730000000  0.4520890000000 1.0
C      1  0.4240250000000  0.4992280000000  0.4392590000000 1.0
C      1  0.5234500000000  0.5573800000000  0.4162070000000 1.0
C      1  0.4446470000000  0.4123160000000  0.5424120000000 1.0
C      1  0.4836750000000  0.5596330000000  0.3890260000000 1.0
C      1  0.4891900000000  0.4175090000000  0.5870040000000 1.0
C      1  0.5207270000000  0.5452160000000  0.4708240000000 1.0
C      1  0.4817720000000  0.4408870000000  0.5298930000000 1.0
C      1  0.4092040000000  0.5682820000000  0.4904960000000 1.0
C      1  0.4231540000000  0.5092650000000  0.5547380000000 1.0
C      1  0.5220170000000  0.4376740000000  0.4978190000000 1.0
C      1  0.4768690000000  0.5921290000000  0.5784620000000 1.0
C      1  0.5012610000000  0.4530580000000  0.4027410000000 1.0
C      1  0.6063320000000  0.5242080000000  0.4489360000000 1.0
C      1  0.5362400000000  0.4429690000000  0.6100510000000 1.0
C      1  0.5502730000000  0.4189690000000  0.5314430000000 1.0
C      1  0.4977000000000  0.4362400000000  0.4578170000000 1.0
C      1  0.5136170000000  0.4964430000000  0.4028160000000 1.0
C      1  0.4674410000000  0.4838030000000  0.5214230000000 1.0
C      1  0.4648430000000  0.4950340000000  0.4057310000000 1.0
C      1  0.5695250000000  0.5413270000000  0.4832490000000 1.0
C      1  0.4179530000000  0.5547650000000  0.5918740000000 1.0
C      1  0.4714790000000  0.4618320000000  0.5692050000000 1.0
C      1  0.4449040000000  0.4211600000000  0.5682010000000 1.0
C      1  0.5005270000000  0.5994810000000  0.4122300000000 1.0
C      1  0.4806320000000  0.5539950000000  0.5390900000000 1.0
C      1  0.4822420000000  0.5072910000000  0.5256320000000 1.0
C      1  0.5327050000000  0.4550240000000  0.4030850000000 1.0
C      1  0.5483130000000  0.5502200000000  0.4031490000000 1.0
END
