TITL C-247195-3186-523 1.87090209912767e-07 125000 -502.804865363565 0 0 82 (C1) n - 1
REM
REM in /home/nfs/bkarasulu/CARBON/AIRSS/Generating-Clusters/LCBOP/Only-C1/SD-CG/FIRE-HFTN
REM
REM
REM
REM
REM
REM ./C.cell (11c1c37f851c82e70ff6c80c92926a4b)
REM AIRSS Version 0.9.1 bugfix July 2018 build 013d7b7c2542+ Fri, 06 Jul 2018 19:26:36 +0100
REM compiler GCC version 9.2.1 20190827 (Red Hat 9.2.1-1)
REM options -cpp -mtune=generic -march=x86-64 -g -O0 -fpre-include=/usr/include/finclude/math-vector-fortran.h
REM seed -1008298373 2117461159 -398642595 -1985233535 -939022840 -826981810 -1086304259 -383238996 -1058841728 -735687141 529282675 -432044173 1694556524 1466464259 -2141052528 504748031 582147447 478119465 -1138918854 -1089036323 198493833 -731872458 488521633 1513571947 189041172 174747794 -930898285 -1366190764 -1366056208 2080616997 162332698 1665894638 -334267113
REM
CELL 1.54180   50.00000   50.00000   50.00000   90.00000   90.00000   90.00000
LATT -1
SFAC C  
C      1  0.4455250000000  0.5030250000000  0.5626740000000 1.0
C      1  0.5528860000000  0.5477370000000  0.4382010000000 1.0
C      1  0.4040890000000  0.4587270000000  0.5555000000000 1.0
C      1  0.5777150000000  0.5556970000000  0.5505620000000 1.0
C      1  0.5691610000000  0.5252610000000  0.4316010000000 1.0
C      1  0.4795460000000  0.4941210000000  0.5157890000000 1.0
C      1  0.5753010000000  0.4572800000000  0.4799760000000 1.0
C      1  0.5352850000000  0.5080610000000  0.5126740000000 1.0
C      1  0.5506720000000  0.4256320000000  0.4469570000000 1.0
C      1  0.4844540000000  0.4623260000000  0.4726860000000 1.0
C      1  0.5265480000000  0.5632010000000  0.4942570000000 1.0
C      1  0.5066660000000  0.5103420000000  0.4172740000000 1.0
C      1  0.4711670000000  0.4691650000000  0.4145420000000 1.0
C      1  0.4899480000000  0.3895570000000  0.4811880000000 1.0
C      1  0.5077410000000  0.5368390000000  0.4286570000000 1.0
C      1  0.4866180000000  0.5416610000000  0.5389330000000 1.0
C      1  0.5227220000000  0.5402760000000  0.4776760000000 1.0
C      1  0.4596970000000  0.5246260000000  0.5749630000000 1.0
C      1  0.4938840000000  0.4170250000000  0.4886430000000 1.0
C      1  0.5592610000000  0.4955260000000  0.5057600000000 1.0
C      1  0.5702920000000  0.5623850000000  0.5255380000000 1.0
C      1  0.4034610000000  0.4847200000000  0.5478280000000 1.0
C      1  0.5315070000000  0.5007370000000  0.4078130000000 1.0
C      1  0.4649740000000  0.5459970000000  0.5578520000000 1.0
C      1  0.4787190000000  0.5665960000000  0.4013320000000 1.0
C      1  0.5672060000000  0.4375000000000  0.4641250000000 1.0
C      1  0.4739790000000  0.4363920000000  0.5527460000000 1.0
C      1  0.5892050000000  0.5167080000000  0.4490230000000 1.0
C      1  0.5571360000000  0.5072250000000  0.4132660000000 1.0
C      1  0.5192930000000  0.3976760000000  0.5252990000000 1.0
C      1  0.4416470000000  0.4937670000000  0.4443520000000 1.0
C      1  0.4771010000000  0.5223480000000  0.5973140000000 1.0
C      1  0.4233830000000  0.5005420000000  0.4644720000000 1.0
C      1  0.4639960000000  0.4725150000000  0.5188430000000 1.0
C      1  0.4241860000000  0.5038010000000  0.5419510000000 1.0
C      1  0.4920780000000  0.5038700000000  0.4925710000000 1.0
C      1  0.5687350000000  0.5493020000000  0.5753930000000 1.0
C      1  0.4206370000000  0.4679440000000  0.4988830000000 1.0
C      1  0.4518230000000  0.4496300000000  0.5641980000000 1.0
C      1  0.5918930000000  0.5015170000000  0.4707900000000 1.0
C      1  0.5248130000000  0.5553820000000  0.5619260000000 1.0
C      1  0.5262850000000  0.4231540000000  0.4363980000000 1.0
C      1  0.4345410000000  0.5394790000000  0.5062360000000 1.0
C      1  0.5036990000000  0.5742060000000  0.5081490000000 1.0
C      1  0.4847970000000  0.4449370000000  0.4199500000000 1.0
C      1  0.5377520000000  0.4828760000000  0.5786420000000 1.0
C      1  0.4830040000000  0.4901680000000  0.4701700000000 1.0
C      1  0.5039450000000  0.4202890000000  0.5162840000000 1.0
C      1  0.4921320000000  0.4362030000000  0.4676500000000 1.0
C      1  0.5270690000000  0.5357740000000  0.6043940000000 1.0
C      1  0.4470540000000  0.5640650000000  0.5446260000000 1.0
C      1  0.4245850000000  0.4420200000000  0.5617090000000 1.0
C      1  0.4545840000000  0.4771390000000  0.5703240000000 1.0
C      1  0.5140410000000  0.4613800000000  0.5424710000000 1.0
C      1  0.5268530000000  0.5760230000000  0.4090480000000 1.0
C      1  0.4843920000000  0.4943980000000  0.4228060000000 1.0
C      1  0.4972760000000  0.4393300000000  0.5366170000000 1.0
C      1  0.4999030000000  0.4318350000000  0.4402300000000 1.0
C      1  0.5033400000000  0.5601830000000  0.4123810000000 1.0
C      1  0.4550940000000  0.5712820000000  0.3913790000000 1.0
C      1  0.5271440000000  0.5408540000000  0.4498830000000 1.0
C      1  0.5248830000000  0.4849010000000  0.5539320000000 1.0
C      1  0.4514320000000  0.5599640000000  0.5158310000000 1.0
C      1  0.4432370000000  0.4738420000000  0.4230360000000 1.0
C      1  0.4699870000000  0.5004080000000  0.4475960000000 1.0
C      1  0.5513260000000  0.4770810000000  0.6001270000000 1.0
C      1  0.5251750000000  0.5096390000000  0.5394410000000 1.0
C      1  0.4811690000000  0.5574800000000  0.5144600000000 1.0
C      1  0.5123880000000  0.5341890000000  0.5473080000000 1.0
C      1  0.5171010000000  0.5166580000000  0.4924150000000 1.0
C      1  0.5202300000000  0.5820050000000  0.5535040000000 1.0
C      1  0.5506540000000  0.5704440000000  0.4211900000000 1.0
C      1  0.5022330000000  0.3683110000000  0.4929480000000 1.0
C      1  0.5416460000000  0.5476880000000  0.5833220000000 1.0
C      1  0.4429610000000  0.4581670000000  0.5103290000000 1.0
C      1  0.5770390000000  0.4842880000000  0.4872350000000 1.0
C      1  0.4246570000000  0.5139060000000  0.5138360000000 1.0
C      1  0.5523870000000  0.5665560000000  0.5058980000000 1.0
C      1  0.4188530000000  0.4953840000000  0.4919780000000 1.0
C      1  0.5108240000000  0.5914440000000  0.5298550000000 1.0
C      1  0.5176900000000  0.3725550000000  0.5149490000000 1.0
C      1  0.5016850000000  0.5268550000000  0.6074350000000 1.0
END
