TITL C-247199-3331-382 5.0986071951044e-05 125000 -405.349829814044 0 0 68 (C1) n - 1
REM
REM in /home/nfs/bkarasulu/CARBON/AIRSS/Generating-Clusters/LCBOP/Only-C1/SD-CG/FIRE-HFTN
REM
REM
REM
REM
REM
REM ./C.cell (11c1c37f851c82e70ff6c80c92926a4b)
REM AIRSS Version 0.9.1 bugfix July 2018 build 013d7b7c2542+ Fri, 06 Jul 2018 19:26:36 +0100
REM compiler GCC version 9.2.1 20190827 (Red Hat 9.2.1-1)
REM options -cpp -mtune=generic -march=x86-64 -g -O0 -fpre-include=/usr/include/finclude/math-vector-fortran.h
REM seed -1419660723 -834136102 -1738134983 -600228184 -75158852 -992605003 590984107 730192102 -1023179752 429787835 2118314973 841948667 1585003440 -398625014 1459642711 -1316686182 -382685414 -1496630524 -328756604 -1277330339 -1945747284 460651675 1159760325 1357415678 -2260186 1240791664 -1950706135 -1780151996 -190302645 1742979571 1981465410 541231495 1418042132
REM
CELL 1.54180   50.00000   50.00000   50.00000   90.00000   90.00000   90.00000
LATT -1
SFAC C  
C      1  0.4777260000000  0.4771760000000  0.4203330000000 1.0
C      1  0.4333430000000  0.4661350000000  0.5754240000000 1.0
C      1  0.4537550000000  0.5903900000000  0.5671250000000 1.0
C      1  0.4659660000000  0.5243880000000  0.4362920000000 1.0
C      1  0.5470260000000  0.4558820000000  0.4786030000000 1.0
C      1  0.5589570000000  0.5479640000000  0.5491810000000 1.0
C      1  0.5406510000000  0.5778810000000  0.5046010000000 1.0
C      1  0.5571500000000  0.5135780000000  0.4753740000000 1.0
C      1  0.4836110000000  0.4713700000000  0.5532830000000 1.0
C      1  0.5015710000000  0.4934740000000  0.5534320000000 1.0
C      1  0.5706740000000  0.5426190000000  0.5240290000000 1.0
C      1  0.4901100000000  0.5479040000000  0.4033250000000 1.0
C      1  0.5546140000000  0.5416230000000  0.4766140000000 1.0
C      1  0.4510570000000  0.5673670000000  0.5552160000000 1.0
C      1  0.5006330000000  0.4798640000000  0.4839880000000 1.0
C      1  0.5506850000000  0.4545000000000  0.4503610000000 1.0
C      1  0.4919630000000  0.5661040000000  0.4496770000000 1.0
C      1  0.4291640000000  0.4556450000000  0.6014850000000 1.0
C      1  0.5342070000000  0.4370550000000  0.4353200000000 1.0
C      1  0.4248420000000  0.5309970000000  0.5358580000000 1.0
C      1  0.4590080000000  0.4724980000000  0.5665960000000 1.0
C      1  0.4747650000000  0.5044850000000  0.4167250000000 1.0
C      1  0.5279610000000  0.4909880000000  0.5440150000000 1.0
C      1  0.5199410000000  0.5844780000000  0.4880660000000 1.0
C      1  0.5157370000000  0.5707100000000  0.4635750000000 1.0
C      1  0.4922460000000  0.4234140000000  0.4912900000000 1.0
C      1  0.4256930000000  0.5142090000000  0.4710040000000 1.0
C      1  0.4871010000000  0.5202300000000  0.3958740000000 1.0
C      1  0.4821480000000  0.4969010000000  0.4930590000000 1.0
C      1  0.4801180000000  0.5492830000000  0.4307720000000 1.0
C      1  0.4900910000000  0.4323280000000  0.5163170000000 1.0
C      1  0.6003400000000  0.4950380000000  0.5180060000000 1.0
C      1  0.5884580000000  0.5207200000000  0.5207860000000 1.0
C      1  0.4140590000000  0.5088130000000  0.5224560000000 1.0
C      1  0.4973640000000  0.4244650000000  0.4651420000000 1.0
C      1  0.5106830000000  0.5396570000000  0.5647280000000 1.0
C      1  0.4087060000000  0.4857700000000  0.5372560000000 1.0
C      1  0.5415610000000  0.5003770000000  0.5229710000000 1.0
C      1  0.3865590000000  0.4520110000000  0.5652220000000 1.0
C      1  0.4142780000000  0.5090480000000  0.4944640000000 1.0
C      1  0.5635850000000  0.4777970000000  0.4409210000000 1.0
C      1  0.5954620000000  0.5141700000000  0.4449390000000 1.0
C      1  0.5282320000000  0.4761670000000  0.4854600000000 1.0
C      1  0.5359850000000  0.5482080000000  0.5629110000000 1.0
C      1  0.4724990000000  0.5277970000000  0.5354960000000 1.0
C      1  0.6177270000000  0.5261760000000  0.4386770000000 1.0
C      1  0.4890580000000  0.4542560000000  0.4276330000000 1.0
C      1  0.5699030000000  0.4552570000000  0.4956870000000 1.0
C      1  0.4998270000000  0.5681530000000  0.3881780000000 1.0
C      1  0.5443430000000  0.4207530000000  0.4159000000000 1.0
C      1  0.4098480000000  0.4677380000000  0.5585930000000 1.0
C      1  0.3854760000000  0.4417760000000  0.5916580000000 1.0
C      1  0.5580740000000  0.5553680000000  0.5016940000000 1.0
C      1  0.6525410000000  0.4901200000000  0.5312950000000 1.0
C      1  0.4743450000000  0.5159680000000  0.5099790000000 1.0
C      1  0.5868960000000  0.4718190000000  0.5085720000000 1.0
C      1  0.5424040000000  0.4989620000000  0.4950340000000 1.0
C      1  0.6273620000000  0.4924400000000  0.5249830000000 1.0
C      1  0.5382950000000  0.5544750000000  0.4573160000000 1.0
C      1  0.4494150000000  0.5426040000000  0.5426360000000 1.0
C      1  0.4442340000000  0.5209550000000  0.4532180000000 1.0
C      1  0.3478290000000  0.4424050000000  0.5290070000000 1.0
C      1  0.4060810000000  0.4436950000000  0.6091550000000 1.0
C      1  0.5718230000000  0.5018980000000  0.4534750000000 1.0
C      1  0.4888770000000  0.4489450000000  0.5370910000000 1.0
C      1  0.5062880000000  0.4371480000000  0.4416800000000 1.0
C      1  0.3664380000000  0.4468490000000  0.5467030000000 1.0
C      1  0.4926340000000  0.5207630000000  0.5542610000000 1.0
END
