TITL C-247200-3482-215 0.0542498112767986 125000 -644.785651138148 0 0 106 (C1) n - 1
REM
REM in /home/nfs/bkarasulu/CARBON/AIRSS/Generating-Clusters/LCBOP/Only-C1/SD-CG/FIRE-HFTN
REM
REM
REM
REM
REM
REM ./C.cell (11c1c37f851c82e70ff6c80c92926a4b)
REM AIRSS Version 0.9.1 bugfix July 2018 build 013d7b7c2542+ Fri, 06 Jul 2018 19:26:36 +0100
REM compiler GCC version 9.2.1 20190827 (Red Hat 9.2.1-1)
REM options -cpp -mtune=generic -march=x86-64 -g -O0 -fpre-include=/usr/include/finclude/math-vector-fortran.h
REM seed 2140665108 1163333367 -1817986250 -453702607 -1173467057 -469494145 -195851371 -806187564 -1306641873 -383588041 -37393684 -1943704177 -804968261 -44109381 882425951 -1346910561 1181485807 -1840817491 241341942 -753074822 1458672690 1656075873 500713647 -2084811705 2017803924 166020612 260848440 1506188980 351723411 -882242381 -749714225 1478022476 670303032
REM
CELL 1.54180   50.00000   50.00000   50.00000   90.00000   90.00000   90.00000
LATT -1
SFAC C  
C      1  0.4809480000000  0.4432630000000  0.4666040000000 1.0
C      1  0.5365220000000  0.5780460000000  0.4807120000000 1.0
C      1  0.5341870000000  0.5324810000000  0.4930230000000 1.0
C      1  0.4171840000000  0.4914740000000  0.5946220000000 1.0
C      1  0.4941390000000  0.4119630000000  0.4955150000000 1.0
C      1  0.4882890000000  0.5460310000000  0.5066840000000 1.0
C      1  0.5126280000000  0.5788000000000  0.4368620000000 1.0
C      1  0.5437650000000  0.4787790000000  0.5447080000000 1.0
C      1  0.4271110000000  0.5047400000000  0.5464220000000 1.0
C      1  0.4869680000000  0.5878990000000  0.4428960000000 1.0
C      1  0.5151410000000  0.4101680000000  0.5155790000000 1.0
C      1  0.6033620000000  0.5172020000000  0.5054550000000 1.0
C      1  0.5110860000000  0.4164990000000  0.4423460000000 1.0
C      1  0.5377930000000  0.5780300000000  0.4522140000000 1.0
C      1  0.4613250000000  0.4837890000000  0.5168980000000 1.0
C      1  0.4670740000000  0.5313010000000  0.5489540000000 1.0
C      1  0.4134610000000  0.4984310000000  0.4753590000000 1.0
C      1  0.4211130000000  0.4588200000000  0.5275400000000 1.0
C      1  0.5045640000000  0.4668130000000  0.5025490000000 1.0
C      1  0.4623530000000  0.5777930000000  0.4454580000000 1.0
C      1  0.5119130000000  0.4671900000000  0.6195300000000 1.0
C      1  0.4484800000000  0.5534700000000  0.4487840000000 1.0
C      1  0.6000920000000  0.4907170000000  0.5088700000000 1.0
C      1  0.5607670000000  0.4560240000000  0.6011140000000 1.0
C      1  0.4336860000000  0.4527730000000  0.4660450000000 1.0
C      1  0.4336840000000  0.5496460000000  0.4738980000000 1.0
C      1  0.4765430000000  0.5313210000000  0.4101810000000 1.0
C      1  0.4392930000000  0.5079340000000  0.4283750000000 1.0
C      1  0.5484480000000  0.5570900000000  0.4965810000000 1.0
C      1  0.5354720000000  0.4298920000000  0.5237780000000 1.0
C      1  0.5114430000000  0.5870250000000  0.4904320000000 1.0
C      1  0.5864600000000  0.4424140000000  0.5575080000000 1.0
C      1  0.5702720000000  0.5204840000000  0.5515260000000 1.0
C      1  0.4901200000000  0.5771720000000  0.5457420000000 1.0
C      1  0.4882330000000  0.5127020000000  0.5540810000000 1.0
C      1  0.4795340000000  0.4906930000000  0.4711150000000 1.0
C      1  0.5029540000000  0.4346170000000  0.4216860000000 1.0
C      1  0.5164450000000  0.5726270000000  0.5569280000000 1.0
C      1  0.4669440000000  0.5846510000000  0.3743950000000 1.0
C      1  0.5472720000000  0.4194890000000  0.5786230000000 1.0
C      1  0.5104150000000  0.4462340000000  0.5616630000000 1.0
C      1  0.4378710000000  0.4799690000000  0.6071150000000 1.0
C      1  0.4914940000000  0.4664500000000  0.4771200000000 1.0
C      1  0.4712820000000  0.5951670000000  0.5315920000000 1.0
C      1  0.5307570000000  0.4518360000000  0.5431780000000 1.0
C      1  0.5472270000000  0.3773570000000  0.4346300000000 1.0
C      1  0.5579330000000  0.5663540000000  0.4347860000000 1.0
C      1  0.5056240000000  0.5098460000000  0.5308130000000 1.0
C      1  0.4828640000000  0.5044190000000  0.4018550000000 1.0
C      1  0.5121290000000  0.5280760000000  0.5099340000000 1.0
C      1  0.4183310000000  0.5250750000000  0.4754260000000 1.0
C      1  0.5851390000000  0.5649740000000  0.4392560000000 1.0
C      1  0.5303250000000  0.5236980000000  0.5718380000000 1.0
C      1  0.4617610000000  0.5839470000000  0.5051350000000 1.0
C      1  0.4154110000000  0.4702150000000  0.4802050000000 1.0
C      1  0.4858170000000  0.4573310000000  0.5527370000000 1.0
C      1  0.5811420000000  0.4714640000000  0.5164540000000 1.0
C      1  0.4934990000000  0.5059560000000  0.4524830000000 1.0
C      1  0.6360740000000  0.5600190000000  0.4512190000000 1.0
C      1  0.4549570000000  0.4363000000000  0.4773300000000 1.0
C      1  0.4925010000000  0.5524070000000  0.3996080000000 1.0
C      1  0.4988950000000  0.4208100000000  0.4674820000000 1.0
C      1  0.5634170000000  0.4268890000000  0.5181900000000 1.0
C      1  0.4733650000000  0.4788960000000  0.4103610000000 1.0
C      1  0.4124270000000  0.5007380000000  0.5699660000000 1.0
C      1  0.4479350000000  0.4809700000000  0.4239240000000 1.0
C      1  0.5929580000000  0.5419310000000  0.5079630000000 1.0
C      1  0.4311730000000  0.4334680000000  0.5345780000000 1.0
C      1  0.4640630000000  0.4179140000000  0.4993120000000 1.0
C      1  0.5153570000000  0.5620400000000  0.4130190000000 1.0
C      1  0.5687530000000  0.5543950000000  0.5165580000000 1.0
C      1  0.4049450000000  0.4604240000000  0.5044900000000 1.0
C      1  0.4367470000000  0.4823920000000  0.5315270000000 1.0
C      1  0.5487210000000  0.5030620000000  0.5604070000000 1.0
C      1  0.4855910000000  0.4717380000000  0.6173640000000 1.0
C      1  0.4389240000000  0.5647020000000  0.4999180000000 1.0
C      1  0.4301870000000  0.5499890000000  0.5236230000000 1.0
C      1  0.4651630000000  0.5006570000000  0.4934210000000 1.0
C      1  0.4395780000000  0.5297400000000  0.5417210000000 1.0
C      1  0.5225530000000  0.4345580000000  0.5847190000000 1.0
C      1  0.4536650000000  0.5327300000000  0.4287030000000 1.0
C      1  0.4893980000000  0.4556110000000  0.4116030000000 1.0
C      1  0.5539210000000  0.4804540000000  0.5173750000000 1.0
C      1  0.4960480000000  0.5545770000000  0.3515410000000 1.0
C      1  0.5192780000000  0.5125230000000  0.4498400000000 1.0
C      1  0.6109100000000  0.5626770000000  0.4449480000000 1.0
C      1  0.5162780000000  0.3859940000000  0.5291090000000 1.0
C      1  0.5296800000000  0.3963470000000  0.4378910000000 1.0
C      1  0.5829270000000  0.4452580000000  0.5290420000000 1.0
C      1  0.5607490000000  0.5471200000000  0.5433010000000 1.0
C      1  0.5371090000000  0.5194980000000  0.4684530000000 1.0
C      1  0.4678150000000  0.5280480000000  0.4958610000000 1.0
C      1  0.4675910000000  0.4626630000000  0.5734210000000 1.0
C      1  0.5319540000000  0.4747040000000  0.5005760000000 1.0
C      1  0.4850320000000  0.5640910000000  0.3747410000000 1.0
C      1  0.5038370000000  0.5156960000000  0.5772980000000 1.0
C      1  0.5318930000000  0.4539320000000  0.6052960000000 1.0
C      1  0.4484750000000  0.4166670000000  0.5226140000000 1.0
C      1  0.4633790000000  0.4707200000000  0.6001930000000 1.0
C      1  0.5358400000000  0.5511140000000  0.5593710000000 1.0
C      1  0.5706490000000  0.4373340000000  0.5805770000000 1.0
C      1  0.4872520000000  0.5734860000000  0.4945940000000 1.0
C      1  0.5435540000000  0.5563690000000  0.4117120000000 1.0
C      1  0.4846160000000  0.4677500000000  0.5249860000000 1.0
C      1  0.4808360000000  0.5521010000000  0.5357250000000 1.0
C      1  0.4369380000000  0.4598730000000  0.4387180000000 1.0
END
