TITL C-247199-3331-163 -8.75237397528069e-07 125000 -699.592787057016 0 0 117 (C1) n - 1
REM
REM in /home/nfs/bkarasulu/CARBON/AIRSS/Generating-Clusters/LCBOP/Only-C1/SD-CG/FIRE-HFTN
REM
REM
REM
REM
REM
REM ./C.cell (11c1c37f851c82e70ff6c80c92926a4b)
REM AIRSS Version 0.9.1 bugfix July 2018 build 013d7b7c2542+ Fri, 06 Jul 2018 19:26:36 +0100
REM compiler GCC version 9.2.1 20190827 (Red Hat 9.2.1-1)
REM options -cpp -mtune=generic -march=x86-64 -g -O0 -fpre-include=/usr/include/finclude/math-vector-fortran.h
REM seed -110443786 -1205905051 2140562867 869987402 -1739196367 169228537 -258358278 1351864340 -962787796 1680878243 1184807890 -1276879214 1951759219 945308448 1107514802 1021172383 854627896 -87400577 -8917461 -1526989129 -953901567 -863746193 1433062055 -964785959 -795575380 1737624273 458767888 -198121114 1096029175 -141847962 -1353530486 1231341169 -1958717923
REM
CELL 1.54180   50.00000   50.00000   50.00000   90.00000   90.00000   90.00000
LATT -1
SFAC C  
C      1  0.4796240000000  0.5341880000000  0.5656420000000 1.0
C      1  0.5322650000000  0.4993590000000  0.5109270000000 1.0
C      1  0.5196270000000  0.4019540000000  0.4934210000000 1.0
C      1  0.5832760000000  0.4744830000000  0.3921870000000 1.0
C      1  0.4283530000000  0.4516730000000  0.4391360000000 1.0
C      1  0.4392390000000  0.4019340000000  0.5520210000000 1.0
C      1  0.4607660000000  0.4426630000000  0.5456620000000 1.0
C      1  0.4898400000000  0.4863580000000  0.5329440000000 1.0
C      1  0.5023510000000  0.5611140000000  0.5248110000000 1.0
C      1  0.4218640000000  0.5110520000000  0.5387040000000 1.0
C      1  0.5612510000000  0.5482150000000  0.4586260000000 1.0
C      1  0.5379310000000  0.5108100000000  0.4009270000000 1.0
C      1  0.5082960000000  0.5771390000000  0.5766820000000 1.0
C      1  0.3829760000000  0.4377340000000  0.4957650000000 1.0
C      1  0.4058930000000  0.4881140000000  0.5438860000000 1.0
C      1  0.5160620000000  0.4962390000000  0.4667470000000 1.0
C      1  0.4441400000000  0.5766430000000  0.4462230000000 1.0
C      1  0.4478390000000  0.5054200000000  0.5288880000000 1.0
C      1  0.6066970000000  0.4605300000000  0.4825190000000 1.0
C      1  0.5447830000000  0.5157170000000  0.5807030000000 1.0
C      1  0.5789060000000  0.4906440000000  0.5535740000000 1.0
C      1  0.5829970000000  0.5323810000000  0.5147090000000 1.0
C      1  0.5120930000000  0.5575990000000  0.5975330000000 1.0
C      1  0.5015850000000  0.6117360000000  0.5199730000000 1.0
C      1  0.4484890000000  0.5208090000000  0.4147540000000 1.0
C      1  0.4856910000000  0.5878280000000  0.5609910000000 1.0
C      1  0.4278200000000  0.5556280000000  0.5205860000000 1.0
C      1  0.5657630000000  0.4277870000000  0.4374740000000 1.0
C      1  0.4830280000000  0.5021280000000  0.6036080000000 1.0
C      1  0.6101250000000  0.4765740000000  0.5075030000000 1.0
C      1  0.4678160000000  0.5626500000000  0.4380420000000 1.0
C      1  0.4393240000000  0.5697550000000  0.4970910000000 1.0
C      1  0.5190080000000  0.5580510000000  0.4126750000000 1.0
C      1  0.4348680000000  0.5993020000000  0.4330570000000 1.0
C      1  0.4646370000000  0.5834420000000  0.4999120000000 1.0
C      1  0.5527470000000  0.5748910000000  0.5183170000000 1.0
C      1  0.4458020000000  0.4288920000000  0.4855610000000 1.0
C      1  0.4682670000000  0.4323370000000  0.5720380000000 1.0
C      1  0.5318260000000  0.3897680000000  0.5161640000000 1.0
C      1  0.5607670000000  0.4623400000000  0.5061290000000 1.0
C      1  0.4206180000000  0.5173860000000  0.4561610000000 1.0
C      1  0.4855260000000  0.5773190000000  0.4798680000000 1.0
C      1  0.4485400000000  0.4800220000000  0.5145280000000 1.0
C      1  0.5749100000000  0.5132210000000  0.4951770000000 1.0
C      1  0.5494180000000  0.4082990000000  0.4479340000000 1.0
C      1  0.5308060000000  0.5361450000000  0.5919180000000 1.0
C      1  0.4912410000000  0.5186200000000  0.4362050000000 1.0
C      1  0.5946350000000  0.4658090000000  0.4560100000000 1.0
C      1  0.5946670000000  0.4760770000000  0.5332610000000 1.0
C      1  0.4975510000000  0.4822070000000  0.4839210000000 1.0
C      1  0.5402670000000  0.4847020000000  0.4118420000000 1.0
C      1  0.4354470000000  0.4362920000000  0.4601250000000 1.0
C      1  0.4545510000000  0.4069370000000  0.5744460000000 1.0
C      1  0.4152460000000  0.5435570000000  0.4601400000000 1.0
C      1  0.4710180000000  0.4787970000000  0.4724530000000 1.0
C      1  0.4691570000000  0.5352930000000  0.4280420000000 1.0
C      1  0.5517500000000  0.4920410000000  0.5652640000000 1.0
C      1  0.5062690000000  0.5225820000000  0.4604570000000 1.0
C      1  0.6019690000000  0.4322440000000  0.4871160000000 1.0
C      1  0.5316880000000  0.5780360000000  0.5608530000000 1.0
C      1  0.4417560000000  0.4235990000000  0.5334590000000 1.0
C      1  0.4463710000000  0.4841480000000  0.4865200000000 1.0
C      1  0.5214480000000  0.4532850000000  0.4442540000000 1.0
C      1  0.4281360000000  0.4728300000000  0.4223570000000 1.0
C      1  0.5307180000000  0.5673860000000  0.5348460000000 1.0
C      1  0.4060170000000  0.5139370000000  0.4974900000000 1.0
C      1  0.5290830000000  0.5361370000000  0.4006600000000 1.0
C      1  0.4125200000000  0.5309100000000  0.5193870000000 1.0
C      1  0.5338370000000  0.4467830000000  0.4675970000000 1.0
C      1  0.4891620000000  0.5086700000000  0.5771090000000 1.0
C      1  0.4882880000000  0.5367890000000  0.5377640000000 1.0
C      1  0.4920120000000  0.4897220000000  0.4286380000000 1.0
C      1  0.4236510000000  0.5005880000000  0.4785870000000 1.0
C      1  0.5129890000000  0.5377990000000  0.4834880000000 1.0
C      1  0.4738210000000  0.4235240000000  0.4897690000000 1.0
C      1  0.5714290000000  0.4337930000000  0.5467250000000 1.0
C      1  0.4999710000000  0.5600980000000  0.6219030000000 1.0
C      1  0.5389440000000  0.3991770000000  0.5405410000000 1.0
C      1  0.4008950000000  0.4643490000000  0.5319800000000 1.0
C      1  0.5420600000000  0.4916760000000  0.4601530000000 1.0
C      1  0.5486040000000  0.6003740000000  0.5066930000000 1.0
C      1  0.4675030000000  0.4655590000000  0.5310220000000 1.0
C      1  0.5320380000000  0.3997650000000  0.4674260000000 1.0
C      1  0.4756240000000  0.5134860000000  0.5272660000000 1.0
C      1  0.5760020000000  0.4235370000000  0.4859110000000 1.0
C      1  0.5026800000000  0.4888500000000  0.5597610000000 1.0
C      1  0.5760190000000  0.4551170000000  0.4357850000000 1.0
C      1  0.4724180000000  0.4757950000000  0.4442740000000 1.0
C      1  0.5167290000000  0.4741240000000  0.4248250000000 1.0
C      1  0.5286290000000  0.5255060000000  0.5030840000000 1.0
C      1  0.5083270000000  0.4840950000000  0.5101340000000 1.0
C      1  0.4291970000000  0.4305530000000  0.5092790000000 1.0
C      1  0.5662290000000  0.4715360000000  0.4137220000000 1.0
C      1  0.5545650000000  0.4427990000000  0.4867660000000 1.0
C      1  0.5580080000000  0.4904970000000  0.5037680000000 1.0
C      1  0.5749810000000  0.5578480000000  0.5184470000000 1.0
C      1  0.4998030000000  0.4220140000000  0.5015520000000 1.0
C      1  0.4853010000000  0.5878640000000  0.5294910000000 1.0
C      1  0.4264360000000  0.6207070000000  0.4208170000000 1.0
C      1  0.5721880000000  0.5261520000000  0.4697360000000 1.0
C      1  0.4546320000000  0.5486570000000  0.5668980000000 1.0
C      1  0.5019650000000  0.5600390000000  0.4947790000000 1.0
C      1  0.4765150000000  0.4972790000000  0.6283720000000 1.0
C      1  0.5769730000000  0.4537110000000  0.5282560000000 1.0
C      1  0.4354130000000  0.4971500000000  0.4130810000000 1.0
C      1  0.5078920000000  0.4382480000000  0.5245070000000 1.0
C      1  0.4908940000000  0.5737260000000  0.4513280000000 1.0
C      1  0.5255640000000  0.4460690000000  0.5467540000000 1.0
C      1  0.4838820000000  0.4431920000000  0.5913220000000 1.0
C      1  0.4040470000000  0.4442440000000  0.5119960000000 1.0
C      1  0.5171880000000  0.5693730000000  0.4388550000000 1.0
C      1  0.5281370000000  0.4739370000000  0.5595530000000 1.0
C      1  0.4389270000000  0.5596160000000  0.5471810000000 1.0
C      1  0.5417110000000  0.5659760000000  0.4530430000000 1.0
C      1  0.5451580000000  0.4249690000000  0.5507670000000 1.0
C      1  0.5262320000000  0.6155180000000  0.5094410000000 1.0
C      1  0.4305710000000  0.5654490000000  0.4690450000000 1.0
END
