TITL C-247198-3593-148 0.0265100784509052 125000 -1022.49749104137 0 0 167 (C1) n - 1
REM
REM in /home/nfs/bkarasulu/CARBON/AIRSS/Generating-Clusters/LCBOP/Only-C1/SD-CG/FIRE-HFTN
REM
REM
REM
REM
REM
REM ./C.cell (11c1c37f851c82e70ff6c80c92926a4b)
REM AIRSS Version 0.9.1 bugfix July 2018 build 013d7b7c2542+ Fri, 06 Jul 2018 19:26:36 +0100
REM compiler GCC version 9.2.1 20190827 (Red Hat 9.2.1-1)
REM options -cpp -mtune=generic -march=x86-64 -g -O0 -fpre-include=/usr/include/finclude/math-vector-fortran.h
REM seed 1777156163 295519825 -914957070 747846282 842126041 -1945723090 -64601650 1657856746 1412255153 2133045409 582981693 -1145539877 2114746038 -78008852 -704935250 -639309548 -1247981934 8291073 -1120507053 -1165337794 -1969067744 485135126 1866182986 1078834969 73277074 -1117063065 -824186021 -1573098719 -1301109376 881068686 760224727 1228615566 -1480727914
REM
CELL 1.54180   50.00000   50.00000   50.00000   90.00000   90.00000   90.00000
LATT -1
SFAC C  
C      1  0.5630100000000  0.5668490000000  0.4705050000000 1.0
C      1  0.5401790000000  0.4517790000000  0.4949860000000 1.0
C      1  0.5013370000000  0.5688800000000  0.4750270000000 1.0
C      1  0.4965730000000  0.4709250000000  0.5996270000000 1.0
C      1  0.5936650000000  0.5158560000000  0.5565230000000 1.0
C      1  0.5942600000000  0.4870260000000  0.5572750000000 1.0
C      1  0.5445100000000  0.5888120000000  0.4679780000000 1.0
C      1  0.4282670000000  0.5977560000000  0.4496580000000 1.0
C      1  0.5045840000000  0.4685900000000  0.3951850000000 1.0
C      1  0.5533940000000  0.4754120000000  0.5059640000000 1.0
C      1  0.5407110000000  0.5185540000000  0.6045400000000 1.0
C      1  0.4951270000000  0.4994790000000  0.6060790000000 1.0
C      1  0.4715160000000  0.4782620000000  0.5569750000000 1.0
C      1  0.5665570000000  0.5574910000000  0.4972570000000 1.0
C      1  0.5750480000000  0.4067530000000  0.4580720000000 1.0
C      1  0.4273090000000  0.4851090000000  0.4556620000000 1.0
C      1  0.5408920000000  0.5092890000000  0.4656120000000 1.0
C      1  0.5593460000000  0.4247240000000  0.5497340000000 1.0
C      1  0.3811690000000  0.4956590000000  0.5110690000000 1.0
C      1  0.4139050000000  0.4157510000000  0.5015270000000 1.0
C      1  0.5562130000000  0.5361770000000  0.6214200000000 1.0
C      1  0.4121300000000  0.5269810000000  0.5378980000000 1.0
C      1  0.4898360000000  0.5420680000000  0.5587170000000 1.0
C      1  0.6262320000000  0.4804140000000  0.5158620000000 1.0
C      1  0.4288860000000  0.4748710000000  0.4287470000000 1.0
C      1  0.4585560000000  0.4978320000000  0.3937450000000 1.0
C      1  0.5431530000000  0.4815880000000  0.4552640000000 1.0
C      1  0.6129450000000  0.4680490000000  0.4499310000000 1.0
C      1  0.4228250000000  0.5015220000000  0.5812240000000 1.0
C      1  0.4044690000000  0.5044230000000  0.5565540000000 1.0
C      1  0.5513050000000  0.3991360000000  0.4481670000000 1.0
C      1  0.4102260000000  0.5813300000000  0.5437740000000 1.0
C      1  0.3893500000000  0.5497170000000  0.4792740000000 1.0
C      1  0.4525910000000  0.5715040000000  0.5209450000000 1.0
C      1  0.5136570000000  0.5752280000000  0.4271200000000 1.0
C      1  0.4485240000000  0.5268270000000  0.5047030000000 1.0
C      1  0.5513390000000  0.5614650000000  0.3906820000000 1.0
C      1  0.5488140000000  0.6077620000000  0.4891350000000 1.0
C      1  0.6335260000000  0.4590410000000  0.4686770000000 1.0
C      1  0.4680640000000  0.4484810000000  0.4329430000000 1.0
C      1  0.5384040000000  0.5135320000000  0.5545190000000 1.0
C      1  0.4479070000000  0.4247070000000  0.5368310000000 1.0
C      1  0.4031490000000  0.4975450000000  0.4628390000000 1.0
C      1  0.4018450000000  0.5625860000000  0.5006350000000 1.0
C      1  0.5280510000000  0.4123790000000  0.4463180000000 1.0
C      1  0.5150790000000  0.5141370000000  0.6187810000000 1.0
C      1  0.4965900000000  0.4869170000000  0.5526620000000 1.0
C      1  0.4290910000000  0.5886550000000  0.5638010000000 1.0
C      1  0.4678870000000  0.4299490000000  0.4883330000000 1.0
C      1  0.4538010000000  0.4172930000000  0.4638010000000 1.0
C      1  0.4848580000000  0.5192750000000  0.4761370000000 1.0
C      1  0.5447550000000  0.3942650000000  0.5164690000000 1.0
C      1  0.5638800000000  0.5393900000000  0.3812540000000 1.0
C      1  0.5673330000000  0.4101080000000  0.5252270000000 1.0
C      1  0.4919950000000  0.4216650000000  0.5570990000000 1.0
C      1  0.4688190000000  0.6311470000000  0.4765720000000 1.0
C      1  0.3932230000000  0.4829980000000  0.5357530000000 1.0
C      1  0.5044400000000  0.4786950000000  0.4219010000000 1.0
C      1  0.6151400000000  0.5040050000000  0.5035240000000 1.0
C      1  0.5341310000000  0.4561990000000  0.4673880000000 1.0
C      1  0.6280280000000  0.5276960000000  0.4950650000000 1.0
C      1  0.4688020000000  0.5889890000000  0.5361570000000 1.0
C      1  0.4539320000000  0.5459660000000  0.4459540000000 1.0
C      1  0.3906250000000  0.4853260000000  0.4854920000000 1.0
C      1  0.4090430000000  0.6013980000000  0.5222620000000 1.0
C      1  0.5308090000000  0.5267050000000  0.4869580000000 1.0
C      1  0.5466560000000  0.5284770000000  0.4448940000000 1.0
C      1  0.4225100000000  0.4608080000000  0.5663170000000 1.0
C      1  0.4467380000000  0.5540690000000  0.5019970000000 1.0
C      1  0.4867470000000  0.5328120000000  0.5315390000000 1.0
C      1  0.4431040000000  0.4753330000000  0.5524470000000 1.0
C      1  0.5917610000000  0.4495960000000  0.4418080000000 1.0
C      1  0.4310260000000  0.5127480000000  0.5208580000000 1.0
C      1  0.4550470000000  0.5966500000000  0.5595400000000 1.0
C      1  0.4274620000000  0.4428480000000  0.5859390000000 1.0
C      1  0.5858550000000  0.4319080000000  0.4640300000000 1.0
C      1  0.4383740000000  0.4489420000000  0.4332000000000 1.0
C      1  0.4586750000000  0.5571570000000  0.5929770000000 1.0
C      1  0.5570040000000  0.4803640000000  0.4289750000000 1.0
C      1  0.5369850000000  0.5208160000000  0.4202240000000 1.0
C      1  0.5531910000000  0.5006770000000  0.4085840000000 1.0
C      1  0.4641450000000  0.4264890000000  0.5627580000000 1.0
C      1  0.4819860000000  0.4893160000000  0.5100360000000 1.0
C      1  0.5346590000000  0.5741120000000  0.4077330000000 1.0
C      1  0.4631210000000  0.5678170000000  0.4319890000000 1.0
C      1  0.5757270000000  0.5764410000000  0.5162290000000 1.0
C      1  0.4389080000000  0.4859890000000  0.5266860000000 1.0
C      1  0.4133770000000  0.5161900000000  0.4182030000000 1.0
C      1  0.5866700000000  0.4435770000000  0.4905500000000 1.0
C      1  0.4508920000000  0.4804080000000  0.4696420000000 1.0
C      1  0.4555740000000  0.4589580000000  0.4886270000000 1.0
C      1  0.4554620000000  0.4388900000000  0.5874460000000 1.0
C      1  0.5281630000000  0.4524560000000  0.3903950000000 1.0
C      1  0.5532410000000  0.5290100000000  0.5356320000000 1.0
C      1  0.4212280000000  0.4309200000000  0.5260800000000 1.0
C      1  0.3818110000000  0.3801050000000  0.5026050000000 1.0
C      1  0.4713350000000  0.5117830000000  0.5951260000000 1.0
C      1  0.4593870000000  0.4737420000000  0.5117220000000 1.0
C      1  0.5891470000000  0.4282680000000  0.5149560000000 1.0
C      1  0.5282510000000  0.4393990000000  0.5172800000000 1.0
C      1  0.5664700000000  0.5126920000000  0.3865820000000 1.0
C      1  0.4280880000000  0.3698390000000  0.4984590000000 1.0
C      1  0.5648690000000  0.5488870000000  0.4495040000000 1.0
C      1  0.4855070000000  0.5882190000000  0.4905100000000 1.0
C      1  0.5618580000000  0.6026950000000  0.5140320000000 1.0
C      1  0.5775710000000  0.5667370000000  0.5442460000000 1.0
C      1  0.4752840000000  0.4935580000000  0.4599560000000 1.0
C      1  0.5526290000000  0.4449660000000  0.4014120000000 1.0
C      1  0.5444370000000  0.5045530000000  0.5808410000000 1.0
C      1  0.4936880000000  0.4081920000000  0.5299950000000 1.0
C      1  0.5144580000000  0.4381920000000  0.5650960000000 1.0
C      1  0.4878920000000  0.5645830000000  0.4183550000000 1.0
C      1  0.5173630000000  0.4344870000000  0.4598650000000 1.0
C      1  0.5795040000000  0.4420900000000  0.5590960000000 1.0
C      1  0.5343690000000  0.5726460000000  0.5688520000000 1.0
C      1  0.4699050000000  0.5239680000000  0.3912260000000 1.0
C      1  0.4765430000000  0.5177770000000  0.5061740000000 1.0
C      1  0.5202420000000  0.4596220000000  0.5848800000000 1.0
C      1  0.4626570000000  0.6045190000000  0.4815980000000 1.0
C      1  0.5576200000000  0.5840710000000  0.5579590000000 1.0
C      1  0.5303950000000  0.4879260000000  0.5169740000000 1.0
C      1  0.5057210000000  0.5397530000000  0.4782720000000 1.0
C      1  0.5702000000000  0.4557500000000  0.4224750000000 1.0
C      1  0.5490220000000  0.5363690000000  0.5072840000000 1.0
C      1  0.3677160000000  0.5557120000000  0.4364900000000 1.0
C      1  0.6382880000000  0.4634680000000  0.4955150000000 1.0
C      1  0.6287200000000  0.5344610000000  0.4686210000000 1.0
C      1  0.4778860000000  0.4768900000000  0.3852710000000 1.0
C      1  0.4104210000000  0.4345750000000  0.4788810000000 1.0
C      1  0.4491870000000  0.4935260000000  0.5939080000000 1.0
C      1  0.5737200000000  0.4682450000000  0.5702260000000 1.0
C      1  0.3846750000000  0.5417150000000  0.4526850000000 1.0
C      1  0.5173770000000  0.3945400000000  0.5206100000000 1.0
C      1  0.5948500000000  0.4940740000000  0.4850610000000 1.0
C      1  0.6168960000000  0.5185330000000  0.4498450000000 1.0
C      1  0.3981450000000  0.5185890000000  0.4434490000000 1.0
C      1  0.4682830000000  0.4622440000000  0.5978390000000 1.0
C      1  0.4048940000000  0.5544550000000  0.5303770000000 1.0
C      1  0.4449250000000  0.5891560000000  0.4301890000000 1.0
C      1  0.4331110000000  0.4957470000000  0.4093390000000 1.0
C      1  0.5172590000000  0.5291840000000  0.6434400000000 1.0
C      1  0.5999830000000  0.4439620000000  0.5378840000000 1.0
C      1  0.4908890000000  0.5934410000000  0.5186150000000 1.0
C      1  0.4686390000000  0.4171910000000  0.5162490000000 1.0
C      1  0.3996800000000  0.4582260000000  0.4924940000000 1.0
C      1  0.5071470000000  0.4818210000000  0.5021860000000 1.0
C      1  0.5545750000000  0.6077970000000  0.5414000000000 1.0
C      1  0.4855790000000  0.5446570000000  0.3981940000000 1.0
C      1  0.5473340000000  0.4753640000000  0.5816150000000 1.0
C      1  0.4836220000000  0.4735030000000  0.4396160000000 1.0
C      1  0.4079200000000  0.3882040000000  0.5008270000000 1.0
C      1  0.4723570000000  0.5364830000000  0.5811460000000 1.0
C      1  0.5339950000000  0.4358550000000  0.5449230000000 1.0
C      1  0.4723820000000  0.4208580000000  0.4410340000000 1.0
C      1  0.5192980000000  0.5809580000000  0.4554440000000 1.0
C      1  0.4039340000000  0.4561750000000  0.5232610000000 1.0
C      1  0.5418410000000  0.5421600000000  0.6444580000000 1.0
C      1  0.4137400000000  0.5897350000000  0.4963050000000 1.0
C      1  0.4343230000000  0.5974840000000  0.4774310000000 1.0
C      1  0.5783380000000  0.5380810000000  0.5470250000000 1.0
C      1  0.4285620000000  0.4315710000000  0.4564940000000 1.0
C      1  0.5116160000000  0.5591940000000  0.5649240000000 1.0
C      1  0.4959880000000  0.4308330000000  0.4777270000000 1.0
C      1  0.6041030000000  0.4943530000000  0.4574140000000 1.0
C      1  0.5793330000000  0.4723780000000  0.4947170000000 1.0
C      1  0.5212160000000  0.4957750000000  0.5421610000000 1.0
C      1  0.6111180000000  0.4707550000000  0.5382780000000 1.0
END
