TITL C-247200-3482-411 -1.10288694526021e-06 125000 -448.87658212947 0 0 74 (C1) n - 1
REM
REM in /home/nfs/bkarasulu/CARBON/AIRSS/Generating-Clusters/LCBOP/Only-C1/SD-CG/FIRE-HFTN
REM
REM
REM
REM
REM
REM ./C.cell (11c1c37f851c82e70ff6c80c92926a4b)
REM AIRSS Version 0.9.1 bugfix July 2018 build 013d7b7c2542+ Fri, 06 Jul 2018 19:26:36 +0100
REM compiler GCC version 9.2.1 20190827 (Red Hat 9.2.1-1)
REM options -cpp -mtune=generic -march=x86-64 -g -O0 -fpre-include=/usr/include/finclude/math-vector-fortran.h
REM seed -1272570210 -846936699 -2099882063 -1076383941 504071973 1474084189 -1931651177 -792768305 1069471877 -890499872 580914741 -2001669206 -1139533671 -1074326177 -2047556106 1288142780 -630861950 1329761782 516145030 -2063250791 -759387041 -2032599277 1738136566 -1221693788 -1669035471 1757416242 -2028853379 -323326377 -640779482 705446930 -889158615 -395129488 -2106240710
REM
CELL 1.54180   50.00000   50.00000   50.00000   90.00000   90.00000   90.00000
LATT -1
SFAC C  
C      1  0.5813540000000  0.5287130000000  0.4890120000000 1.0
C      1  0.5036070000000  0.5438350000000  0.5207990000000 1.0
C      1  0.4053790000000  0.4483580000000  0.5023030000000 1.0
C      1  0.5439980000000  0.4719150000000  0.5769240000000 1.0
C      1  0.5218530000000  0.4393020000000  0.4530110000000 1.0
C      1  0.5753560000000  0.5020150000000  0.4800660000000 1.0
C      1  0.4810990000000  0.5161660000000  0.4660500000000 1.0
C      1  0.4058320000000  0.4954260000000  0.5557580000000 1.0
C      1  0.4116300000000  0.4726740000000  0.5431260000000 1.0
C      1  0.5705290000000  0.4769890000000  0.4951510000000 1.0
C      1  0.4722370000000  0.5338190000000  0.4856130000000 1.0
C      1  0.5487590000000  0.5475560000000  0.4567250000000 1.0
C      1  0.5254150000000  0.4234760000000  0.4991520000000 1.0
C      1  0.5685860000000  0.4788980000000  0.5236560000000 1.0
C      1  0.4776180000000  0.4650110000000  0.4503800000000 1.0
C      1  0.4309510000000  0.5339840000000  0.5362860000000 1.0
C      1  0.5023830000000  0.4080970000000  0.4915820000000 1.0
C      1  0.5154450000000  0.4679600000000  0.5061590000000 1.0
C      1  0.4933800000000  0.5092720000000  0.4240700000000 1.0
C      1  0.5742190000000  0.5487260000000  0.4696670000000 1.0
C      1  0.5440180000000  0.4981760000000  0.5652170000000 1.0
C      1  0.5203760000000  0.4431790000000  0.5189930000000 1.0
C      1  0.4651710000000  0.4780350000000  0.5020120000000 1.0
C      1  0.4598540000000  0.4773000000000  0.4724910000000 1.0
C      1  0.4748250000000  0.5260600000000  0.4386430000000 1.0
C      1  0.5335710000000  0.4582400000000  0.4345960000000 1.0
C      1  0.4925610000000  0.4397030000000  0.4565200000000 1.0
C      1  0.5553340000000  0.4713500000000  0.4491600000000 1.0
C      1  0.5658650000000  0.4988630000000  0.5448010000000 1.0
C      1  0.4822440000000  0.5271190000000  0.5105480000000 1.0
C      1  0.5595820000000  0.4569560000000  0.4761640000000 1.0
C      1  0.4222360000000  0.4598710000000  0.5205940000000 1.0
C      1  0.4277820000000  0.5272980000000  0.5086640000000 1.0
C      1  0.4894950000000  0.4796980000000  0.4256560000000 1.0
C      1  0.5530570000000  0.5527570000000  0.5183590000000 1.0
C      1  0.4814750000000  0.5790770000000  0.4884010000000 1.0
C      1  0.5391980000000  0.4480000000000  0.5649450000000 1.0
C      1  0.4354810000000  0.4924360000000  0.4670220000000 1.0
C      1  0.5088370000000  0.5798820000000  0.4785210000000 1.0
C      1  0.5140960000000  0.4671850000000  0.4161320000000 1.0
C      1  0.4268840000000  0.5114460000000  0.4867640000000 1.0
C      1  0.5622260000000  0.4995030000000  0.4535190000000 1.0
C      1  0.4845900000000  0.4180030000000  0.4731830000000 1.0
C      1  0.5533220000000  0.5795910000000  0.5229210000000 1.0
C      1  0.4652370000000  0.5528620000000  0.4447840000000 1.0
C      1  0.5300780000000  0.5366810000000  0.5164280000000 1.0
C      1  0.4504900000000  0.4581020000000  0.5168000000000 1.0
C      1  0.5283740000000  0.5664230000000  0.4647510000000 1.0
C      1  0.5769580000000  0.5372230000000  0.5160250000000 1.0
C      1  0.4822000000000  0.4986640000000  0.5155930000000 1.0
C      1  0.4087860000000  0.4844480000000  0.4209050000000 1.0
C      1  0.4717520000000  0.5818790000000  0.5161700000000 1.0
C      1  0.4668120000000  0.5594930000000  0.4735020000000 1.0
C      1  0.5173310000000  0.4430760000000  0.5475450000000 1.0
C      1  0.4621880000000  0.4343660000000  0.5239700000000 1.0
C      1  0.4992770000000  0.5567370000000  0.5459460000000 1.0
C      1  0.4911670000000  0.5046950000000  0.5704240000000 1.0
C      1  0.4551240000000  0.5431840000000  0.5490180000000 1.0
C      1  0.4863600000000  0.4768840000000  0.5698250000000 1.0
C      1  0.4719590000000  0.5663950000000  0.5412940000000 1.0
C      1  0.4208800000000  0.4882590000000  0.4436700000000 1.0
C      1  0.5157940000000  0.5445920000000  0.5661700000000 1.0
C      1  0.5190890000000  0.5155970000000  0.5695660000000 1.0
C      1  0.5089620000000  0.4901930000000  0.5215950000000 1.0
C      1  0.5297900000000  0.5090250000000  0.5204660000000 1.0
C      1  0.5395470000000  0.4350640000000  0.4764930000000 1.0
C      1  0.5145580000000  0.4792080000000  0.4798700000000 1.0
C      1  0.4122080000000  0.5213420000000  0.5533060000000 1.0
C      1  0.4692460000000  0.5230720000000  0.5652400000000 1.0
C      1  0.5181620000000  0.5121330000000  0.4413660000000 1.0
C      1  0.5444030000000  0.5210630000000  0.4451960000000 1.0
C      1  0.5817860000000  0.5216320000000  0.5390660000000 1.0
C      1  0.4932800000000  0.4532030000000  0.5590380000000 1.0
C      1  0.5064930000000  0.5025840000000  0.4666670000000 1.0
END
