TITL C-247198-3593-543 -1.36080168577115e-06 125000 -952.098123217888 0 0 159 (C1) n - 1
REM
REM in /home/nfs/bkarasulu/CARBON/AIRSS/Generating-Clusters/LCBOP/Only-C1/SD-CG/FIRE-HFTN
REM
REM
REM
REM
REM
REM ./C.cell (11c1c37f851c82e70ff6c80c92926a4b)
REM AIRSS Version 0.9.1 bugfix July 2018 build 013d7b7c2542+ Fri, 06 Jul 2018 19:26:36 +0100
REM compiler GCC version 9.2.1 20190827 (Red Hat 9.2.1-1)
REM options -cpp -mtune=generic -march=x86-64 -g -O0 -fpre-include=/usr/include/finclude/math-vector-fortran.h
REM seed 1226160397 -539206570 -718176132 347143184 347535873 157723771 -902071661 -2109907858 -75083699 -342404431 2006415984 -1338688572 1829893914 585982487 -912781893 -196495666 -961878530 199210402 122555547 -245575661 407469150 -930139143 1432264350 -1832689853 843177423 2139386469 -577369736 -551220696 645554379 1538629682 480293894 525018642 1462132849
REM
CELL 1.54180   50.00000   50.00000   50.00000   90.00000   90.00000   90.00000
LATT -1
SFAC C  
C      1  0.4138700000000  0.4912680000000  0.4453910000000 1.0
C      1  0.5080900000000  0.5147350000000  0.4990480000000 1.0
C      1  0.6055730000000  0.5690760000000  0.5093620000000 1.0
C      1  0.5003610000000  0.4936990000000  0.4792200000000 1.0
C      1  0.5772170000000  0.5245250000000  0.5602030000000 1.0
C      1  0.5503100000000  0.5238690000000  0.5217090000000 1.0
C      1  0.5390870000000  0.4363750000000  0.4874750000000 1.0
C      1  0.4158970000000  0.5973200000000  0.4748950000000 1.0
C      1  0.5718150000000  0.6223680000000  0.4637250000000 1.0
C      1  0.4521490000000  0.4065040000000  0.4428050000000 1.0
C      1  0.4877850000000  0.4000690000000  0.4768970000000 1.0
C      1  0.4317820000000  0.4747550000000  0.4940780000000 1.0
C      1  0.6556260000000  0.4800240000000  0.4689360000000 1.0
C      1  0.3841400000000  0.4563040000000  0.5038730000000 1.0
C      1  0.5525810000000  0.6104910000000  0.5313230000000 1.0
C      1  0.5998720000000  0.6264740000000  0.5246590000000 1.0
C      1  0.4461220000000  0.5554670000000  0.5605760000000 1.0
C      1  0.4922590000000  0.4085980000000  0.5526120000000 1.0
C      1  0.6037820000000  0.4436280000000  0.5163690000000 1.0
C      1  0.6539700000000  0.4505290000000  0.4310190000000 1.0
C      1  0.5157680000000  0.5121020000000  0.4083640000000 1.0
C      1  0.5923450000000  0.5110490000000  0.4522270000000 1.0
C      1  0.5971170000000  0.4473380000000  0.4640730000000 1.0
C      1  0.5513040000000  0.5329120000000  0.4742970000000 1.0
C      1  0.4375120000000  0.5336200000000  0.4490970000000 1.0
C      1  0.4049030000000  0.5171060000000  0.4875140000000 1.0
C      1  0.4894790000000  0.6739330000000  0.4969910000000 1.0
C      1  0.4343150000000  0.4242950000000  0.5388440000000 1.0
C      1  0.5480120000000  0.4452070000000  0.4618430000000 1.0
C      1  0.4403520000000  0.5783720000000  0.6034230000000 1.0
C      1  0.3941130000000  0.4775450000000  0.5198720000000 1.0
C      1  0.4368810000000  0.4753950000000  0.4377970000000 1.0
C      1  0.5361150000000  0.5952310000000  0.4387010000000 1.0
C      1  0.5541060000000  0.5980920000000  0.5564220000000 1.0
C      1  0.4613240000000  0.5775050000000  0.4929360000000 1.0
C      1  0.4106280000000  0.4947240000000  0.5609180000000 1.0
C      1  0.4646670000000  0.4816950000000  0.4435430000000 1.0
C      1  0.5841770000000  0.4800970000000  0.4130160000000 1.0
C      1  0.5549730000000  0.5804670000000  0.5766070000000 1.0
C      1  0.5004710000000  0.3818370000000  0.5590860000000 1.0
C      1  0.4564790000000  0.4819650000000  0.4891280000000 1.0
C      1  0.5579190000000  0.4876200000000  0.4729810000000 1.0
C      1  0.5079360000000  0.5942030000000  0.5126760000000 1.0
C      1  0.4595230000000  0.4040770000000  0.4707450000000 1.0
C      1  0.4153120000000  0.4187280000000  0.4879370000000 1.0
C      1  0.5947870000000  0.4771740000000  0.5572740000000 1.0
C      1  0.4539280000000  0.5599590000000  0.5875200000000 1.0
C      1  0.4652510000000  0.5297000000000  0.4636770000000 1.0
C      1  0.3882800000000  0.4835990000000  0.4370590000000 1.0
C      1  0.4165360000000  0.5151930000000  0.4610580000000 1.0
C      1  0.5877070000000  0.4521750000000  0.4067160000000 1.0
C      1  0.5707700000000  0.5119710000000  0.4704050000000 1.0
C      1  0.4220630000000  0.5419970000000  0.5522640000000 1.0
C      1  0.5070070000000  0.4292640000000  0.5659720000000 1.0
C      1  0.5403580000000  0.4669520000000  0.4000230000000 1.0
C      1  0.5357480000000  0.6310410000000  0.4937600000000 1.0
C      1  0.4079900000000  0.4248620000000  0.5486770000000 1.0
C      1  0.5534570000000  0.5364020000000  0.4237130000000 1.0
C      1  0.4835590000000  0.4636260000000  0.3613980000000 1.0
C      1  0.5569290000000  0.5069360000000  0.6007770000000 1.0
C      1  0.4424440000000  0.4121650000000  0.4923840000000 1.0
C      1  0.4705370000000  0.4990270000000  0.4694290000000 1.0
C      1  0.3898250000000  0.4460110000000  0.5877760000000 1.0
C      1  0.6004790000000  0.4569080000000  0.5390000000000 1.0
C      1  0.5010610000000  0.4648170000000  0.4912290000000 1.0
C      1  0.5643780000000  0.6301670000000  0.4894970000000 1.0
C      1  0.4615350000000  0.5324050000000  0.5155310000000 1.0
C      1  0.3977570000000  0.5385130000000  0.5056420000000 1.0
C      1  0.4824130000000  0.6489460000000  0.4992800000000 1.0
C      1  0.5582750000000  0.6087430000000  0.4449580000000 1.0
C      1  0.4146320000000  0.4953070000000  0.5061290000000 1.0
C      1  0.5778060000000  0.4327740000000  0.4231470000000 1.0
C      1  0.5273980000000  0.4568290000000  0.5316140000000 1.0
C      1  0.4279900000000  0.5621850000000  0.4497450000000 1.0
C      1  0.5701920000000  0.5397490000000  0.5359250000000 1.0
C      1  0.4459050000000  0.4216690000000  0.6238700000000 1.0
C      1  0.5103050000000  0.4435060000000  0.5924650000000 1.0
C      1  0.4709200000000  0.4279950000000  0.6175710000000 1.0
C      1  0.5494150000000  0.5456330000000  0.4490310000000 1.0
C      1  0.5867580000000  0.5584660000000  0.5239610000000 1.0
C      1  0.5989620000000  0.4884250000000  0.4363980000000 1.0
C      1  0.4937500000000  0.4675760000000  0.6307340000000 1.0
C      1  0.5012420000000  0.4452240000000  0.4220090000000 1.0
C      1  0.5582180000000  0.5569550000000  0.5892510000000 1.0
C      1  0.5519540000000  0.4977310000000  0.5347290000000 1.0
C      1  0.5654970000000  0.5298920000000  0.5857040000000 1.0
C      1  0.6218870000000  0.4788920000000  0.6039880000000 1.0
C      1  0.6128400000000  0.4672940000000  0.4504910000000 1.0
C      1  0.5100540000000  0.5728060000000  0.5303050000000 1.0
C      1  0.5135700000000  0.4582880000000  0.3996800000000 1.0
C      1  0.6030330000000  0.4398600000000  0.4901880000000 1.0
C      1  0.4432490000000  0.6198920000000  0.5069850000000 1.0
C      1  0.4896760000000  0.5357640000000  0.4449530000000 1.0
C      1  0.5472000000000  0.4816340000000  0.6034910000000 1.0
C      1  0.5098210000000  0.5095360000000  0.5819320000000 1.0
C      1  0.4759270000000  0.5453960000000  0.5976860000000 1.0
C      1  0.4314260000000  0.5126630000000  0.5509500000000 1.0
C      1  0.4883360000000  0.4499730000000  0.4698060000000 1.0
C      1  0.5282360000000  0.6133760000000  0.5148970000000 1.0
C      1  0.4364610000000  0.5122940000000  0.5208540000000 1.0
C      1  0.4981180000000  0.4174920000000  0.4296980000000 1.0
C      1  0.5125490000000  0.4869450000000  0.4510960000000 1.0
C      1  0.4334200000000  0.5921640000000  0.4990500000000 1.0
C      1  0.3939280000000  0.4343580000000  0.4918490000000 1.0
C      1  0.4593870000000  0.5030330000000  0.5591300000000 1.0
C      1  0.5084810000000  0.4958670000000  0.5573180000000 1.0
C      1  0.4746950000000  0.5729790000000  0.4163220000000 1.0
C      1  0.4742790000000  0.5169000000000  0.3833760000000 1.0
C      1  0.4842100000000  0.5012680000000  0.5441410000000 1.0
C      1  0.5288010000000  0.4835350000000  0.5413850000000 1.0
C      1  0.4975940000000  0.5022650000000  0.3885400000000 1.0
C      1  0.6644550000000  0.4356470000000  0.4123720000000 1.0
C      1  0.4906970000000  0.4642650000000  0.4426410000000 1.0
C      1  0.4939540000000  0.3947820000000  0.5042040000000 1.0
C      1  0.4528390000000  0.4162930000000  0.5192750000000 1.0
C      1  0.4919360000000  0.5602140000000  0.5448010000000 1.0
C      1  0.6089820000000  0.4780630000000  0.5813620000000 1.0
C      1  0.4312140000000  0.4233050000000  0.4348760000000 1.0
C      1  0.4520350000000  0.5243820000000  0.3959560000000 1.0
C      1  0.4961910000000  0.5280140000000  0.5958640000000 1.0
C      1  0.5314100000000  0.4375240000000  0.5515920000000 1.0
C      1  0.3926020000000  0.4021890000000  0.5472140000000 1.0
C      1  0.5508470000000  0.4440730000000  0.5716960000000 1.0
C      1  0.4089130000000  0.5530670000000  0.5280580000000 1.0
C      1  0.5375360000000  0.4564680000000  0.5943270000000 1.0
C      1  0.5756230000000  0.4966970000000  0.5513610000000 1.0
C      1  0.4611160000000  0.5873210000000  0.3992940000000 1.0
C      1  0.5081870000000  0.3720040000000  0.5134140000000 1.0
C      1  0.4304820000000  0.4493810000000  0.4293910000000 1.0
C      1  0.4180170000000  0.5787940000000  0.5204890000000 1.0
C      1  0.4799820000000  0.4096530000000  0.5255780000000 1.0
C      1  0.5346530000000  0.5274930000000  0.4980510000000 1.0
C      1  0.5058200000000  0.5128610000000  0.4353740000000 1.0
C      1  0.3969980000000  0.4482860000000  0.5607290000000 1.0
C      1  0.5734250000000  0.4376160000000  0.4507580000000 1.0
C      1  0.4709410000000  0.6239550000000  0.5021230000000 1.0
C      1  0.5097550000000  0.3651310000000  0.5396800000000 1.0
C      1  0.4628340000000  0.5482090000000  0.4894800000000 1.0
C      1  0.4932050000000  0.5624400000000  0.4345760000000 1.0
C      1  0.3640970000000  0.4759420000000  0.4310900000000 1.0
C      1  0.4830020000000  0.5976890000000  0.4991760000000 1.0
C      1  0.4868720000000  0.5154720000000  0.5191480000000 1.0
C      1  0.5148940000000  0.5792050000000  0.4407150000000 1.0
C      1  0.3976440000000  0.4735830000000  0.5479440000000 1.0
C      1  0.5059640000000  0.4065550000000  0.4554910000000 1.0
C      1  0.5745950000000  0.6219710000000  0.5156460000000 1.0
C      1  0.5580180000000  0.4890240000000  0.4054410000000 1.0
C      1  0.4272020000000  0.5956440000000  0.6178430000000 1.0
C      1  0.4196560000000  0.4258520000000  0.6234790000000 1.0
C      1  0.4974770000000  0.4742620000000  0.3823000000000 1.0
C      1  0.6411410000000  0.4661070000000  0.4503670000000 1.0
C      1  0.5220740000000  0.4515100000000  0.5047190000000 1.0
C      1  0.4917170000000  0.4462480000000  0.6135790000000 1.0
C      1  0.5394890000000  0.4729020000000  0.4572870000000 1.0
C      1  0.4732240000000  0.4048280000000  0.4235650000000 1.0
C      1  0.3985820000000  0.4362520000000  0.6109790000000 1.0
C      1  0.4401970000000  0.5282620000000  0.4193880000000 1.0
C      1  0.4657620000000  0.5521840000000  0.5403940000000 1.0
C      1  0.5445230000000  0.5142510000000  0.4082890000000 1.0
END
