TITL C-247200-3482-589 3246.04691024839 125000 -1186.29595945721 0 0 191 (C1) n - 1
REM
REM in /home/nfs/bkarasulu/CARBON/AIRSS/Generating-Clusters/LCBOP/Only-C1/SD-CG/FIRE-HFTN
REM
REM
REM
REM
REM
REM ./C.cell (11c1c37f851c82e70ff6c80c92926a4b)
REM AIRSS Version 0.9.1 bugfix July 2018 build 013d7b7c2542+ Fri, 06 Jul 2018 19:26:36 +0100
REM compiler GCC version 9.2.1 20190827 (Red Hat 9.2.1-1)
REM options -cpp -mtune=generic -march=x86-64 -g -O0 -fpre-include=/usr/include/finclude/math-vector-fortran.h
REM seed -336554075 737226471 27575465 1675506856 -2144451285 -667368415 869856515 69351878 -1325664875 1716292984 1358301128 -1750282062 -1025929086 535370676 -2012102594 845012734 1026079664 -1701279776 -1527607939 -2070281893 -1272769415 1085718326 -2003684664 -436275171 -1197206167 945749846 -1436513565 398354210 3790958 438596927 -1000303952 -1549362511 1185158166
REM
CELL 1.54180   50.00000   50.00000   50.00000   90.00000   90.00000   90.00000
LATT -1
SFAC C  
C      1  0.5088580000000  0.5683280000000  0.4174100000000 1.0
C      1  0.5069000000000  0.4777970000000  0.4202690000000 1.0
C      1  0.4766340000000  0.5273270000000  0.4044520000000 1.0
C      1  0.4332550000000  0.5717270000000  0.4806830000000 1.0
C      1  0.5841140000000  0.5815150000000  0.4970360000000 1.0
C      1  0.4322030000000  0.5221170000000  0.4850460000000 1.0
C      1  0.5885800000000  0.5383930000000  0.3849790000000 1.0
C      1  0.5625020000000  0.5751630000000  0.5674960000000 1.0
C      1  0.5021820000000  0.4927990000000  0.6205560000000 1.0
C      1  0.3804590000000  0.5012620000000  0.5345390000000 1.0
C      1  0.4826850000000  0.5554580000000  0.4108040000000 1.0
C      1  0.4831810000000  0.4457730000000  0.5176950000000 1.0
C      1  0.5104220000000  0.5591130000000  0.5990940000000 1.0
C      1  0.5849490000000  0.5068370000000  0.4667240000000 1.0
C      1  0.4602720000000  0.5734400000000  0.4147480000000 1.0
C      1  0.4557050000000  0.5212730000000  0.5041330000000 1.0
C      1  0.5521110000000  0.5375930000000  0.6069580000000 1.0
C      1  0.5321240000000  0.5929910000000  0.4554810000000 1.0
C      1  0.4444050000000  0.4051660000000  0.4318180000000 1.0
C      1  0.4273490000000  0.6221040000000  0.4930290000000 1.0
C      1  0.4077960000000  0.5547220000000  0.5188170000000 1.0
C      1  0.4471760000000  0.5264760000000  0.6128890000000 1.0
C      1  0.4837280000000  0.4754580000000  0.4026800000000 1.0
C      1  0.4199260000000  0.4740020000000  0.5410260000000 1.0
C      1  0.5922140000000  0.5289070000000  0.5475860000000 1.0
C      1  0.5464390000000  0.4824240000000  0.4603490000000 1.0
C      1  0.4974330000000  0.4044530000000  0.4837080000000 1.0
C      1  0.6076620000000  0.5228630000000  0.5249400000000 1.0
C      1  0.4627290000000  0.5992270000000  0.5509170000000 1.0
C      1  0.5583170000000  0.4408290000000  0.4513080000000 1.0
C      1  0.4672200000000  0.5674710000000  0.5843370000000 1.0
C      1  0.4595380000000  0.5420570000000  0.5221000000000 1.0
C      1  0.3827560000000  0.4391920000000  0.4387880000000 1.0
C      1  0.5001400000000  0.4032090000000  0.5119920000000 1.0
C      1  0.4666340000000  0.4998100000000  0.4026420000000 1.0
C      1  0.5949130000000  0.5228940000000  0.5748280000000 1.0
C      1  0.5018110000000  0.4726920000000  0.6033160000000 1.0
C      1  0.6148730000000  0.4677310000000  0.4802390000000 1.0
C      1  0.5352560000000  0.4116240000000  0.5995090000000 1.0
C      1  0.5808000000000  0.4796880000000  0.5903560000000 1.0
C      1  0.4254430000000  0.4709710000000  0.4012110000000 1.0
C      1  0.3834640000000  0.4840400000000  0.4610480000000 1.0
C      1  0.3949320000000  0.4837170000000  0.5511710000000 1.0
C      1  0.5943950000000  0.6034130000000  0.4826110000000 1.0
C      1  0.4040710000000  0.5079150000000  0.5948270000000 1.0
C      1  0.4568190000000  0.5691460000000  0.5178920000000 1.0
C      1  0.4587480000000  0.3736650000000  0.4836360000000 1.0
C      1  0.5968020000000  0.5343570000000  0.5002630000000 1.0
C      1  0.6166210000000  0.4952580000000  0.5257890000000 1.0
C      1  0.4292600000000  0.4209980000000  0.4160760000000 1.0
C      1  0.4328750000000  0.3506290000000  0.5198820000000 1.0
C      1  0.5761710000000  0.5153370000000  0.4933270000000 1.0
C      1  0.4765710000000  0.5027520000000  0.5070950000000 1.0
C      1  0.4548770000000  0.4478630000000  0.4771370000000 1.0
C      1  0.4762360000000  0.4564750000000  0.4929550000000 1.0
C      1  0.4449180000000  0.4843530000000  0.4426250000000 1.0
C      1  0.3853830000000  0.4616930000000  0.5007590000000 1.0
C      1  0.5012070000000  0.5205990000000  0.6217380000000 1.0
C      1  0.5083210000000  0.5855790000000  0.4408830000000 1.0
C      1  0.5499660000000  0.5319430000000  0.4515280000000 1.0
C      1  0.3863940000000  0.5089530000000  0.5080390000000 1.0
C      1  0.5855500000000  0.4330970000000  0.4541740000000 1.0
C      1  0.5219120000000  0.5150090000000  0.4993160000000 1.0
C      1  0.5059260000000  0.5761960000000  0.5243390000000 1.0
C      1  0.4698810000000  0.3745010000000  0.5967690000000 1.0
C      1  0.5110510000000  0.5148480000000  0.4725550000000 1.0
C      1  0.5513790000000  0.3955950000000  0.5037500000000 1.0
C      1  0.4350850000000  0.4990800000000  0.4649180000000 1.0
C      1  0.4818780000000  0.4830390000000  0.4891800000000 1.0
C      1  0.4926480000000  0.4044950000000  0.4263610000000 1.0
C      1  0.5399360000000  0.4665420000000  0.4858570000000 1.0
C      1  0.3795320000000  0.6156180000000  0.4930980000000 1.0
C      1  0.4704310000000  0.5351890000000  0.5474170000000 1.0
C      1  0.5124360000000  0.5622230000000  0.5705790000000 1.0
C      1  0.6065100000000  0.4499630000000  0.5460980000000 1.0
C      1  0.5588400000000  0.5763610000000  0.4195570000000 1.0
C      1  0.4960990000000  0.4922540000000  0.4673650000000 1.0
C      1  0.6157870000000  0.4363970000000  0.5222770000000 1.0
C      1  0.4144760000000  0.5439610000000  0.4436880000000 1.0
C      1  0.5718590000000  0.5467310000000  0.5887820000000 1.0
C      1  0.5898590000000  0.4055800000000  0.4477070000000 1.0
C      1  0.5183480000000  0.3921500000000  0.4331030000000 1.0
C      1  0.5446410000000  0.5540460000000  0.5036230000000 1.0
C      1  0.5319860000000  0.4379870000000  0.5232750000000 1.0
C      1  0.5352980000000  0.5664620000000  0.4049260000000 1.0
C      1  0.4979270000000  0.4336510000000  0.5762420000000 1.0
C      1  0.3950070000000  0.5275340000000  0.4353410000000 1.0
C      1  0.5439770000000  0.4694530000000  0.3899200000000 1.0
C      1  0.4276090000000  0.5439450000000  0.5700050000000 1.0
C      1  0.5241400000000  0.5375830000000  0.6123980000000 1.0
C      1  0.5346180000000  0.3938950000000  0.4571420000000 1.0
C      1  0.4634720000000  0.4488980000000  0.5391710000000 1.0
C      1  0.5563970000000  0.3869150000000  0.4763990000000 1.0
C      1  0.4257880000000  0.6279940000000  0.4641600000000 1.0
C      1  0.5547470000000  0.5782050000000  0.4481080000000 1.0
C      1  0.4746480000000  0.5341230000000  0.6185820000000 1.0
C      1  0.4943660000000  0.4215960000000  0.3810080000000 1.0
C      1  0.6018940000000  0.3966740000000  0.4919760000000 1.0
C      1  0.4042160000000  0.4479130000000  0.4835950000000 1.0
C      1  0.5516230000000  0.4168690000000  0.5229010000000 1.0
C      1  0.5219860000000  0.5323270000000  0.4538510000000 1.0
C      1  0.4199250000000  0.5608480000000  0.5462650000000 1.0
C      1  0.4466770000000  0.5940230000000  0.4260250000000 1.0
C      1  0.4807390000000  0.5965150000000  0.4829420000000 1.0
C      1  0.5085300000000  0.4113720000000  0.5907230000000 1.0
C      1  0.4303410000000  0.5471610000000  0.4667770000000 1.0
C      1  0.4477020000000  0.3624860000000  0.5883530000000 1.0
C      1  0.4227020000000  0.4440980000000  0.4036960000000 1.0
C      1  0.4653350000000  0.4765650000000  0.5521980000000 1.0
C      1  0.4798000000000  0.3593520000000  0.5235350000000 1.0
C      1  0.5661380000000  0.5547340000000  0.4608680000000 1.0
C      1  0.5119410000000  0.6039030000000  0.5240080000000 1.0
C      1  0.6083990000000  0.4240400000000  0.4975770000000 1.0
C      1  0.4940800000000  0.4761900000000  0.4460550000000 1.0
C      1  0.5047460000000  0.6099630000000  0.4959480000000 1.0
C      1  0.5379160000000  0.4667030000000  0.5166470000000 1.0
C      1  0.4424180000000  0.5807660000000  0.5401620000000 1.0
C      1  0.4718550000000  0.4492160000000  0.4144580000000 1.0
C      1  0.6024850000000  0.6053790000000  0.4567350000000 1.0
C      1  0.5490820000000  0.5251840000000  0.5002930000000 1.0
C      1  0.4597720000000  0.6235490000000  0.5360600000000 1.0
C      1  0.5382450000000  0.4385790000000  0.4735260000000 1.0
C      1  0.3934180000000  0.4890910000000  0.5788950000000 1.0
C      1  0.6060410000000  0.5157920000000  0.4500810000000 1.0
C      1  0.5209240000000  0.4158820000000  0.4715590000000 1.0
C      1  0.5486990000000  0.4639840000000  0.4378090000000 1.0
C      1  0.5050760000000  0.4290510000000  0.5219510000000 1.0
C      1  0.5176430000000  0.5604010000000  0.5064370000000 1.0
C      1  0.3779450000000  0.6328600000000  0.4719590000000 1.0
C      1  0.3801540000000  0.4883990000000  0.4897290000000 1.0
C      1  0.5187070000000  0.5365920000000  0.5564230000000 1.0
C      1  0.5271790000000  0.6103780000000  0.4775280000000 1.0
C      1  0.5410990000000  0.5508590000000  0.3821720000000 1.0
C      1  0.5652310000000  0.5352290000000  0.5432980000000 1.0
C      1  0.5601600000000  0.5058680000000  0.4540120000000 1.0
C      1  0.5612610000000  0.4177360000000  0.5999940000000 1.0
C      1  0.5828110000000  0.4271920000000  0.5869860000000 1.0
C      1  0.4239390000000  0.5278280000000  0.5945700000000 1.0
C      1  0.5878570000000  0.5751170000000  0.4161790000000 1.0
C      1  0.4914560000000  0.3900180000000  0.5968440000000 1.0
C      1  0.3671620000000  0.4236410000000  0.4248220000000 1.0
C      1  0.5555490000000  0.4728810000000  0.5852270000000 1.0
C      1  0.4972640000000  0.3795060000000  0.5262510000000 1.0
C      1  0.5639280000000  0.5390360000000  0.3740940000000 1.0
C      1  0.5713350000000  0.4182250000000  0.5424180000000 1.0
C      1  0.4822430000000  0.5595430000000  0.6068300000000 1.0
C      1  0.6225770000000  0.4829980000000  0.5010160000000 1.0
C      1  0.4457010000000  0.6298510000000  0.5134580000000 1.0
C      1  0.4302330000000  0.3534730000000  0.5704010000000 1.0
C      1  0.5652710000000  0.5638290000000  0.5420800000000 1.0
C      1  0.5879250000000  0.4328880000000  0.5599780000000 1.0
C      1  0.5882690000000  0.5567520000000  0.4822490000000 1.0
C      1  0.4416300000000  0.4893110000000  0.5524880000000 1.0
C      1  0.6095710000000  0.4793610000000  0.5499940000000 1.0
C      1  0.5376130000000  0.4856280000000  0.5419330000000 1.0
C      1  0.4748770000000  0.3925320000000  0.4701780000000 1.0
C      1  0.5637150000000  0.5730530000000  0.5153760000000 1.0
C      1  0.4002800000000  0.6396330000000  0.4577160000000 1.0
C      1  0.5986050000000  0.5492630000000  0.4091040000000 1.0
C      1  0.4732180000000  0.4316400000000  0.5618850000000 1.0
C      1  0.4650640000000  0.4601970000000  0.4446370000000 1.0
C      1  0.3830430000000  0.5046240000000  0.4422640000000 1.0
C      1  0.4585340000000  0.5807370000000  0.4922890000000 1.0
C      1  0.4564870000000  0.5458870000000  0.5693080000000 1.0
C      1  0.4387870000000  0.6131720000000  0.4435040000000 1.0
C      1  0.4308470000000  0.4462250000000  0.4940060000000 1.0
C      1  0.5101890000000  0.4594320000000  0.5799110000000 1.0
C      1  0.5995250000000  0.4938230000000  0.5747660000000 1.0
C      1  0.5007230000000  0.5123860000000  0.5191200000000 1.0
C      1  0.4072890000000  0.5281020000000  0.5048320000000 1.0
C      1  0.4867120000000  0.4251310000000  0.4071600000000 1.0
C      1  0.4046700000000  0.6045660000000  0.5005910000000 1.0
C      1  0.4962240000000  0.5249730000000  0.5441310000000 1.0
C      1  0.4236890000000  0.3488960000000  0.5449490000000 1.0
C      1  0.4697910000000  0.3987270000000  0.4429520000000 1.0
C      1  0.3938610000000  0.4566540000000  0.4573480000000 1.0
C      1  0.4413370000000  0.4906570000000  0.4144510000000 1.0
C      1  0.5335140000000  0.4701980000000  0.4150750000000 1.0
C      1  0.4565080000000  0.3589470000000  0.5074810000000 1.0
C      1  0.6020960000000  0.5940310000000  0.4321520000000 1.0
C      1  0.4341230000000  0.4522190000000  0.5242990000000 1.0
C      1  0.4824400000000  0.5837770000000  0.5667480000000 1.0
C      1  0.4853270000000  0.5927120000000  0.4550490000000 1.0
C      1  0.5845160000000  0.3887660000000  0.4700540000000 1.0
C      1  0.5466390000000  0.5993140000000  0.5650230000000 1.0
C      1  0.5299850000000  0.6106460000000  0.5457470000000 1.0
C      1  0.5335340000000  0.4711470000000  0.5675370000000 1.0
C      1  0.5419400000000  0.5199160000000  0.5485870000000 1.0
C      1  0.6096230000000  0.5321540000000  0.4288780000000 1.0
C      1  0.6030050000000  0.4426540000000  0.4755910000000 1.0
C      1  0.4110950000000  0.5769260000000  0.4995000000000 1.0
END
