TITL C-247196-3112-498 -7.03122366012263e-08 125000 -657.285020380538 0 0 107 (C1) n - 1
REM
REM in /home/nfs/bkarasulu/CARBON/AIRSS/Generating-Clusters/LCBOP/Only-C1/SD-CG/FIRE-HFTN
REM
REM
REM
REM
REM
REM ./C.cell (11c1c37f851c82e70ff6c80c92926a4b)
REM AIRSS Version 0.9.1 bugfix July 2018 build 013d7b7c2542+ Fri, 06 Jul 2018 19:26:36 +0100
REM compiler GCC version 9.2.1 20190827 (Red Hat 9.2.1-1)
REM options -cpp -mtune=generic -march=x86-64 -g -O0 -fpre-include=/usr/include/finclude/math-vector-fortran.h
REM seed 64930603 -1962307733 -1236284833 1350361627 -1670569891 1815507378 124859908 137852638 -1916124374 969781784 842900790 -173178284 1453562512 1606655852 1913819747 723498069 -647160570 -1878217589 471936226 -1648201726 -338361257 -1134980474 701915071 1088145210 55803740 2082114433 2021665932 -389680736 923341583 -2032041699 1772608653 675516818 1672443671
REM
CELL 1.54180   50.00000   50.00000   50.00000   90.00000   90.00000   90.00000
LATT -1
SFAC C  
C      1  0.4308110000000  0.5708830000000  0.4455110000000 1.0
C      1  0.5243750000000  0.4881160000000  0.4583040000000 1.0
C      1  0.5290670000000  0.5703200000000  0.4377520000000 1.0
C      1  0.5765450000000  0.4951590000000  0.5642040000000 1.0
C      1  0.4919710000000  0.5530500000000  0.5746770000000 1.0
C      1  0.4592430000000  0.5157360000000  0.4219990000000 1.0
C      1  0.4148180000000  0.5265140000000  0.4413780000000 1.0
C      1  0.5303340000000  0.4844390000000  0.5048690000000 1.0
C      1  0.5654220000000  0.5309380000000  0.5371240000000 1.0
C      1  0.5342350000000  0.4656180000000  0.5922380000000 1.0
C      1  0.4441470000000  0.4462370000000  0.4732230000000 1.0
C      1  0.4222680000000  0.4511380000000  0.5332470000000 1.0
C      1  0.4992170000000  0.4142350000000  0.4602330000000 1.0
C      1  0.4524710000000  0.5722010000000  0.4906810000000 1.0
C      1  0.4084230000000  0.4757240000000  0.4938560000000 1.0
C      1  0.5994890000000  0.5138540000000  0.4652970000000 1.0
C      1  0.5126710000000  0.4842580000000  0.5975290000000 1.0
C      1  0.4332650000000  0.5454130000000  0.5292220000000 1.0
C      1  0.5938760000000  0.5287900000000  0.5379890000000 1.0
C      1  0.5349860000000  0.5124720000000  0.4191410000000 1.0
C      1  0.5374380000000  0.5814430000000  0.5173630000000 1.0
C      1  0.4864850000000  0.4543240000000  0.4925610000000 1.0
C      1  0.6014400000000  0.4687720000000  0.4854180000000 1.0
C      1  0.5010560000000  0.4744740000000  0.4082480000000 1.0
C      1  0.4495340000000  0.4187750000000  0.4695850000000 1.0
C      1  0.5460540000000  0.4937220000000  0.4388090000000 1.0
C      1  0.5021620000000  0.5213200000000  0.5170790000000 1.0
C      1  0.4974760000000  0.5711740000000  0.4826980000000 1.0
C      1  0.5013240000000  0.4323960000000  0.4376220000000 1.0
C      1  0.4103450000000  0.5014990000000  0.4535820000000 1.0
C      1  0.5163970000000  0.4103360000000  0.4838350000000 1.0
C      1  0.5268700000000  0.5114280000000  0.5118560000000 1.0
C      1  0.5281670000000  0.5398770000000  0.4305850000000 1.0
C      1  0.4504640000000  0.4514050000000  0.5333610000000 1.0
C      1  0.5584170000000  0.4595930000000  0.4721330000000 1.0
C      1  0.4123310000000  0.5512730000000  0.4575310000000 1.0
C      1  0.5340950000000  0.4730460000000  0.4798140000000 1.0
C      1  0.4996360000000  0.5015440000000  0.4589260000000 1.0
C      1  0.4183450000000  0.4583990000000  0.4715440000000 1.0
C      1  0.5509240000000  0.5264030000000  0.5136370000000 1.0
C      1  0.4145150000000  0.5016880000000  0.4823650000000 1.0
C      1  0.4717850000000  0.4328110000000  0.5345140000000 1.0
C      1  0.5116160000000  0.4168420000000  0.5119270000000 1.0
C      1  0.5167330000000  0.4163330000000  0.5421790000000 1.0
C      1  0.5730350000000  0.4416930000000  0.5168860000000 1.0
C      1  0.4901240000000  0.5739300000000  0.5278700000000 1.0
C      1  0.4792890000000  0.5754110000000  0.5850830000000 1.0
C      1  0.4900600000000  0.4702340000000  0.6078990000000 1.0
C      1  0.5052540000000  0.5973930000000  0.4774290000000 1.0
C      1  0.5646560000000  0.4191410000000  0.5330410000000 1.0
C      1  0.5377380000000  0.5470090000000  0.4749740000000 1.0
C      1  0.5182140000000  0.5529480000000  0.5606150000000 1.0
C      1  0.5948130000000  0.4862880000000  0.4627050000000 1.0
C      1  0.4593940000000  0.4785230000000  0.5286130000000 1.0
C      1  0.5357290000000  0.4690600000000  0.5267930000000 1.0
C      1  0.4881350000000  0.4339480000000  0.5110290000000 1.0
C      1  0.5842390000000  0.5322980000000  0.4773140000000 1.0
C      1  0.6171600000000  0.4762610000000  0.5076220000000 1.0
C      1  0.4090780000000  0.5535190000000  0.4855930000000 1.0
C      1  0.5430350000000  0.4235670000000  0.5527300000000 1.0
C      1  0.4827680000000  0.5256220000000  0.5779210000000 1.0
C      1  0.5025310000000  0.5830450000000  0.4344180000000 1.0
C      1  0.4814180000000  0.4454990000000  0.6011510000000 1.0
C      1  0.5556990000000  0.5172020000000  0.5613810000000 1.0
C      1  0.4711480000000  0.4895420000000  0.5511770000000 1.0
C      1  0.5091350000000  0.5105720000000  0.5846700000000 1.0
C      1  0.4844480000000  0.4267970000000  0.5820850000000 1.0
C      1  0.5012590000000  0.5305140000000  0.4467390000000 1.0
C      1  0.5463640000000  0.5878730000000  0.4912020000000 1.0
C      1  0.4564780000000  0.4961730000000  0.5070490000000 1.0
C      1  0.5075470000000  0.5028950000000  0.4085130000000 1.0
C      1  0.4722740000000  0.4053050000000  0.4641010000000 1.0
C      1  0.5082230000000  0.5465830000000  0.4723800000000 1.0
C      1  0.4370050000000  0.5600380000000  0.4194400000000 1.0
C      1  0.4164730000000  0.4997960000000  0.5387260000000 1.0
C      1  0.4532030000000  0.5792260000000  0.4612870000000 1.0
C      1  0.5624800000000  0.4633150000000  0.5323370000000 1.0
C      1  0.4571160000000  0.4921170000000  0.4368830000000 1.0
C      1  0.4403150000000  0.4701940000000  0.4289370000000 1.0
C      1  0.4397110000000  0.5103830000000  0.4916770000000 1.0
C      1  0.4356780000000  0.5313060000000  0.4206020000000 1.0
C      1  0.4948070000000  0.4773660000000  0.5572980000000 1.0
C      1  0.5303410000000  0.5266540000000  0.5705160000000 1.0
C      1  0.5684750000000  0.4681700000000  0.5596990000000 1.0
C      1  0.4612700000000  0.5145000000000  0.5608750000000 1.0
C      1  0.4677750000000  0.4635300000000  0.4742450000000 1.0
C      1  0.4746620000000  0.4867080000000  0.4586170000000 1.0
C      1  0.5790990000000  0.4502380000000  0.4903950000000 1.0
C      1  0.4864690000000  0.5224230000000  0.4193690000000 1.0
C      1  0.4667810000000  0.5964750000000  0.5939670000000 1.0
C      1  0.4779750000000  0.5707160000000  0.5028190000000 1.0
C      1  0.4357540000000  0.5218300000000  0.5460660000000 1.0
C      1  0.6166500000000  0.4864800000000  0.5325300000000 1.0
C      1  0.5589680000000  0.5355720000000  0.4886340000000 1.0
C      1  0.4880550000000  0.4509920000000  0.4195450000000 1.0
C      1  0.4304230000000  0.5588200000000  0.5037930000000 1.0
C      1  0.4587220000000  0.4507560000000  0.4180960000000 1.0
C      1  0.5160490000000  0.4673420000000  0.5457560000000 1.0
C      1  0.4901390000000  0.4221650000000  0.5549700000000 1.0
C      1  0.5432290000000  0.5738460000000  0.4647100000000 1.0
C      1  0.4165440000000  0.4733120000000  0.4455200000000 1.0
C      1  0.4101020000000  0.4751290000000  0.5229410000000 1.0
C      1  0.5501370000000  0.4507060000000  0.5739720000000 1.0
C      1  0.5177060000000  0.5700320000000  0.5365040000000 1.0
C      1  0.4769590000000  0.5852870000000  0.4447750000000 1.0
C      1  0.6013290000000  0.5031900000000  0.5492410000000 1.0
C      1  0.5691130000000  0.4785680000000  0.4506280000000 1.0
END
