TITL C-247197-3123-626 2.84898611454653e-07 125000 -913.917767444357 0 0 149 (C1) n - 1
REM
REM in /home/nfs/bkarasulu/CARBON/AIRSS/Generating-Clusters/LCBOP/Only-C1/SD-CG/FIRE-HFTN
REM
REM
REM
REM
REM
REM ./C.cell (11c1c37f851c82e70ff6c80c92926a4b)
REM AIRSS Version 0.9.1 bugfix July 2018 build 013d7b7c2542+ Fri, 06 Jul 2018 19:26:36 +0100
REM compiler GCC version 9.2.1 20190827 (Red Hat 9.2.1-1)
REM options -cpp -mtune=generic -march=x86-64 -g -O0 -fpre-include=/usr/include/finclude/math-vector-fortran.h
REM seed -481217124 -1761588751 -468078370 1883141187 -448576107 1860235432 528121607 85515675 1886431650 -1774208070 1053394385 710617273 816236016 -822136683 75395274 -1749620935 -1174092552 -475057428 -1087172387 -2085065819 1591076361 1984424722 315072347 1699544282 1380939848 -927206459 -1839344540 -1856546039 -2093928321 -851289755 -113208933 1579043390 768525761
REM
CELL 1.54180   50.00000   50.00000   50.00000   90.00000   90.00000   90.00000
LATT -1
SFAC C  
C      1  0.4814360000000  0.5588170000000  0.4530900000000 1.0
C      1  0.5740910000000  0.6049660000000  0.4746280000000 1.0
C      1  0.5334010000000  0.5651050000000  0.4265450000000 1.0
C      1  0.4452480000000  0.4743620000000  0.5545980000000 1.0
C      1  0.4038330000000  0.4562430000000  0.4534760000000 1.0
C      1  0.5112610000000  0.4650570000000  0.5356720000000 1.0
C      1  0.4640180000000  0.4318450000000  0.5450800000000 1.0
C      1  0.4057950000000  0.5433270000000  0.5481220000000 1.0
C      1  0.5628930000000  0.5383120000000  0.5654550000000 1.0
C      1  0.4324270000000  0.5149320000000  0.5771720000000 1.0
C      1  0.4463510000000  0.5224690000000  0.4963240000000 1.0
C      1  0.4559370000000  0.4644410000000  0.3882230000000 1.0
C      1  0.5140410000000  0.5595780000000  0.5240800000000 1.0
C      1  0.5116360000000  0.5839100000000  0.4856070000000 1.0
C      1  0.5977070000000  0.4491840000000  0.4440770000000 1.0
C      1  0.4219650000000  0.5659650000000  0.5439660000000 1.0
C      1  0.5273280000000  0.6005790000000  0.4693510000000 1.0
C      1  0.5596430000000  0.5518060000000  0.4244260000000 1.0
C      1  0.3932810000000  0.4307330000000  0.4114510000000 1.0
C      1  0.6196960000000  0.4981680000000  0.4934310000000 1.0
C      1  0.4034980000000  0.4527590000000  0.4247650000000 1.0
C      1  0.4763090000000  0.4604980000000  0.5040130000000 1.0
C      1  0.5158430000000  0.5319980000000  0.5983040000000 1.0
C      1  0.5476270000000  0.6142450000000  0.4860440000000 1.0
C      1  0.5508390000000  0.4307430000000  0.5517190000000 1.0
C      1  0.4755540000000  0.4965820000000  0.6022540000000 1.0
C      1  0.4697320000000  0.5487620000000  0.5358040000000 1.0
C      1  0.6076960000000  0.4850540000000  0.5598990000000 1.0
C      1  0.4797830000000  0.4438360000000  0.5926660000000 1.0
C      1  0.5390080000000  0.5876550000000  0.4456540000000 1.0
C      1  0.5748870000000  0.4345110000000  0.4513890000000 1.0
C      1  0.4887540000000  0.5911300000000  0.5026230000000 1.0
C      1  0.4788010000000  0.3903160000000  0.4999020000000 1.0
C      1  0.4160310000000  0.4616300000000  0.5930000000000 1.0
C      1  0.5317790000000  0.5975010000000  0.5609870000000 1.0
C      1  0.5132460000000  0.4134770000000  0.5754950000000 1.0
C      1  0.4547720000000  0.5644100000000  0.5798420000000 1.0
C      1  0.5607680000000  0.4758750000000  0.5700060000000 1.0
C      1  0.4845860000000  0.4367400000000  0.4549940000000 1.0
C      1  0.4931260000000  0.5489400000000  0.6054300000000 1.0
C      1  0.5688130000000  0.4303130000000  0.5011390000000 1.0
C      1  0.4719070000000  0.4575660000000  0.4084940000000 1.0
C      1  0.6143340000000  0.5132520000000  0.5150680000000 1.0
C      1  0.5195650000000  0.4528560000000  0.4878600000000 1.0
C      1  0.5203040000000  0.5124310000000  0.5279230000000 1.0
C      1  0.4688240000000  0.5284650000000  0.5130090000000 1.0
C      1  0.4487140000000  0.4961390000000  0.4844720000000 1.0
C      1  0.4112100000000  0.4979550000000  0.5316020000000 1.0
C      1  0.4219970000000  0.4962970000000  0.4325480000000 1.0
C      1  0.5655530000000  0.5668450000000  0.5260450000000 1.0
C      1  0.5515960000000  0.4214140000000  0.4392200000000 1.0
C      1  0.4888430000000  0.5315920000000  0.5542350000000 1.0
C      1  0.5719840000000  0.5938920000000  0.5209140000000 1.0
C      1  0.5679910000000  0.4381320000000  0.5287330000000 1.0
C      1  0.4926740000000  0.5063660000000  0.4539430000000 1.0
C      1  0.5148090000000  0.4916030000000  0.4426950000000 1.0
C      1  0.5699510000000  0.5359450000000  0.4038040000000 1.0
C      1  0.4767160000000  0.4540370000000  0.4344640000000 1.0
C      1  0.5385870000000  0.5466210000000  0.5818860000000 1.0
C      1  0.5252930000000  0.4168750000000  0.5495510000000 1.0
C      1  0.4661860000000  0.5454550000000  0.5972770000000 1.0
C      1  0.5284360000000  0.4622960000000  0.5134880000000 1.0
C      1  0.5286200000000  0.4597940000000  0.4093510000000 1.0
C      1  0.4426520000000  0.5150840000000  0.4250410000000 1.0
C      1  0.4897890000000  0.4878660000000  0.4968170000000 1.0
C      1  0.4878100000000  0.5019550000000  0.5572860000000 1.0
C      1  0.5170180000000  0.4851890000000  0.4149320000000 1.0
C      1  0.6133030000000  0.4963810000000  0.4660570000000 1.0
C      1  0.4400930000000  0.4684600000000  0.5822030000000 1.0
C      1  0.5444040000000  0.5063900000000  0.5135020000000 1.0
C      1  0.4145200000000  0.5169370000000  0.5537620000000 1.0
C      1  0.4461380000000  0.4729020000000  0.5047150000000 1.0
C      1  0.4561170000000  0.5182780000000  0.5946250000000 1.0
C      1  0.5154170000000  0.4917000000000  0.5493620000000 1.0
C      1  0.4931860000000  0.5301040000000  0.4060710000000 1.0
C      1  0.6102040000000  0.4715350000000  0.4526680000000 1.0
C      1  0.5279120000000  0.5634740000000  0.4989140000000 1.0
C      1  0.4209760000000  0.4254940000000  0.5142010000000 1.0
C      1  0.4598420000000  0.3877560000000  0.4787420000000 1.0
C      1  0.5518030000000  0.4794750000000  0.5151360000000 1.0
C      1  0.5070980000000  0.4354510000000  0.5933610000000 1.0
C      1  0.4649030000000  0.5261310000000  0.4131660000000 1.0
C      1  0.4935150000000  0.5111770000000  0.5114630000000 1.0
C      1  0.5639570000000  0.4436860000000  0.4761380000000 1.0
C      1  0.4336340000000  0.3983050000000  0.4785940000000 1.0
C      1  0.5299400000000  0.6141980000000  0.5376320000000 1.0
C      1  0.5361510000000  0.4906500000000  0.5708680000000 1.0
C      1  0.5509750000000  0.5091460000000  0.4674860000000 1.0
C      1  0.5566200000000  0.5515180000000  0.4986430000000 1.0
C      1  0.4194360000000  0.5826090000000  0.4624190000000 1.0
C      1  0.5686050000000  0.5873390000000  0.4527870000000 1.0
C      1  0.5783200000000  0.5450370000000  0.5408200000000 1.0
C      1  0.5152550000000  0.5381030000000  0.5416910000000 1.0
C      1  0.4266300000000  0.5410050000000  0.4899880000000 1.0
C      1  0.5069540000000  0.5059300000000  0.3985030000000 1.0
C      1  0.5874030000000  0.5464070000000  0.4913790000000 1.0
C      1  0.3962180000000  0.5007950000000  0.5075970000000 1.0
C      1  0.5937720000000  0.5234220000000  0.4032780000000 1.0
C      1  0.5895140000000  0.5993110000000  0.4983100000000 1.0
C      1  0.4846770000000  0.4493510000000  0.5320690000000 1.0
C      1  0.4173470000000  0.4197670000000  0.4869700000000 1.0
C      1  0.5054230000000  0.6267050000000  0.5307620000000 1.0
C      1  0.5389760000000  0.4364510000000  0.4184190000000 1.0
C      1  0.3713940000000  0.4279800000000  0.4749770000000 1.0
C      1  0.4659440000000  0.4280240000000  0.5730400000000 1.0
C      1  0.5515400000000  0.4484770000000  0.5760020000000 1.0
C      1  0.3984510000000  0.4349120000000  0.4716010000000 1.0
C      1  0.5285550000000  0.4538050000000  0.5953250000000 1.0
C      1  0.5409450000000  0.4604420000000  0.4709980000000 1.0
C      1  0.5080490000000  0.4188760000000  0.5271270000000 1.0
C      1  0.5365200000000  0.4050500000000  0.4583030000000 1.0
C      1  0.3461860000000  0.4218430000000  0.4774170000000 1.0
C      1  0.5487600000000  0.6115540000000  0.5161860000000 1.0
C      1  0.6074570000000  0.5208510000000  0.4520430000000 1.0
C      1  0.4126890000000  0.5895830000000  0.5341390000000 1.0
C      1  0.5490820000000  0.5228450000000  0.4917880000000 1.0
C      1  0.4414330000000  0.5901070000000  0.4490660000000 1.0
C      1  0.5378500000000  0.4860190000000  0.4584500000000 1.0
C      1  0.5051010000000  0.5034790000000  0.6033600000000 1.0
C      1  0.4855500000000  0.4099250000000  0.4461550000000 1.0
C      1  0.4916680000000  0.4448910000000  0.4816770000000 1.0
C      1  0.4305520000000  0.4732370000000  0.3888720000000 1.0
C      1  0.4146950000000  0.5619110000000  0.4786710000000 1.0
C      1  0.4403030000000  0.4242900000000  0.5324210000000 1.0
C      1  0.5932480000000  0.5437020000000  0.4632580000000 1.0
C      1  0.4753430000000  0.4940570000000  0.4722970000000 1.0
C      1  0.4723970000000  0.3877150000000  0.4534660000000 1.0
C      1  0.5825840000000  0.4780840000000  0.5526170000000 1.0
C      1  0.5237230000000  0.4004120000000  0.4821760000000 1.0
C      1  0.5330940000000  0.5751770000000  0.5763850000000 1.0
C      1  0.3978050000000  0.4969400000000  0.4808520000000 1.0
C      1  0.3839710000000  0.4093120000000  0.3998970000000 1.0
C      1  0.5966350000000  0.5348650000000  0.5184260000000 1.0
C      1  0.4920670000000  0.5344960000000  0.4550850000000 1.0
C      1  0.5736480000000  0.4669660000000  0.5282440000000 1.0
C      1  0.4656050000000  0.4689900000000  0.5975950000000 1.0
C      1  0.6106210000000  0.5199010000000  0.4239280000000 1.0
C      1  0.4715770000000  0.4804880000000  0.5509150000000 1.0
C      1  0.5232350000000  0.4827540000000  0.5959420000000 1.0
C      1  0.4487520000000  0.5620660000000  0.5522550000000 1.0
C      1  0.5045710000000  0.4023680000000  0.5041960000000 1.0
C      1  0.5107420000000  0.5525580000000  0.4135590000000 1.0
C      1  0.4312470000000  0.4777100000000  0.5301000000000 1.0
C      1  0.4088470000000  0.4851830000000  0.4575470000000 1.0
C      1  0.5780750000000  0.5610040000000  0.4455670000000 1.0
C      1  0.4873180000000  0.6174290000000  0.5128090000000 1.0
C      1  0.4657950000000  0.5794050000000  0.4467510000000 1.0
C      1  0.4870060000000  0.5704460000000  0.5226120000000 1.0
C      1  0.4153290000000  0.4757920000000  0.4122400000000 1.0
END
