TITL C-247202-1916-142 245.681430701797 125000 -383.777962095592 0 0 65 (C1) n - 1
REM
REM in /home/nfs/bkarasulu/CARBON/AIRSS/Generating-Clusters/LCBOP/Only-C1/SD-CG/FIRE-HFTN
REM
REM
REM
REM
REM
REM ./C.cell (11c1c37f851c82e70ff6c80c92926a4b)
REM AIRSS Version 0.9.1 bugfix July 2018 build 013d7b7c2542+ Fri, 06 Jul 2018 19:26:36 +0100
REM compiler GCC version 9.2.1 20190827 (Red Hat 9.2.1-1)
REM options -cpp -mtune=generic -march=x86-64 -g -O0 -fpre-include=/usr/include/finclude/math-vector-fortran.h
REM seed -2039192108 795657435 -552853007 -52283234 -260031892 822138537 97812937 -1843417752 1709017962 765165538 2087352752 937209442 373737782 90765209 -1437499865 1992133913 -186513782 966944922 1385377062 -672200928 1112036142 1012361172 1020669317 -1530042341 723917360 -1259340408 -46649419 1026129904 129520805 1451664104 1774831086 -1290385767 -72272411
REM
CELL 1.54180   50.00000   50.00000   50.00000   90.00000   90.00000   90.00000
LATT -1
SFAC C  
C      1  0.5004900000000  0.4682850000000  0.5753010000000 1.0
C      1  0.4890150000000  0.5060630000000  0.4737960000000 1.0
C      1  0.5641460000000  0.5339640000000  0.4760680000000 1.0
C      1  0.5509970000000  0.5315510000000  0.4510840000000 1.0
C      1  0.4729120000000  0.5773290000000  0.5987380000000 1.0
C      1  0.5416710000000  0.4450530000000  0.5107770000000 1.0
C      1  0.4821790000000  0.4836710000000  0.5634350000000 1.0
C      1  0.5226840000000  0.4532150000000  0.5750020000000 1.0
C      1  0.5142900000000  0.4216010000000  0.4650400000000 1.0
C      1  0.5422840000000  0.5557110000000  0.5354660000000 1.0
C      1  0.5586380000000  0.4893210000000  0.5581350000000 1.0
C      1  0.4734030000000  0.5235300000000  0.4899340000000 1.0
C      1  0.4854690000000  0.4252010000000  0.5079910000000 1.0
C      1  0.4569750000000  0.4336620000000  0.5073950000000 1.0
C      1  0.4327910000000  0.5520720000000  0.4865010000000 1.0
C      1  0.5204070000000  0.4577580000000  0.4967030000000 1.0
C      1  0.4428360000000  0.4595080000000  0.4584850000000 1.0
C      1  0.4287150000000  0.4903500000000  0.5104560000000 1.0
C      1  0.5167540000000  0.4625880000000  0.4419260000000 1.0
C      1  0.5307000000000  0.4371140000000  0.4477410000000 1.0
C      1  0.4973990000000  0.5613030000000  0.4733900000000 1.0
C      1  0.5577610000000  0.4444460000000  0.4563950000000 1.0
C      1  0.4819190000000  0.4792400000000  0.4712150000000 1.0
C      1  0.5694540000000  0.4825350000000  0.4923800000000 1.0
C      1  0.4726810000000  0.5602100000000  0.5790800000000 1.0
C      1  0.5308420000000  0.4298170000000  0.5335350000000 1.0
C      1  0.4887380000000  0.4647370000000  0.4468510000000 1.0
C      1  0.5528550000000  0.5567090000000  0.4898080000000 1.0
C      1  0.4684040000000  0.5451200000000  0.4124940000000 1.0
C      1  0.5789940000000  0.5244790000000  0.5199260000000 1.0
C      1  0.4454320000000  0.5274160000000  0.4870970000000 1.0
C      1  0.5619100000000  0.4639510000000  0.5463980000000 1.0
C      1  0.5187290000000  0.5034180000000  0.4718690000000 1.0
C      1  0.5576210000000  0.5317800000000  0.5375750000000 1.0
C      1  0.5045240000000  0.5554660000000  0.5014200000000 1.0
C      1  0.4982970000000  0.5425560000000  0.4510630000000 1.0
C      1  0.4141920000000  0.6016630000000  0.4850970000000 1.0
C      1  0.5382010000000  0.5730360000000  0.5560340000000 1.0
C      1  0.5230300000000  0.5272470000000  0.4531650000000 1.0
C      1  0.4860060000000  0.5354500000000  0.5126550000000 1.0
C      1  0.4494070000000  0.4514500000000  0.5291200000000 1.0
C      1  0.4231960000000  0.5767430000000  0.4857460000000 1.0
C      1  0.5639030000000  0.4635130000000  0.5163820000000 1.0
C      1  0.4053780000000  0.6261910000000  0.4845090000000 1.0
C      1  0.4551020000000  0.5090500000000  0.4424650000000 1.0
C      1  0.5216740000000  0.4874740000000  0.4992980000000 1.0
C      1  0.4318150000000  0.5023800000000  0.4851030000000 1.0
C      1  0.4674230000000  0.4969190000000  0.5429690000000 1.0
C      1  0.4732540000000  0.5429640000000  0.5589810000000 1.0
C      1  0.4467910000000  0.4802940000000  0.5300620000000 1.0
C      1  0.5039470000000  0.4194450000000  0.5301240000000 1.0
C      1  0.4432690000000  0.4409630000000  0.4817790000000 1.0
C      1  0.5336420000000  0.4828760000000  0.4549080000000 1.0
C      1  0.5416680000000  0.4444940000000  0.5559800000000 1.0
C      1  0.4386770000000  0.4895090000000  0.4598070000000 1.0
C      1  0.5320410000000  0.5594700000000  0.5091380000000 1.0
C      1  0.5590620000000  0.4719610000000  0.4663800000000 1.0
C      1  0.5032820000000  0.4353960000000  0.4873880000000 1.0
C      1  0.4760360000000  0.4704040000000  0.4958990000000 1.0
C      1  0.4758290000000  0.5248470000000  0.5376480000000 1.0
C      1  0.4741300000000  0.5316920000000  0.4362430000000 1.0
C      1  0.5741310000000  0.5125360000000  0.4939800000000 1.0
C      1  0.5250330000000  0.4994780000000  0.5247070000000 1.0
C      1  0.4638080000000  0.4532150000000  0.4392560000000 1.0
C      1  0.5431560000000  0.5086090000000  0.5447050000000 1.0
END
