TITL C-247201-3759-671 -3.18424481571325e-08 125000 -709.804332993466 0 0 115 (C1) n - 1
REM
REM in /home/nfs/bkarasulu/CARBON/AIRSS/Generating-Clusters/LCBOP/Only-C1/SD-CG/FIRE-HFTN
REM
REM
REM
REM
REM
REM ./C.cell (11c1c37f851c82e70ff6c80c92926a4b)
REM AIRSS Version 0.9.1 bugfix July 2018 build 013d7b7c2542+ Fri, 06 Jul 2018 19:26:36 +0100
REM compiler GCC version 9.2.1 20190827 (Red Hat 9.2.1-1)
REM options -cpp -mtune=generic -march=x86-64 -g -O0 -fpre-include=/usr/include/finclude/math-vector-fortran.h
REM seed 109262620 1191999259 1446738191 -1634603346 203271751 -591804287 622235124 2067117141 -497541266 -178008955 963942599 2141961191 229284586 1151805390 934218995 -59383261 1178006614 -322591533 1358323705 2010834592 -10444107 -1662322444 -1804689114 1393861927 2097572507 265922823 -1627717469 1704612879 898902428 -1135983800 -1667007189 693531819 547005193
REM
CELL 1.54180   50.00000   50.00000   50.00000   90.00000   90.00000   90.00000
LATT -1
SFAC C  
C      1  0.5262600000000  0.5912520000000  0.4208050000000 1.0
C      1  0.3999700000000  0.4502140000000  0.5206770000000 1.0
C      1  0.5667970000000  0.5732780000000  0.5023390000000 1.0
C      1  0.4468370000000  0.5842100000000  0.4669890000000 1.0
C      1  0.5806930000000  0.4623150000000  0.5336760000000 1.0
C      1  0.5077560000000  0.3958670000000  0.5225950000000 1.0
C      1  0.4850260000000  0.4766290000000  0.4077520000000 1.0
C      1  0.5626370000000  0.4474520000000  0.5516340000000 1.0
C      1  0.5356730000000  0.3865510000000  0.4582570000000 1.0
C      1  0.4786750000000  0.5060050000000  0.4717280000000 1.0
C      1  0.4970790000000  0.4450970000000  0.5447220000000 1.0
C      1  0.5267990000000  0.4367180000000  0.4994840000000 1.0
C      1  0.4087970000000  0.5114720000000  0.4856970000000 1.0
C      1  0.4883650000000  0.4802660000000  0.4659320000000 1.0
C      1  0.4451270000000  0.5528390000000  0.3995180000000 1.0
C      1  0.5522890000000  0.5611670000000  0.4477030000000 1.0
C      1  0.5128970000000  0.5473670000000  0.5197820000000 1.0
C      1  0.5942180000000  0.5625750000000  0.5450470000000 1.0
C      1  0.5713970000000  0.5215780000000  0.5459330000000 1.0
C      1  0.5187010000000  0.5931980000000  0.4680650000000 1.0
C      1  0.4141470000000  0.4636190000000  0.5003770000000 1.0
C      1  0.4105580000000  0.5400250000000  0.4870680000000 1.0
C      1  0.5749870000000  0.4374360000000  0.4963610000000 1.0
C      1  0.5542880000000  0.5023350000000  0.6024080000000 1.0
C      1  0.4980280000000  0.5016620000000  0.4016680000000 1.0
C      1  0.5089850000000  0.5862950000000  0.4011210000000 1.0
C      1  0.3940990000000  0.4521710000000  0.4437410000000 1.0
C      1  0.5074890000000  0.4217550000000  0.5589950000000 1.0
C      1  0.4838580000000  0.4322810000000  0.5997100000000 1.0
C      1  0.5503430000000  0.4235960000000  0.5380220000000 1.0
C      1  0.5123490000000  0.5370180000000  0.4929570000000 1.0
C      1  0.5223220000000  0.5266840000000  0.5383030000000 1.0
C      1  0.4427750000000  0.4248610000000  0.4839620000000 1.0
C      1  0.5773450000000  0.5076640000000  0.4729800000000 1.0
C      1  0.4522370000000  0.4679560000000  0.5529400000000 1.0
C      1  0.5346040000000  0.5833990000000  0.4466260000000 1.0
C      1  0.5044440000000  0.5705000000000  0.5335000000000 1.0
C      1  0.5037570000000  0.4556100000000  0.4125720000000 1.0
C      1  0.5296210000000  0.5140150000000  0.6100800000000 1.0
C      1  0.5053660000000  0.5031350000000  0.5989290000000 1.0
C      1  0.5811090000000  0.5016240000000  0.5626450000000 1.0
C      1  0.4772030000000  0.4556470000000  0.4573790000000 1.0
C      1  0.4536900000000  0.4922160000000  0.5387300000000 1.0
C      1  0.4199710000000  0.4566080000000  0.4522350000000 1.0
C      1  0.5166850000000  0.4786390000000  0.4693690000000 1.0
C      1  0.4793190000000  0.5036820000000  0.5374000000000 1.0
C      1  0.4212160000000  0.5500120000000  0.5121200000000 1.0
C      1  0.4051980000000  0.5539510000000  0.4634900000000 1.0
C      1  0.4745510000000  0.4282700000000  0.4487470000000 1.0
C      1  0.5561300000000  0.5355520000000  0.4362360000000 1.0
C      1  0.4832180000000  0.4586400000000  0.5888510000000 1.0
C      1  0.4832890000000  0.5235460000000  0.3924120000000 1.0
C      1  0.5747150000000  0.5457330000000  0.5041990000000 1.0
C      1  0.4757530000000  0.5970500000000  0.4997630000000 1.0
C      1  0.5258280000000  0.4078730000000  0.5426710000000 1.0
C      1  0.4721240000000  0.5492480000000  0.3929850000000 1.0
C      1  0.4595780000000  0.4145850000000  0.5051380000000 1.0
C      1  0.4237020000000  0.5559780000000  0.4149540000000 1.0
C      1  0.5520560000000  0.4274270000000  0.5095710000000 1.0
C      1  0.5057490000000  0.4747720000000  0.5944930000000 1.0
C      1  0.4094220000000  0.5572210000000  0.4373790000000 1.0
C      1  0.5628460000000  0.5894100000000  0.5242210000000 1.0
C      1  0.5261420000000  0.4333190000000  0.4709970000000 1.0
C      1  0.5545580000000  0.4623680000000  0.5751530000000 1.0
C      1  0.4825040000000  0.4017310000000  0.5129920000000 1.0
C      1  0.4517720000000  0.4152730000000  0.4587600000000 1.0
C      1  0.5268770000000  0.4915820000000  0.4920340000000 1.0
C      1  0.5345430000000  0.5189010000000  0.4896860000000 1.0
C      1  0.4284030000000  0.4548320000000  0.5592800000000 1.0
C      1  0.4579970000000  0.4742870000000  0.4162770000000 1.0
C      1  0.4231500000000  0.5295060000000  0.5317310000000 1.0
C      1  0.5172840000000  0.4820390000000  0.5173570000000 1.0
C      1  0.5115030000000  0.4536820000000  0.5196820000000 1.0
C      1  0.5299420000000  0.4608840000000  0.5885680000000 1.0
C      1  0.4769660000000  0.4580040000000  0.5607350000000 1.0
C      1  0.4972720000000  0.5657040000000  0.5612630000000 1.0
C      1  0.4971340000000  0.4141830000000  0.5842100000000 1.0
C      1  0.5280060000000  0.4598530000000  0.4270050000000 1.0
C      1  0.4962500000000  0.4115800000000  0.4425320000000 1.0
C      1  0.4892830000000  0.5713640000000  0.3912500000000 1.0
C      1  0.5508500000000  0.3655570000000  0.4610900000000 1.0
C      1  0.5846980000000  0.4629600000000  0.5050340000000 1.0
C      1  0.5873080000000  0.5389970000000  0.5296880000000 1.0
C      1  0.4576600000000  0.5726540000000  0.5385460000000 1.0
C      1  0.4468280000000  0.5897390000000  0.4951320000000 1.0
C      1  0.4310470000000  0.5029250000000  0.5264030000000 1.0
C      1  0.5288640000000  0.5348950000000  0.6277210000000 1.0
C      1  0.5674140000000  0.4871730000000  0.5822000000000 1.0
C      1  0.5459380000000  0.5339530000000  0.5524680000000 1.0
C      1  0.4379480000000  0.4683250000000  0.4333890000000 1.0
C      1  0.5699210000000  0.5781240000000  0.5497470000000 1.0
C      1  0.4734410000000  0.5780160000000  0.4581920000000 1.0
C      1  0.4900700000000  0.5320030000000  0.4747370000000 1.0
C      1  0.5872710000000  0.4845630000000  0.4867420000000 1.0
C      1  0.4632100000000  0.5381690000000  0.5818880000000 1.0
C      1  0.4376210000000  0.5727250000000  0.5167600000000 1.0
C      1  0.5200250000000  0.4094170000000  0.4572840000000 1.0
C      1  0.5676310000000  0.4894640000000  0.4282000000000 1.0
C      1  0.5715900000000  0.5120430000000  0.4451540000000 1.0
C      1  0.4915650000000  0.5936860000000  0.4755330000000 1.0
C      1  0.5621530000000  0.5253530000000  0.4893460000000 1.0
C      1  0.4378750000000  0.5353320000000  0.5919600000000 1.0
C      1  0.4813710000000  0.5512930000000  0.4562120000000 1.0
C      1  0.4183460000000  0.4915390000000  0.5033250000000 1.0
C      1  0.5376840000000  0.5292640000000  0.4151870000000 1.0
C      1  0.5074550000000  0.5023720000000  0.5349560000000 1.0
C      1  0.5260230000000  0.5044720000000  0.4083050000000 1.0
C      1  0.4262660000000  0.4485480000000  0.4796890000000 1.0
C      1  0.5499140000000  0.5612260000000  0.5619220000000 1.0
C      1  0.4063990000000  0.4465600000000  0.5464750000000 1.0
C      1  0.4817760000000  0.5852410000000  0.5246990000000 1.0
C      1  0.4839240000000  0.5203400000000  0.5909580000000 1.0
C      1  0.4688680000000  0.5591320000000  0.5632570000000 1.0
C      1  0.5425210000000  0.4821860000000  0.4171570000000 1.0
C      1  0.5279910000000  0.4569100000000  0.4554880000000 1.0
END
