TITL C-247198-3593-503 0.167516653556007 125000 -538.472439120415 0 0 90 (C1) n - 1
REM
REM in /home/nfs/bkarasulu/CARBON/AIRSS/Generating-Clusters/LCBOP/Only-C1/SD-CG/FIRE-HFTN
REM
REM
REM
REM
REM
REM ./C.cell (11c1c37f851c82e70ff6c80c92926a4b)
REM AIRSS Version 0.9.1 bugfix July 2018 build 013d7b7c2542+ Fri, 06 Jul 2018 19:26:36 +0100
REM compiler GCC version 9.2.1 20190827 (Red Hat 9.2.1-1)
REM options -cpp -mtune=generic -march=x86-64 -g -O0 -fpre-include=/usr/include/finclude/math-vector-fortran.h
REM seed -2147272528 -284772884 1175335821 -2066757490 511198549 -670210276 -46494532 1070439833 971752440 808769819 -893027788 232960297 883375553 544956689 -694848942 410700105 1897132228 -696658154 -723068980 789994194 -1641014264 -1435223495 722148958 -1027502034 901056217 430643514 109895460 -205229052 -307171051 -956713603 -1662213014 2036479076 -1124950073
REM
CELL 1.54180   50.00000   50.00000   50.00000   90.00000   90.00000   90.00000
LATT -1
SFAC C  
C      1  0.4729510000000  0.5618030000000  0.4326900000000 1.0
C      1  0.4835640000000  0.5819990000000  0.4945090000000 1.0
C      1  0.5575640000000  0.4940220000000  0.5434010000000 1.0
C      1  0.5022240000000  0.4264410000000  0.4478230000000 1.0
C      1  0.3539130000000  0.4271260000000  0.5312070000000 1.0
C      1  0.4867620000000  0.5313030000000  0.3668530000000 1.0
C      1  0.4840650000000  0.6332430000000  0.5078760000000 1.0
C      1  0.5430750000000  0.5002480000000  0.4983070000000 1.0
C      1  0.4237660000000  0.4427440000000  0.4945930000000 1.0
C      1  0.5223750000000  0.5193700000000  0.6222820000000 1.0
C      1  0.4970960000000  0.4397460000000  0.4220730000000 1.0
C      1  0.5001410000000  0.5358420000000  0.3449550000000 1.0
C      1  0.5275260000000  0.4419350000000  0.5125640000000 1.0
C      1  0.4814470000000  0.4175150000000  0.4657600000000 1.0
C      1  0.4677040000000  0.5891760000000  0.4321810000000 1.0
C      1  0.5434030000000  0.5160350000000  0.4399100000000 1.0
C      1  0.5657820000000  0.5147130000000  0.5598190000000 1.0
C      1  0.4825560000000  0.5561370000000  0.4846000000000 1.0
C      1  0.4970780000000  0.4726050000000  0.5344440000000 1.0
C      1  0.5656950000000  0.4902900000000  0.4837720000000 1.0
C      1  0.6227520000000  0.5473190000000  0.5283020000000 1.0
C      1  0.4984010000000  0.4674540000000  0.4804720000000 1.0
C      1  0.4665250000000  0.4205320000000  0.4882980000000 1.0
C      1  0.6468960000000  0.5561720000000  0.5325260000000 1.0
C      1  0.4476350000000  0.4442240000000  0.4258380000000 1.0
C      1  0.4839060000000  0.6850600000000  0.5190380000000 1.0
C      1  0.5208820000000  0.5211720000000  0.4576820000000 1.0
C      1  0.4695760000000  0.5461580000000  0.4095960000000 1.0
C      1  0.4252730000000  0.4588660000000  0.4710660000000 1.0
C      1  0.5534030000000  0.4476580000000  0.5715120000000 1.0
C      1  0.5966000000000  0.5378950000000  0.5241340000000 1.0
C      1  0.4303690000000  0.4469870000000  0.4460770000000 1.0
C      1  0.5645780000000  0.4667900000000  0.4681050000000 1.0
C      1  0.4269490000000  0.4869470000000  0.4730190000000 1.0
C      1  0.5476670000000  0.4523330000000  0.4501480000000 1.0
C      1  0.4777470000000  0.5229470000000  0.6419270000000 1.0
C      1  0.4823710000000  0.5321150000000  0.5012500000000 1.0
C      1  0.5514800000000  0.5517980000000  0.5820030000000 1.0
C      1  0.5433010000000  0.4929670000000  0.4232530000000 1.0
C      1  0.5408160000000  0.4646890000000  0.4248030000000 1.0
C      1  0.5088850000000  0.4469050000000  0.5332970000000 1.0
C      1  0.5161000000000  0.4822340000000  0.5903500000000 1.0
C      1  0.4437840000000  0.5077560000000  0.4753480000000 1.0
C      1  0.4715360000000  0.4790010000000  0.5214040000000 1.0
C      1  0.4733630000000  0.5097220000000  0.4813180000000 1.0
C      1  0.4885410000000  0.5204910000000  0.5274150000000 1.0
C      1  0.5620340000000  0.4380620000000  0.5479160000000 1.0
C      1  0.4640610000000  0.5043350000000  0.5338890000000 1.0
C      1  0.5101010000000  0.4992570000000  0.5330190000000 1.0
C      1  0.5370220000000  0.4971680000000  0.5251040000000 1.0
C      1  0.4787390000000  0.4822700000000  0.4938240000000 1.0
C      1  0.3761350000000  0.4318390000000  0.5184180000000 1.0
C      1  0.3989300000000  0.4367680000000  0.5058520000000 1.0
C      1  0.5351820000000  0.4617070000000  0.5852530000000 1.0
C      1  0.4728010000000  0.5259170000000  0.3904620000000 1.0
C      1  0.4868880000000  0.4948510000000  0.4374170000000 1.0
C      1  0.5903330000000  0.5294380000000  0.4975560000000 1.0
C      1  0.4913080000000  0.4291620000000  0.5751310000000 1.0
C      1  0.5800970000000  0.5143240000000  0.4757110000000 1.0
C      1  0.5691870000000  0.5240650000000  0.4509230000000 1.0
C      1  0.5286520000000  0.5200030000000  0.4846790000000 1.0
C      1  0.5693360000000  0.5600700000000  0.5624460000000 1.0
C      1  0.4510740000000  0.4502150000000  0.5607410000000 1.0
C      1  0.5179990000000  0.4475850000000  0.4870370000000 1.0
C      1  0.4840240000000  0.6074280000000  0.5018980000000 1.0
C      1  0.5041990000000  0.5273880000000  0.6401680000000 1.0
C      1  0.4630340000000  0.5072830000000  0.6258030000000 1.0
C      1  0.5050720000000  0.4264630000000  0.5522230000000 1.0
C      1  0.4630130000000  0.6148120000000  0.4323680000000 1.0
C      1  0.4839950000000  0.6591420000000  0.5134860000000 1.0
C      1  0.4478840000000  0.4324020000000  0.5066100000000 1.0
C      1  0.4748330000000  0.4519700000000  0.5775700000000 1.0
C      1  0.4994090000000  0.4751750000000  0.4536270000000 1.0
C      1  0.5283280000000  0.5082270000000  0.5970100000000 1.0
C      1  0.4818620000000  0.5490530000000  0.4562110000000 1.0
C      1  0.4723800000000  0.4543510000000  0.4170010000000 1.0
C      1  0.4870040000000  0.4753940000000  0.5902770000000 1.0
C      1  0.4896890000000  0.5194760000000  0.4547000000000 1.0
C      1  0.4415270000000  0.4905290000000  0.3798950000000 1.0
C      1  0.4513280000000  0.4369930000000  0.5348940000000 1.0
C      1  0.5265400000000  0.4361650000000  0.4619960000000 1.0
C      1  0.5793900000000  0.5376760000000  0.5469450000000 1.0
C      1  0.4739730000000  0.4835010000000  0.4151150000000 1.0
C      1  0.4625430000000  0.4996290000000  0.3949070000000 1.0
C      1  0.4838180000000  0.7105520000000  0.5244970000000 1.0
C      1  0.4273640000000  0.4606910000000  0.5698760000000 1.0
C      1  0.5475790000000  0.5229150000000  0.5816010000000 1.0
C      1  0.5532220000000  0.4357400000000  0.5224470000000 1.0
C      1  0.4691470000000  0.4910830000000  0.6054770000000 1.0
C      1  0.5209360000000  0.4504410000000  0.4102160000000 1.0
END
