TITL C-247199-3331-251 1.92082628090706e-06 125000 -776.47417944461 0 0 129 (C1) n - 1
REM
REM in /home/nfs/bkarasulu/CARBON/AIRSS/Generating-Clusters/LCBOP/Only-C1/SD-CG/FIRE-HFTN
REM
REM
REM
REM
REM
REM ./C.cell (11c1c37f851c82e70ff6c80c92926a4b)
REM AIRSS Version 0.9.1 bugfix July 2018 build 013d7b7c2542+ Fri, 06 Jul 2018 19:26:36 +0100
REM compiler GCC version 9.2.1 20190827 (Red Hat 9.2.1-1)
REM options -cpp -mtune=generic -march=x86-64 -g -O0 -fpre-include=/usr/include/finclude/math-vector-fortran.h
REM seed -2003872397 -687724247 -944581745 -952166780 -336184546 -1853988935 -1665323304 -1165162477 -188487580 -1653390268 -2020361673 1321088374 -453961618 2133293718 2079797544 -375910429 -954611713 -1465373705 -1126555261 -1281801484 -945661444 -1942954483 1761242604 -104813274 -1049273568 961976079 942840600 -154132502 1135132818 -355433314 48018770 -1594447795 1366073222
REM
CELL 1.54180   50.00000   50.00000   50.00000   90.00000   90.00000   90.00000
LATT -1
SFAC C  
C      1  0.5264930000000  0.4306930000000  0.5950560000000 1.0
C      1  0.4410800000000  0.5525370000000  0.5456860000000 1.0
C      1  0.4396540000000  0.5832590000000  0.3942500000000 1.0
C      1  0.4859680000000  0.5787800000000  0.5836220000000 1.0
C      1  0.4966060000000  0.5805810000000  0.5573190000000 1.0
C      1  0.5575510000000  0.4799290000000  0.5888930000000 1.0
C      1  0.4805370000000  0.5201810000000  0.5291510000000 1.0
C      1  0.5389690000000  0.5038340000000  0.4126050000000 1.0
C      1  0.5380810000000  0.4253840000000  0.4162390000000 1.0
C      1  0.4778060000000  0.4176890000000  0.5399780000000 1.0
C      1  0.5369150000000  0.4897950000000  0.4630870000000 1.0
C      1  0.5254810000000  0.5386510000000  0.5630450000000 1.0
C      1  0.4210330000000  0.4498090000000  0.4938750000000 1.0
C      1  0.5185340000000  0.4223220000000  0.4598860000000 1.0
C      1  0.4781110000000  0.4325140000000  0.5889620000000 1.0
C      1  0.5155410000000  0.4587480000000  0.6007140000000 1.0
C      1  0.4182390000000  0.5002620000000  0.4370320000000 1.0
C      1  0.4722890000000  0.4840130000000  0.6031160000000 1.0
C      1  0.5059760000000  0.5913630000000  0.4520010000000 1.0
C      1  0.5187980000000  0.5138220000000  0.3948520000000 1.0
C      1  0.5278110000000  0.4921320000000  0.4361210000000 1.0
C      1  0.4446100000000  0.4817470000000  0.5933410000000 1.0
C      1  0.5766510000000  0.5456150000000  0.4502120000000 1.0
C      1  0.3953730000000  0.5128150000000  0.5010930000000 1.0
C      1  0.5117460000000  0.5259100000000  0.5881880000000 1.0
C      1  0.4140330000000  0.5195390000000  0.6092170000000 1.0
C      1  0.4514730000000  0.5774240000000  0.5361310000000 1.0
C      1  0.4763590000000  0.5880230000000  0.5385480000000 1.0
C      1  0.4384830000000  0.4296340000000  0.5051670000000 1.0
C      1  0.5576070000000  0.4073390000000  0.4130110000000 1.0
C      1  0.5156380000000  0.4881960000000  0.4824130000000 1.0
C      1  0.5250560000000  0.5673470000000  0.5193960000000 1.0
C      1  0.4752580000000  0.5366230000000  0.4186860000000 1.0
C      1  0.5190460000000  0.4349930000000  0.4346940000000 1.0
C      1  0.4929320000000  0.4230930000000  0.5639670000000 1.0
C      1  0.4653000000000  0.4971440000000  0.4816720000000 1.0
C      1  0.5711340000000  0.4370510000000  0.5444740000000 1.0
C      1  0.4562440000000  0.4682560000000  0.5246750000000 1.0
C      1  0.5694880000000  0.3877780000000  0.4270540000000 1.0
C      1  0.5301110000000  0.4031350000000  0.4745500000000 1.0
C      1  0.5665250000000  0.5711700000000  0.4935060000000 1.0
C      1  0.4668480000000  0.4977800000000  0.3945930000000 1.0
C      1  0.6044100000000  0.4316360000000  0.4716300000000 1.0
C      1  0.4237760000000  0.4591400000000  0.4670500000000 1.0
C      1  0.4198650000000  0.4982390000000  0.5924030000000 1.0
C      1  0.5741530000000  0.5663250000000  0.4668170000000 1.0
C      1  0.4751000000000  0.5725210000000  0.4823610000000 1.0
C      1  0.4267400000000  0.5557280000000  0.4572560000000 1.0
C      1  0.5655290000000  0.4951180000000  0.4613680000000 1.0
C      1  0.4571460000000  0.5244230000000  0.4762980000000 1.0
C      1  0.3951460000000  0.4911840000000  0.5200640000000 1.0
C      1  0.4383620000000  0.4601970000000  0.5738560000000 1.0
C      1  0.4593320000000  0.4157170000000  0.6001860000000 1.0
C      1  0.5229140000000  0.4218010000000  0.5674500000000 1.0
C      1  0.5186030000000  0.5424920000000  0.3924910000000 1.0
C      1  0.5906110000000  0.5690060000000  0.5359890000000 1.0
C      1  0.4337020000000  0.5334660000000  0.5253850000000 1.0
C      1  0.5899320000000  0.4597650000000  0.5416740000000 1.0
C      1  0.5148630000000  0.5460270000000  0.5034230000000 1.0
C      1  0.4568080000000  0.4695070000000  0.4333850000000 1.0
C      1  0.5671280000000  0.5071200000000  0.4169960000000 1.0
C      1  0.5932710000000  0.4759500000000  0.5181700000000 1.0
C      1  0.4162700000000  0.5325640000000  0.5024370000000 1.0
C      1  0.5235880000000  0.5436650000000  0.4769780000000 1.0
C      1  0.5815480000000  0.4743740000000  0.4475980000000 1.0
C      1  0.4584910000000  0.4192770000000  0.5207030000000 1.0
C      1  0.4306300000000  0.5367990000000  0.4775740000000 1.0
C      1  0.5028230000000  0.5232680000000  0.5133320000000 1.0
C      1  0.4738720000000  0.5458930000000  0.4834940000000 1.0
C      1  0.5155000000000  0.5388720000000  0.4524100000000 1.0
C      1  0.4854390000000  0.5116390000000  0.5970460000000 1.0
C      1  0.5815150000000  0.5559230000000  0.5130010000000 1.0
C      1  0.4859810000000  0.4577230000000  0.6039110000000 1.0
C      1  0.4082380000000  0.5389580000000  0.6256000000000 1.0
C      1  0.5972230000000  0.4750720000000  0.5651090000000 1.0
C      1  0.5190680000000  0.5667190000000  0.4050340000000 1.0
C      1  0.4595550000000  0.4727500000000  0.4055710000000 1.0
C      1  0.4258440000000  0.5499830000000  0.4298200000000 1.0
C      1  0.3842460000000  0.5089690000000  0.4753340000000 1.0
C      1  0.6159550000000  0.4127450000000  0.4853940000000 1.0
C      1  0.5399980000000  0.4736940000000  0.6108400000000 1.0
C      1  0.5401550000000  0.5828150000000  0.4988750000000 1.0
C      1  0.6064740000000  0.4545860000000  0.3799340000000 1.0
C      1  0.5797320000000  0.4937190000000  0.5779600000000 1.0
C      1  0.4556400000000  0.5198750000000  0.4079860000000 1.0
C      1  0.4774780000000  0.5863370000000  0.4579090000000 1.0
C      1  0.4007310000000  0.4864570000000  0.5729470000000 1.0
C      1  0.4967060000000  0.4948350000000  0.3920530000000 1.0
C      1  0.5932030000000  0.5018570000000  0.5100310000000 1.0
C      1  0.5661700000000  0.3779940000000  0.4518970000000 1.0
C      1  0.4537440000000  0.5826150000000  0.4421190000000 1.0
C      1  0.5154140000000  0.5839760000000  0.4257810000000 1.0
C      1  0.4949920000000  0.5364520000000  0.4361180000000 1.0
C      1  0.5494720000000  0.3847160000000  0.4718960000000 1.0
C      1  0.4626180000000  0.5655320000000  0.5883910000000 1.0
C      1  0.4530300000000  0.5444200000000  0.5715440000000 1.0
C      1  0.5244900000000  0.5935120000000  0.4754840000000 1.0
C      1  0.4548880000000  0.4897360000000  0.5072900000000 1.0
C      1  0.5460340000000  0.5221500000000  0.5495750000000 1.0
C      1  0.4881470000000  0.4828730000000  0.4709770000000 1.0
C      1  0.4683270000000  0.5206300000000  0.5746140000000 1.0
C      1  0.4823490000000  0.4669820000000  0.4471650000000 1.0
C      1  0.5708300000000  0.5175130000000  0.5642350000000 1.0
C      1  0.4517240000000  0.4592990000000  0.5493880000000 1.0
C      1  0.5471820000000  0.4246510000000  0.5513030000000 1.0
C      1  0.5973440000000  0.5817510000000  0.5576990000000 1.0
C      1  0.5826730000000  0.4821320000000  0.4193830000000 1.0
C      1  0.5017480000000  0.4562380000000  0.4284310000000 1.0
C      1  0.4542280000000  0.5147670000000  0.5209700000000 1.0
C      1  0.4320620000000  0.4758540000000  0.4455050000000 1.0
C      1  0.4038480000000  0.4656750000000  0.5103990000000 1.0
C      1  0.5927380000000  0.4518910000000  0.4591700000000 1.0
C      1  0.5882770000000  0.5284050000000  0.5089690000000 1.0
C      1  0.5714470000000  0.5191940000000  0.4439740000000 1.0
C      1  0.4957710000000  0.4837790000000  0.5576740000000 1.0
C      1  0.5400890000000  0.5018100000000  0.5285210000000 1.0
C      1  0.5953570000000  0.4687010000000  0.3988080000000 1.0
C      1  0.3936400000000  0.5050240000000  0.4504320000000 1.0
C      1  0.4304430000000  0.5223910000000  0.4217420000000 1.0
C      1  0.4821240000000  0.5076330000000  0.5535470000000 1.0
C      1  0.4403310000000  0.5732900000000  0.4193760000000 1.0
C      1  0.5184180000000  0.5641370000000  0.5480780000000 1.0
C      1  0.3916670000000  0.4956880000000  0.5479160000000 1.0
C      1  0.5152360000000  0.4702380000000  0.5715390000000 1.0
C      1  0.5422630000000  0.4720790000000  0.5650280000000 1.0
C      1  0.5471750000000  0.4765760000000  0.5381080000000 1.0
C      1  0.5197090000000  0.5010710000000  0.5082380000000 1.0
C      1  0.4996680000000  0.4683260000000  0.4031300000000 1.0
C      1  0.4096510000000  0.4586610000000  0.5723760000000 1.0
END
