TITL C-247202-1916-734 0.000156910235147298 125000 -233.798810659604 0 0 40 (C1) n - 1
REM
REM in /home/nfs/bkarasulu/CARBON/AIRSS/Generating-Clusters/LCBOP/Only-C1/SD-CG/FIRE-HFTN
REM
REM
REM
REM
REM
REM ./C.cell (11c1c37f851c82e70ff6c80c92926a4b)
REM AIRSS Version 0.9.1 bugfix July 2018 build 013d7b7c2542+ Fri, 06 Jul 2018 19:26:36 +0100
REM compiler GCC version 9.2.1 20190827 (Red Hat 9.2.1-1)
REM options -cpp -mtune=generic -march=x86-64 -g -O0 -fpre-include=/usr/include/finclude/math-vector-fortran.h
REM seed 1075413570 1304113166 1494666454 -2126014778 -435941857 170636893 1845078445 -807265144 -2046658894 2036422497 229694695 1328026700 131583292 -203810966 -96861664 -797000354 -593648765 1029497014 -1379812843 1980239158 10008967 -1203212043 -1058971669 -348944397 -429865908 56358817 -922904479 2147408772 765861925 9246680 636267087 481635101 2052203348
REM
CELL 1.54180   50.00000   50.00000   50.00000   90.00000   90.00000   90.00000
LATT -1
SFAC C  
C      1  0.4764150000000  0.4893680000000  0.4782800000000 1.0
C      1  0.6057530000000  0.4676110000000  0.5133390000000 1.0
C      1  0.4895710000000  0.4841230000000  0.4540640000000 1.0
C      1  0.5379450000000  0.4737200000000  0.4403620000000 1.0
C      1  0.5819450000000  0.5399070000000  0.4913940000000 1.0
C      1  0.5118150000000  0.4785820000000  0.4406200000000 1.0
C      1  0.4336690000000  0.4825270000000  0.5052090000000 1.0
C      1  0.4582300000000  0.5904520000000  0.4454260000000 1.0
C      1  0.4788550000000  0.5149510000000  0.5704500000000 1.0
C      1  0.4325700000000  0.4609420000000  0.5244520000000 1.0
C      1  0.5561030000000  0.5367690000000  0.4900020000000 1.0
C      1  0.4615310000000  0.5595700000000  0.5135940000000 1.0
C      1  0.4900950000000  0.5558690000000  0.4452120000000 1.0
C      1  0.4895170000000  0.5067930000000  0.4968640000000 1.0
C      1  0.5756340000000  0.4691520000000  0.4753070000000 1.0
C      1  0.5580740000000  0.4739640000000  0.5199020000000 1.0
C      1  0.4637690000000  0.4262820000000  0.5316220000000 1.0
C      1  0.5800080000000  0.4701710000000  0.5029240000000 1.0
C      1  0.5022540000000  0.5300760000000  0.4861430000000 1.0
C      1  0.6543840000000  0.4637340000000  0.5329070000000 1.0
C      1  0.4538990000000  0.5857040000000  0.4718770000000 1.0
C      1  0.4027430000000  0.5263890000000  0.5042100000000 1.0
C      1  0.5298950000000  0.5331720000000  0.4886250000000 1.0
C      1  0.5609650000000  0.4704060000000  0.4532120000000 1.0
C      1  0.4869410000000  0.5498540000000  0.4728640000000 1.0
C      1  0.4784720000000  0.5195780000000  0.5434780000000 1.0
C      1  0.4453800000000  0.4362230000000  0.5117260000000 1.0
C      1  0.4934630000000  0.4603880000000  0.5511100000000 1.0
C      1  0.4445120000000  0.4623550000000  0.5507820000000 1.0
C      1  0.4532270000000  0.4749240000000  0.4848940000000 1.0
C      1  0.4913020000000  0.5017770000000  0.5250520000000 1.0
C      1  0.4535870000000  0.4459080000000  0.4858650000000 1.0
C      1  0.6302610000000  0.4656270000000  0.5232060000000 1.0
C      1  0.5065690000000  0.4799190000000  0.5355380000000 1.0
C      1  0.5338420000000  0.4776850000000  0.5299950000000 1.0
C      1  0.4659290000000  0.5425360000000  0.5334950000000 1.0
C      1  0.4691330000000  0.4466340000000  0.5518210000000 1.0
C      1  0.4670640000000  0.5655670000000  0.4869870000000 1.0
C      1  0.4182150000000  0.5054440000000  0.5052310000000 1.0
C      1  0.4764630000000  0.5753470000000  0.4319560000000 1.0
END
