TITL C-247199-3331-215 -4.176235951884e-07 125000 -647.387125969774 0 0 108 (C1) n - 1
REM
REM in /home/nfs/bkarasulu/CARBON/AIRSS/Generating-Clusters/LCBOP/Only-C1/SD-CG/FIRE-HFTN
REM
REM
REM
REM
REM
REM ./C.cell (11c1c37f851c82e70ff6c80c92926a4b)
REM AIRSS Version 0.9.1 bugfix July 2018 build 013d7b7c2542+ Fri, 06 Jul 2018 19:26:36 +0100
REM compiler GCC version 9.2.1 20190827 (Red Hat 9.2.1-1)
REM options -cpp -mtune=generic -march=x86-64 -g -O0 -fpre-include=/usr/include/finclude/math-vector-fortran.h
REM seed 1053981950 -1854549928 -1916648107 -1610229080 1906073169 -1396183495 945321331 228924388 880743581 774629001 -1758989693 315371701 1918395482 -645940049 1398871355 2030709324 -1612073003 1717533676 -1625055880 67450306 -1423376782 1710539070 -1604423686 1818166283 329090021 -74942515 -1496924443 -1653542732 -947008716 1930717666 487530978 -603501503 892108485
REM
CELL 1.54180   50.00000   50.00000   50.00000   90.00000   90.00000   90.00000
LATT -1
SFAC C  
C      1  0.5553920000000  0.4162910000000  0.4495030000000 1.0
C      1  0.4329930000000  0.5100760000000  0.5439310000000 1.0
C      1  0.4359700000000  0.4468630000000  0.5136750000000 1.0
C      1  0.4418430000000  0.4511880000000  0.4651820000000 1.0
C      1  0.4963180000000  0.4983890000000  0.4517870000000 1.0
C      1  0.4733930000000  0.5113040000000  0.5856880000000 1.0
C      1  0.5057300000000  0.5299290000000  0.4019920000000 1.0
C      1  0.5037510000000  0.4628560000000  0.5229850000000 1.0
C      1  0.4704810000000  0.4834100000000  0.4911490000000 1.0
C      1  0.5479570000000  0.5802620000000  0.4987420000000 1.0
C      1  0.4906230000000  0.5825760000000  0.4759210000000 1.0
C      1  0.5232420000000  0.4570720000000  0.4565620000000 1.0
C      1  0.5121770000000  0.5399360000000  0.4663660000000 1.0
C      1  0.5413880000000  0.5764560000000  0.4704430000000 1.0
C      1  0.6014280000000  0.5054060000000  0.5233430000000 1.0
C      1  0.5817970000000  0.5223600000000  0.5693680000000 1.0
C      1  0.5678270000000  0.4585580000000  0.5237270000000 1.0
C      1  0.5602390000000  0.4888690000000  0.4413320000000 1.0
C      1  0.4828780000000  0.5450490000000  0.5022240000000 1.0
C      1  0.5532710000000  0.4912510000000  0.4138910000000 1.0
C      1  0.4875020000000  0.3993150000000  0.5422760000000 1.0
C      1  0.4986780000000  0.4486780000000  0.4430780000000 1.0
C      1  0.5608590000000  0.5616970000000  0.5171050000000 1.0
C      1  0.5489220000000  0.5553580000000  0.5437130000000 1.0
C      1  0.5594940000000  0.4566160000000  0.5522360000000 1.0
C      1  0.4361900000000  0.5711300000000  0.5122030000000 1.0
C      1  0.5081060000000  0.4123950000000  0.4737790000000 1.0
C      1  0.5717370000000  0.4375550000000  0.4455620000000 1.0
C      1  0.4216950000000  0.4856300000000  0.5407740000000 1.0
C      1  0.5434590000000  0.5470890000000  0.5924680000000 1.0
C      1  0.4214170000000  0.5406340000000  0.4697920000000 1.0
C      1  0.5052960000000  0.4933000000000  0.5229460000000 1.0
C      1  0.4584040000000  0.5835210000000  0.5737290000000 1.0
C      1  0.6006990000000  0.5275960000000  0.5050330000000 1.0
C      1  0.5041600000000  0.3941900000000  0.5201820000000 1.0
C      1  0.4554040000000  0.5051910000000  0.4991500000000 1.0
C      1  0.5818210000000  0.4841250000000  0.5169470000000 1.0
C      1  0.4594570000000  0.4850190000000  0.5833910000000 1.0
C      1  0.4352260000000  0.5494790000000  0.4930010000000 1.0
C      1  0.5476120000000  0.4497890000000  0.5034520000000 1.0
C      1  0.5544250000000  0.5718820000000  0.4454050000000 1.0
C      1  0.4908220000000  0.5356550000000  0.5846520000000 1.0
C      1  0.5055310000000  0.4546580000000  0.5518160000000 1.0
C      1  0.5215760000000  0.4405990000000  0.5116160000000 1.0
C      1  0.5729380000000  0.4721000000000  0.5720380000000 1.0
C      1  0.5459800000000  0.5055950000000  0.5363820000000 1.0
C      1  0.5219910000000  0.4657010000000  0.6155210000000 1.0
C      1  0.5448370000000  0.5600420000000  0.4227350000000 1.0
C      1  0.5842800000000  0.5490070000000  0.5073400000000 1.0
C      1  0.4934110000000  0.5526690000000  0.5595750000000 1.0
C      1  0.5426180000000  0.5027240000000  0.4895330000000 1.0
C      1  0.5044760000000  0.5313110000000  0.4923800000000 1.0
C      1  0.5109920000000  0.4154150000000  0.5024060000000 1.0
C      1  0.4746740000000  0.4860200000000  0.4116510000000 1.0
C      1  0.4755120000000  0.4839540000000  0.4638300000000 1.0
C      1  0.4841770000000  0.5060850000000  0.5375820000000 1.0
C      1  0.4171340000000  0.5169310000000  0.4539810000000 1.0
C      1  0.4773600000000  0.4173500000000  0.5593040000000 1.0
C      1  0.5249090000000  0.5065450000000  0.5813950000000 1.0
C      1  0.5376500000000  0.4768180000000  0.3974440000000 1.0
C      1  0.4795360000000  0.4614580000000  0.5062570000000 1.0
C      1  0.4307730000000  0.5097650000000  0.4290300000000 1.0
C      1  0.4612790000000  0.5773790000000  0.5256910000000 1.0
C      1  0.4587800000000  0.4637880000000  0.5618020000000 1.0
C      1  0.5204680000000  0.5443970000000  0.5480850000000 1.0
C      1  0.5760520000000  0.4971440000000  0.5819660000000 1.0
C      1  0.4494360000000  0.4876290000000  0.4265090000000 1.0
C      1  0.5440720000000  0.5036090000000  0.4605890000000 1.0
C      1  0.6019150000000  0.5165980000000  0.5497980000000 1.0
C      1  0.4752410000000  0.6002200000000  0.4610780000000 1.0
C      1  0.5747440000000  0.4645770000000  0.4463510000000 1.0
C      1  0.4531990000000  0.4723620000000  0.4499960000000 1.0
C      1  0.5325860000000  0.4493450000000  0.5590330000000 1.0
C      1  0.4527790000000  0.4252270000000  0.5018370000000 1.0
C      1  0.5275280000000  0.5157570000000  0.5542230000000 1.0
C      1  0.4874380000000  0.5099750000000  0.4019680000000 1.0
C      1  0.5185730000000  0.5158810000000  0.4523410000000 1.0
C      1  0.5242720000000  0.4832990000000  0.5963990000000 1.0
C      1  0.4605470000000  0.4296700000000  0.4732330000000 1.0
C      1  0.4249930000000  0.5250140000000  0.4062400000000 1.0
C      1  0.4711150000000  0.5708710000000  0.5526750000000 1.0
C      1  0.4246700000000  0.4587230000000  0.4882060000000 1.0
C      1  0.4842550000000  0.5753710000000  0.5055460000000 1.0
C      1  0.5140720000000  0.3690210000000  0.5160050000000 1.0
C      1  0.5319890000000  0.4064600000000  0.4590110000000 1.0
C      1  0.4806350000000  0.4451720000000  0.5616270000000 1.0
C      1  0.5052540000000  0.5924630000000  0.5189100000000 1.0
C      1  0.4056490000000  0.4785420000000  0.4828920000000 1.0
C      1  0.3463930000000  0.5027260000000  0.4485810000000 1.0
C      1  0.5421290000000  0.4567120000000  0.4761870000000 1.0
C      1  0.5261970000000  0.5463320000000  0.4086530000000 1.0
C      1  0.4380990000000  0.4620080000000  0.5395980000000 1.0
C      1  0.5626220000000  0.5452020000000  0.5695000000000 1.0
C      1  0.4593770000000  0.6158570000000  0.4475580000000 1.0
C      1  0.4441290000000  0.4785410000000  0.6057890000000 1.0
C      1  0.5185010000000  0.5317490000000  0.5950860000000 1.0
C      1  0.4594570000000  0.5153840000000  0.5430500000000 1.0
C      1  0.4203680000000  0.5395370000000  0.3851030000000 1.0
C      1  0.5150970000000  0.4622500000000  0.3990300000000 1.0
C      1  0.4575790000000  0.5327930000000  0.4984840000000 1.0
C      1  0.3710720000000  0.5004890000000  0.4566510000000 1.0
C      1  0.4930030000000  0.4627090000000  0.4172160000000 1.0
C      1  0.4866750000000  0.4276730000000  0.4606090000000 1.0
C      1  0.5586890000000  0.5003180000000  0.5120530000000 1.0
C      1  0.5306530000000  0.5981370000000  0.5122930000000 1.0
C      1  0.3977450000000  0.4984970000000  0.4646520000000 1.0
C      1  0.5138340000000  0.5681160000000  0.4662880000000 1.0
C      1  0.5164030000000  0.5077810000000  0.5011090000000 1.0
END
