TITL C-247196-3112-69 0.00436287238888514 125000 -372.722203316054 0 0 63 (C1) n - 1
REM
REM in /home/nfs/bkarasulu/CARBON/AIRSS/Generating-Clusters/LCBOP/Only-C1/SD-CG/FIRE-HFTN
REM
REM
REM
REM
REM
REM ./C.cell (11c1c37f851c82e70ff6c80c92926a4b)
REM AIRSS Version 0.9.1 bugfix July 2018 build 013d7b7c2542+ Fri, 06 Jul 2018 19:26:36 +0100
REM compiler GCC version 9.2.1 20190827 (Red Hat 9.2.1-1)
REM options -cpp -mtune=generic -march=x86-64 -g -O0 -fpre-include=/usr/include/finclude/math-vector-fortran.h
REM seed -833235517 932840638 1646962596 -230213678 62439586 -1883642573 1341357390 -69235511 -1275199764 132923018 1767372730 -1229375848 -1265943812 984794613 -1274993979 -452556465 -1036750908 1262902074 899154851 1307504446 1396478264 1237626152 60417669 674596196 422057841 191229213 -1506958418 901516081 -1561126849 1805392701 26625463 1981022121 -1873921424
REM
CELL 1.54180   50.00000   50.00000   50.00000   90.00000   90.00000   90.00000
LATT -1
SFAC C  
C      1  0.4936270000000  0.4553890000000  0.5587720000000 1.0
C      1  0.5340500000000  0.4841130000000  0.5496900000000 1.0
C      1  0.4088960000000  0.5401120000000  0.4740100000000 1.0
C      1  0.4766020000000  0.5508140000000  0.4529670000000 1.0
C      1  0.5209370000000  0.4576550000000  0.5490830000000 1.0
C      1  0.5247760000000  0.5136910000000  0.4854610000000 1.0
C      1  0.5262120000000  0.4194800000000  0.5073790000000 1.0
C      1  0.4792630000000  0.4803810000000  0.5602990000000 1.0
C      1  0.4101370000000  0.4565140000000  0.5702390000000 1.0
C      1  0.5861500000000  0.5599860000000  0.5127090000000 1.0
C      1  0.4505830000000  0.4964770000000  0.5240390000000 1.0
C      1  0.4528730000000  0.4807410000000  0.5481110000000 1.0
C      1  0.4781040000000  0.4324650000000  0.5512070000000 1.0
C      1  0.5454360000000  0.5383490000000  0.5188910000000 1.0
C      1  0.4320460000000  0.4781230000000  0.4154690000000 1.0
C      1  0.5465930000000  0.4645330000000  0.5085730000000 1.0
C      1  0.5388030000000  0.5130430000000  0.5099380000000 1.0
C      1  0.5626970000000  0.5340010000000  0.5775340000000 1.0
C      1  0.3859740000000  0.5283620000000  0.5198090000000 1.0
C      1  0.4777420000000  0.4366780000000  0.5026850000000 1.0
C      1  0.5218670000000  0.5740620000000  0.5403650000000 1.0
C      1  0.3967690000000  0.5346270000000  0.4969200000000 1.0
C      1  0.5185740000000  0.5928830000000  0.5214270000000 1.0
C      1  0.5337180000000  0.5487180000000  0.5424260000000 1.0
C      1  0.4308130000000  0.4685170000000  0.5598700000000 1.0
C      1  0.5364620000000  0.5843440000000  0.4753530000000 1.0
C      1  0.5316450000000  0.4947300000000  0.4266860000000 1.0
C      1  0.5371990000000  0.5187320000000  0.4388610000000 1.0
C      1  0.4091400000000  0.5461420000000  0.4263970000000 1.0
C      1  0.5511270000000  0.4610920000000  0.4806810000000 1.0
C      1  0.4581420000000  0.4592600000000  0.4536200000000 1.0
C      1  0.5836120000000  0.5453200000000  0.5618290000000 1.0
C      1  0.5245830000000  0.4469640000000  0.5199460000000 1.0
C      1  0.5472900000000  0.5578980000000  0.4759460000000 1.0
C      1  0.4467490000000  0.4720300000000  0.4758820000000 1.0
C      1  0.5220480000000  0.5064110000000  0.5631230000000 1.0
C      1  0.4798580000000  0.4638230000000  0.4124400000000 1.0
C      1  0.4974670000000  0.4568200000000  0.5087190000000 1.0
C      1  0.4877210000000  0.4260660000000  0.4772120000000 1.0
C      1  0.5230660000000  0.4693430000000  0.4375430000000 1.0
C      1  0.4992400000000  0.4543950000000  0.4319730000000 1.0
C      1  0.4616280000000  0.5223930000000  0.5277650000000 1.0
C      1  0.5666450000000  0.5265490000000  0.6034980000000 1.0
C      1  0.5119810000000  0.4122050000000  0.4847130000000 1.0
C      1  0.4799180000000  0.5268440000000  0.5474220000000 1.0
C      1  0.4548090000000  0.4679350000000  0.4262220000000 1.0
C      1  0.5455890000000  0.4891380000000  0.5234880000000 1.0
C      1  0.4502170000000  0.5495800000000  0.4509760000000 1.0
C      1  0.4681060000000  0.4253110000000  0.5267300000000 1.0
C      1  0.5741500000000  0.4510200000000  0.4702810000000 1.0
C      1  0.4830280000000  0.4430370000000  0.4547970000000 1.0
C      1  0.5928860000000  0.5554630000000  0.5386360000000 1.0
C      1  0.4445300000000  0.4854050000000  0.4989660000000 1.0
C      1  0.5290230000000  0.4696750000000  0.4652130000000 1.0
C      1  0.5617490000000  0.5526730000000  0.5005750000000 1.0
C      1  0.5132480000000  0.4896440000000  0.4777440000000 1.0
C      1  0.5025580000000  0.5472310000000  0.4567900000000 1.0
C      1  0.4225970000000  0.5452960000000  0.4501930000000 1.0
C      1  0.5292810000000  0.5353540000000  0.4642570000000 1.0
C      1  0.5243190000000  0.5975950000000  0.4955650000000 1.0
C      1  0.5372050000000  0.5310330000000  0.5646530000000 1.0
C      1  0.4845710000000  0.4675550000000  0.3859560000000 1.0
C      1  0.4933720000000  0.5059790000000  0.5614770000000 1.0
END
