TITL C-247199-3331-260 0.103561314411655 125000 -244.857435628437 0 0 42 (C1) n - 1
REM
REM in /home/nfs/bkarasulu/CARBON/AIRSS/Generating-Clusters/LCBOP/Only-C1/SD-CG/FIRE-HFTN
REM
REM
REM
REM
REM
REM ./C.cell (11c1c37f851c82e70ff6c80c92926a4b)
REM AIRSS Version 0.9.1 bugfix July 2018 build 013d7b7c2542+ Fri, 06 Jul 2018 19:26:36 +0100
REM compiler GCC version 9.2.1 20190827 (Red Hat 9.2.1-1)
REM options -cpp -mtune=generic -march=x86-64 -g -O0 -fpre-include=/usr/include/finclude/math-vector-fortran.h
REM seed 745770387 1429081568 -849930097 1271486885 1884382654 -15024334 1155069414 389307656 -1214584437 1554977822 -1703555424 277309728 -1435976912 522638270 -2053797200 -1276776961 -1753532959 1184715764 -1922385468 -1827587436 -1943499836 -1254800770 -448306112 -1111791666 1750511890 195318995 -446745220 14771303 -940720942 1248301097 -942082313 -501964472 -1947748192
REM
CELL 1.54180   50.00000   50.00000   50.00000   90.00000   90.00000   90.00000
LATT -1
SFAC C  
C      1  0.5852730000000  0.5536950000000  0.5210720000000 1.0
C      1  0.4959550000000  0.4359780000000  0.4742900000000 1.0
C      1  0.4860150000000  0.5480600000000  0.4179940000000 1.0
C      1  0.5312620000000  0.5551430000000  0.4339650000000 1.0
C      1  0.5282580000000  0.4196410000000  0.5396480000000 1.0
C      1  0.4900220000000  0.5228770000000  0.5284970000000 1.0
C      1  0.4657090000000  0.4828960000000  0.4196130000000 1.0
C      1  0.3909260000000  0.4292470000000  0.5702050000000 1.0
C      1  0.5880490000000  0.5326680000000  0.5026630000000 1.0
C      1  0.4980000000000  0.5479640000000  0.5176530000000 1.0
C      1  0.5407100000000  0.5714690000000  0.5379180000000 1.0
C      1  0.5787490000000  0.5457010000000  0.4527740000000 1.0
C      1  0.5794120000000  0.5071850000000  0.5106230000000 1.0
C      1  0.4200900000000  0.5304940000000  0.5547930000000 1.0
C      1  0.4720460000000  0.4628360000000  0.4357480000000 1.0
C      1  0.5399640000000  0.4212960000000  0.4947060000000 1.0
C      1  0.4824470000000  0.4471840000000  0.4544440000000 1.0
C      1  0.5087200000000  0.5020120000000  0.5287170000000 1.0
C      1  0.5120740000000  0.4287490000000  0.4954960000000 1.0
C      1  0.4798060000000  0.4334280000000  0.5342160000000 1.0
C      1  0.4566500000000  0.4424430000000  0.5433500000000 1.0
C      1  0.5572200000000  0.5518360000000  0.4384530000000 1.0
C      1  0.4686050000000  0.5335100000000  0.4016300000000 1.0
C      1  0.4643210000000  0.5192950000000  0.5386210000000 1.0
C      1  0.4337460000000  0.4841790000000  0.5512920000000 1.0
C      1  0.5668290000000  0.5679210000000  0.5340630000000 1.0
C      1  0.4941840000000  0.5568190000000  0.4649070000000 1.0
C      1  0.5298800000000  0.4164510000000  0.5665060000000 1.0
C      1  0.5585750000000  0.4927490000000  0.5187970000000 1.0
C      1  0.4021680000000  0.5484230000000  0.5608400000000 1.0
C      1  0.5328210000000  0.4913430000000  0.5253040000000 1.0
C      1  0.5037150000000  0.5539900000000  0.4387390000000 1.0
C      1  0.5492920000000  0.4160720000000  0.5201760000000 1.0
C      1  0.4642620000000  0.5065450000000  0.4077290000000 1.0
C      1  0.5048490000000  0.4275860000000  0.5238890000000 1.0
C      1  0.4562070000000  0.5452820000000  0.3803210000000 1.0
C      1  0.5906900000000  0.5385580000000  0.4754410000000 1.0
C      1  0.4393450000000  0.5113610000000  0.5482540000000 1.0
C      1  0.4916130000000  0.5544160000000  0.4912000000000 1.0
C      1  0.5158290000000  0.5641510000000  0.5319690000000 1.0
C      1  0.4339880000000  0.4562700000000  0.5520480000000 1.0
C      1  0.4117240000000  0.4422770000000  0.5614370000000 1.0
END
