TITL C-247197-3123-475 -1.04902473746279e-06 125000 -976.058357474601 0 0 160 (C1) n - 1
REM
REM in /home/nfs/bkarasulu/CARBON/AIRSS/Generating-Clusters/LCBOP/Only-C1/SD-CG/FIRE-HFTN
REM
REM
REM
REM
REM
REM ./C.cell (11c1c37f851c82e70ff6c80c92926a4b)
REM AIRSS Version 0.9.1 bugfix July 2018 build 013d7b7c2542+ Fri, 06 Jul 2018 19:26:36 +0100
REM compiler GCC version 9.2.1 20190827 (Red Hat 9.2.1-1)
REM options -cpp -mtune=generic -march=x86-64 -g -O0 -fpre-include=/usr/include/finclude/math-vector-fortran.h
REM seed -737299893 1602422012 -977511215 -825817680 -265593194 1338470517 1606672588 -2047611870 720221185 -1000875891 398335854 -1117297189 -1540781364 -373961872 2098512960 1754996387 -650691615 2097803730 -162168513 298855587 800998421 -1274549793 1585921050 2147099470 81372810 -692084744 36371994 -200988012 507942459 -751319760 -267662172 -235205541 -1702130431
REM
CELL 1.54180   50.00000   50.00000   50.00000   90.00000   90.00000   90.00000
LATT -1
SFAC C  
C      1  0.4532620000000  0.4496120000000  0.4240910000000 1.0
C      1  0.4403840000000  0.5296780000000  0.3948840000000 1.0
C      1  0.5143000000000  0.5032980000000  0.4638560000000 1.0
C      1  0.4506030000000  0.4531730000000  0.5292540000000 1.0
C      1  0.5626330000000  0.5145280000000  0.5144360000000 1.0
C      1  0.4582960000000  0.5947510000000  0.5621020000000 1.0
C      1  0.5220170000000  0.5592510000000  0.4777320000000 1.0
C      1  0.4279010000000  0.5125690000000  0.5241730000000 1.0
C      1  0.5063860000000  0.4904430000000  0.5102760000000 1.0
C      1  0.5978340000000  0.5013000000000  0.4579650000000 1.0
C      1  0.5976920000000  0.6061200000000  0.5581070000000 1.0
C      1  0.4112240000000  0.4410760000000  0.5585390000000 1.0
C      1  0.4959720000000  0.5667370000000  0.5653270000000 1.0
C      1  0.4367770000000  0.3947900000000  0.5329400000000 1.0
C      1  0.6208170000000  0.5106640000000  0.4723070000000 1.0
C      1  0.5905830000000  0.5169570000000  0.4339150000000 1.0
C      1  0.5188240000000  0.5057200000000  0.6011540000000 1.0
C      1  0.4026280000000  0.4510260000000  0.4357570000000 1.0
C      1  0.5039610000000  0.5587360000000  0.4085510000000 1.0
C      1  0.5904470000000  0.4122600000000  0.5263840000000 1.0
C      1  0.6064080000000  0.5837020000000  0.4992220000000 1.0
C      1  0.5455830000000  0.5061760000000  0.6483720000000 1.0
C      1  0.4025080000000  0.4178150000000  0.4716370000000 1.0
C      1  0.6184500000000  0.5620760000000  0.4895700000000 1.0
C      1  0.4583490000000  0.4779470000000  0.6031300000000 1.0
C      1  0.4906000000000  0.5832920000000  0.5065090000000 1.0
C      1  0.4604530000000  0.5088560000000  0.5647860000000 1.0
C      1  0.4154190000000  0.4031220000000  0.4915030000000 1.0
C      1  0.5116080000000  0.4717600000000  0.5663340000000 1.0
C      1  0.5382840000000  0.6254410000000  0.5822690000000 1.0
C      1  0.5505850000000  0.4966700000000  0.5608010000000 1.0
C      1  0.5653560000000  0.3872210000000  0.4319350000000 1.0
C      1  0.6415900000000  0.4935810000000  0.4774730000000 1.0
C      1  0.5108670000000  0.5116780000000  0.4921920000000 1.0
C      1  0.4457810000000  0.3716750000000  0.6320570000000 1.0
C      1  0.4989380000000  0.4535470000000  0.4602890000000 1.0
C      1  0.4568640000000  0.3798810000000  0.6099340000000 1.0
C      1  0.5283710000000  0.4912900000000  0.5783420000000 1.0
C      1  0.5501620000000  0.5932310000000  0.5429830000000 1.0
C      1  0.4880490000000  0.4799370000000  0.3886830000000 1.0
C      1  0.4461070000000  0.4973480000000  0.5870490000000 1.0
C      1  0.5669520000000  0.4476850000000  0.5543160000000 1.0
C      1  0.5402910000000  0.5895630000000  0.4247910000000 1.0
C      1  0.5093780000000  0.6006110000000  0.5188610000000 1.0
C      1  0.4531900000000  0.5466860000000  0.4133830000000 1.0
C      1  0.4971110000000  0.6096190000000  0.4317230000000 1.0
C      1  0.4390870000000  0.5566600000000  0.4363520000000 1.0
C      1  0.5306110000000  0.5396690000000  0.5466230000000 1.0
C      1  0.5578460000000  0.6331280000000  0.5987710000000 1.0
C      1  0.6010230000000  0.6184230000000  0.5816020000000 1.0
C      1  0.5053490000000  0.6084140000000  0.5468010000000 1.0
C      1  0.4398310000000  0.5563580000000  0.5826850000000 1.0
C      1  0.4865110000000  0.5208050000000  0.5691510000000 1.0
C      1  0.3924530000000  0.5025100000000  0.4908100000000 1.0
C      1  0.5294400000000  0.4112580000000  0.5463720000000 1.0
C      1  0.3511830000000  0.5009660000000  0.4360440000000 1.0
C      1  0.5130840000000  0.5169460000000  0.4376840000000 1.0
C      1  0.5755530000000  0.4001740000000  0.5076720000000 1.0
C      1  0.4344920000000  0.5395650000000  0.5136220000000 1.0
C      1  0.4426770000000  0.5705340000000  0.5582890000000 1.0
C      1  0.5320050000000  0.5645760000000  0.4136860000000 1.0
C      1  0.5621640000000  0.5889400000000  0.4434480000000 1.0
C      1  0.4515710000000  0.4011430000000  0.4414750000000 1.0
C      1  0.4519840000000  0.5569230000000  0.4621860000000 1.0
C      1  0.4387890000000  0.3853050000000  0.4860930000000 1.0
C      1  0.4758670000000  0.4925630000000  0.4356150000000 1.0
C      1  0.4308270000000  0.4552960000000  0.5052880000000 1.0
C      1  0.5795910000000  0.5989660000000  0.5382140000000 1.0
C      1  0.4294240000000  0.4567880000000  0.4772120000000 1.0
C      1  0.4126140000000  0.4919260000000  0.4054120000000 1.0
C      1  0.5065600000000  0.4035880000000  0.5618640000000 1.0
C      1  0.4054900000000  0.4626700000000  0.5180480000000 1.0
C      1  0.4872140000000  0.5173730000000  0.4268140000000 1.0
C      1  0.5810800000000  0.5677100000000  0.4406560000000 1.0
C      1  0.5499330000000  0.4658740000000  0.5043910000000 1.0
C      1  0.4069720000000  0.4656900000000  0.4137990000000 1.0
C      1  0.4794390000000  0.5944930000000  0.4447870000000 1.0
C      1  0.5137020000000  0.3861900000000  0.4658400000000 1.0
C      1  0.5379980000000  0.5990390000000  0.5137050000000 1.0
C      1  0.5496710000000  0.5418150000000  0.4173650000000 1.0
C      1  0.3887880000000  0.5071050000000  0.4646730000000 1.0
C      1  0.4100730000000  0.4427460000000  0.4614610000000 1.0
C      1  0.4864910000000  0.5929100000000  0.5610220000000 1.0
C      1  0.5440850000000  0.4969170000000  0.4641830000000 1.0
C      1  0.4452390000000  0.5609410000000  0.5308150000000 1.0
C      1  0.4679700000000  0.3886320000000  0.5875300000000 1.0
C      1  0.5255390000000  0.4711750000000  0.5185510000000 1.0
C      1  0.5599550000000  0.6012690000000  0.4955680000000 1.0
C      1  0.4534790000000  0.4743970000000  0.4373580000000 1.0
C      1  0.4539790000000  0.5483920000000  0.6044210000000 1.0
C      1  0.3853910000000  0.5317930000000  0.3979310000000 1.0
C      1  0.5599270000000  0.6024320000000  0.4678410000000 1.0
C      1  0.4811620000000  0.5423040000000  0.4148570000000 1.0
C      1  0.4060260000000  0.4933780000000  0.5145060000000 1.0
C      1  0.5401820000000  0.4375030000000  0.5500920000000 1.0
C      1  0.4603100000000  0.4078010000000  0.5432990000000 1.0
C      1  0.5438970000000  0.5439790000000  0.4804570000000 1.0
C      1  0.5484090000000  0.4770500000000  0.4414020000000 1.0
C      1  0.4196690000000  0.5034610000000  0.5911090000000 1.0
C      1  0.5233550000000  0.6122710000000  0.4219570000000 1.0
C      1  0.5325870000000  0.5059660000000  0.6252880000000 1.0
C      1  0.5314620000000  0.6112350000000  0.5594410000000 1.0
C      1  0.5032710000000  0.5407890000000  0.5566480000000 1.0
C      1  0.3780230000000  0.5065670000000  0.4385890000000 1.0
C      1  0.4374040000000  0.5013690000000  0.3933930000000 1.0
C      1  0.5753170000000  0.5418240000000  0.4307650000000 1.0
C      1  0.4656640000000  0.5760550000000  0.5172960000000 1.0
C      1  0.5349040000000  0.5186360000000  0.4205300000000 1.0
C      1  0.4497030000000  0.5016340000000  0.5397930000000 1.0
C      1  0.4942950000000  0.5196560000000  0.5973210000000 1.0
C      1  0.4437880000000  0.3749340000000  0.5125410000000 1.0
C      1  0.4626930000000  0.4797560000000  0.5282630000000 1.0
C      1  0.4367880000000  0.4504600000000  0.5567260000000 1.0
C      1  0.5740190000000  0.4689800000000  0.4920880000000 1.0
C      1  0.4761770000000  0.5350530000000  0.6128670000000 1.0
C      1  0.5216170000000  0.4581810000000  0.5437570000000 1.0
C      1  0.5576600000000  0.4056250000000  0.4508830000000 1.0
C      1  0.4587140000000  0.3875190000000  0.4651800000000 1.0
C      1  0.6006670000000  0.5066140000000  0.4101640000000 1.0
C      1  0.4854370000000  0.4238540000000  0.5048410000000 1.0
C      1  0.5286500000000  0.4012350000000  0.5194230000000 1.0
C      1  0.4471360000000  0.4745550000000  0.4656050000000 1.0
C      1  0.4697550000000  0.4837070000000  0.4809010000000 1.0
C      1  0.5450620000000  0.5641320000000  0.5482770000000 1.0
C      1  0.5487960000000  0.3979980000000  0.4994830000000 1.0
C      1  0.5876450000000  0.4303890000000  0.5459830000000 1.0
C      1  0.4523930000000  0.4230190000000  0.4262590000000 1.0
C      1  0.5710180000000  0.4600690000000  0.4470500000000 1.0
C      1  0.4143430000000  0.5681480000000  0.4336880000000 1.0
C      1  0.5860760000000  0.4755130000000  0.4666160000000 1.0
C      1  0.4132670000000  0.4107730000000  0.5204570000000 1.0
C      1  0.5462430000000  0.5168100000000  0.5393530000000 1.0
C      1  0.5400240000000  0.3965590000000  0.4718620000000 1.0
C      1  0.4793090000000  0.4840190000000  0.5071770000000 1.0
C      1  0.5025740000000  0.4022450000000  0.5093500000000 1.0
C      1  0.4967350000000  0.5705850000000  0.4819630000000 1.0
C      1  0.4868850000000  0.3815950000000  0.4669780000000 1.0
C      1  0.4921470000000  0.4828260000000  0.4603920000000 1.0
C      1  0.3928960000000  0.5111030000000  0.4143690000000 1.0
C      1  0.5890180000000  0.5055630000000  0.5211930000000 1.0
C      1  0.5136170000000  0.4455880000000  0.4378490000000 1.0
C      1  0.4682230000000  0.4586200000000  0.6175660000000 1.0
C      1  0.5583400000000  0.5063740000000  0.6711060000000 1.0
C      1  0.4760190000000  0.5729250000000  0.4626730000000 1.0
C      1  0.6222030000000  0.5374140000000  0.4805030000000 1.0
C      1  0.5715040000000  0.4765730000000  0.5561220000000 1.0
C      1  0.5123210000000  0.4749240000000  0.4004880000000 1.0
C      1  0.5321040000000  0.6352740000000  0.4101640000000 1.0
C      1  0.4616260000000  0.4869650000000  0.3863480000000 1.0
C      1  0.5542050000000  0.5175180000000  0.4859200000000 1.0
C      1  0.5933270000000  0.4876550000000  0.5413030000000 1.0
C      1  0.5847040000000  0.5973370000000  0.5099990000000 1.0
C      1  0.4891100000000  0.4374950000000  0.4808640000000 1.0
C      1  0.5678370000000  0.4320590000000  0.4484930000000 1.0
C      1  0.4679870000000  0.4295600000000  0.5261560000000 1.0
C      1  0.4003890000000  0.4359430000000  0.5322480000000 1.0
C      1  0.4783380000000  0.3998270000000  0.5641290000000 1.0
C      1  0.5274760000000  0.4660320000000  0.4234960000000 1.0
C      1  0.5845310000000  0.6302630000000  0.5991650000000 1.0
C      1  0.4402230000000  0.5442710000000  0.4853530000000 1.0
END
