TITL C-247196-3112-510 0.00147549397599394 125000 -126.135181200328 0 0 22 (Cs) n - 1
REM
REM in /home/nfs/bkarasulu/CARBON/AIRSS/Generating-Clusters/LCBOP/Only-C1/SD-CG/FIRE-HFTN
REM
REM
REM
REM
REM
REM ./C.cell (11c1c37f851c82e70ff6c80c92926a4b)
REM AIRSS Version 0.9.1 bugfix July 2018 build 013d7b7c2542+ Fri, 06 Jul 2018 19:26:36 +0100
REM compiler GCC version 9.2.1 20190827 (Red Hat 9.2.1-1)
REM options -cpp -mtune=generic -march=x86-64 -g -O0 -fpre-include=/usr/include/finclude/math-vector-fortran.h
REM seed 950978506 -1433746346 -1529744350 -1615963646 1396402318 748474065 -1637548631 1951619506 104198474 -1532411271 -30366623 -1022884600 -1320722243 1535493029 836790887 477571563 1781675279 -888588477 -1099843250 -1747224931 -296683679 792906906 -721399940 1498434811 199711189 1711340238 1782362063 839431599 -1606332342 1397429795 -2119552502 -1346925317 -591229289
REM
CELL 1.54180   50.00000   50.00000   50.00000   90.00000   90.00000   90.00000
LATT -1
SFAC C  
C      1  0.4139450000000  0.5361070000000  0.4765660000000 1.0
C      1  0.5680740000000  0.4812520000000  0.4832580000000 1.0
C      1  0.4562430000000  0.5276960000000  0.4545210000000 1.0
C      1  0.4617930000000  0.5062620000000  0.5247130000000 1.0
C      1  0.6027000000000  0.4533380000000  0.5408050000000 1.0
C      1  0.5258130000000  0.5109390000000  0.4287720000000 1.0
C      1  0.6214900000000  0.4427950000000  0.5554810000000 1.0
C      1  0.4463690000000  0.5050940000000  0.5479750000000 1.0
C      1  0.4507610000000  0.5165900000000  0.5012220000000 1.0
C      1  0.5836030000000  0.4640530000000  0.5258900000000 1.0
C      1  0.3893580000000  0.5447280000000  0.4759630000000 1.0
C      1  0.5477040000000  0.5004330000000  0.4394840000000 1.0
C      1  0.4402640000000  0.5268170000000  0.4774300000000 1.0
C      1  0.4170830000000  0.5030340000000  0.5915760000000 1.0
C      1  0.5132480000000  0.4884450000000  0.5251630000000 1.0
C      1  0.5634860000000  0.4753340000000  0.5102000000000 1.0
C      1  0.4765890000000  0.5253840000000  0.4376860000000 1.0
C      1  0.5383530000000  0.4809320000000  0.5211410000000 1.0
C      1  0.5007570000000  0.5196680000000  0.4283620000000 1.0
C      1  0.4316070000000  0.5040560000000  0.5699520000000 1.0
C      1  0.4881940000000  0.4970960000000  0.5250290000000 1.0
C      1  0.5625650000000  0.4899470000000  0.4588100000000 1.0
END
