TITL C-247201-3759-6 17.7228766688869 125000 -241.21263629804 0 0 41 (C1) n - 1
REM
REM in /home/nfs/bkarasulu/CARBON/AIRSS/Generating-Clusters/LCBOP/Only-C1/SD-CG/FIRE-HFTN
REM
REM
REM
REM
REM
REM ./C.cell (11c1c37f851c82e70ff6c80c92926a4b)
REM AIRSS Version 0.9.1 bugfix July 2018 build 013d7b7c2542+ Fri, 06 Jul 2018 19:26:36 +0100
REM compiler GCC version 9.2.1 20190827 (Red Hat 9.2.1-1)
REM options -cpp -mtune=generic -march=x86-64 -g -O0 -fpre-include=/usr/include/finclude/math-vector-fortran.h
REM seed -360753941 -2038893456 1140700282 -516102430 -1366215993 297327315 -725362427 1846881710 -766967179 1422501716 1970358990 -1974120981 -1848564081 1272140433 1989235610 -942071087 2085482406 -2045141691 683915404 -2085901479 2072084555 2107148791 1132648075 -1063815034 -1568533071 -1039578195 -2001334808 -2059233274 1708294318 791682298 298419957 547673771 -110584918
REM
CELL 1.54180   50.00000   50.00000   50.00000   90.00000   90.00000   90.00000
LATT -1
SFAC C  
C      1  0.4664850000000  0.4876100000000  0.4542470000000 1.0
C      1  0.4812460000000  0.4258710000000  0.4780440000000 1.0
C      1  0.5327750000000  0.5672860000000  0.5621140000000 1.0
C      1  0.5484520000000  0.4793380000000  0.5257730000000 1.0
C      1  0.5328460000000  0.4918960000000  0.4288210000000 1.0
C      1  0.6050250000000  0.6235290000000  0.6155350000000 1.0
C      1  0.4544290000000  0.4567850000000  0.5042050000000 1.0
C      1  0.4154470000000  0.3690500000000  0.5244640000000 1.0
C      1  0.5254320000000  0.5187480000000  0.4317290000000 1.0
C      1  0.4832960000000  0.5413420000000  0.4150700000000 1.0
C      1  0.5508350000000  0.5813470000000  0.5754680000000 1.0
C      1  0.4008810000000  0.3495230000000  0.5337480000000 1.0
C      1  0.5149210000000  0.5530880000000  0.5486300000000 1.0
C      1  0.4627700000000  0.5094850000000  0.4745970000000 1.0
C      1  0.5192090000000  0.4452920000000  0.4476630000000 1.0
C      1  0.4286050000000  0.4680820000000  0.5024950000000 1.0
C      1  0.4332890000000  0.5112700000000  0.4806520000000 1.0
C      1  0.5688970000000  0.5954060000000  0.5888220000000 1.0
C      1  0.4847460000000  0.5217970000000  0.5185770000000 1.0
C      1  0.4991230000000  0.4653910000000  0.5232720000000 1.0
C      1  0.5625770000000  0.4977310000000  0.5126970000000 1.0
C      1  0.4302560000000  0.3889030000000  0.5150240000000 1.0
C      1  0.5249710000000  0.4672950000000  0.5292110000000 1.0
C      1  0.4635860000000  0.4722810000000  0.4333790000000 1.0
C      1  0.5301230000000  0.4662740000000  0.4354900000000 1.0
C      1  0.4755200000000  0.5017240000000  0.5012900000000 1.0
C      1  0.5629360000000  0.5160970000000  0.4934310000000 1.0
C      1  0.4762310000000  0.4743810000000  0.5098670000000 1.0
C      1  0.4449960000000  0.4087940000000  0.5056100000000 1.0
C      1  0.5082970000000  0.5313030000000  0.4130270000000 1.0
C      1  0.5019530000000  0.4313030000000  0.4622820000000 1.0
C      1  0.5025760000000  0.5390410000000  0.4691770000000 1.0
C      1  0.4752710000000  0.5342580000000  0.4629620000000 1.0
C      1  0.4675770000000  0.5430780000000  0.4370760000000 1.0
C      1  0.4192990000000  0.4914780000000  0.4928130000000 1.0
C      1  0.5270560000000  0.5304640000000  0.4579260000000 1.0
C      1  0.5869590000000  0.6094660000000  0.6021760000000 1.0
C      1  0.4600380000000  0.4301740000000  0.4959140000000 1.0
C      1  0.6227920000000  0.6373620000000  0.6286730000000 1.0
C      1  0.5500110000000  0.5282900000000  0.4736270000000 1.0
C      1  0.4982640000000  0.5381670000000  0.5344190000000 1.0
END
