TITL C-247195-3186-125 0.683033863801091 125000 -194.32141170181 0 0 33 (C1) n - 1
REM
REM in /home/nfs/bkarasulu/CARBON/AIRSS/Generating-Clusters/LCBOP/Only-C1/SD-CG/FIRE-HFTN
REM
REM
REM
REM
REM
REM ./C.cell (11c1c37f851c82e70ff6c80c92926a4b)
REM AIRSS Version 0.9.1 bugfix July 2018 build 013d7b7c2542+ Fri, 06 Jul 2018 19:26:36 +0100
REM compiler GCC version 9.2.1 20190827 (Red Hat 9.2.1-1)
REM options -cpp -mtune=generic -march=x86-64 -g -O0 -fpre-include=/usr/include/finclude/math-vector-fortran.h
REM seed -283380673 1717059982 -560249526 840595806 1068548452 1670298692 -1756491987 18834555 -1547020067 1863542030 -1370295163 -1963421569 -766550019 233515638 990714112 96910906 2012694357 1334713836 1615670909 23625714 -1911710525 282859748 1590638847 433361698 1652130031 -808767134 198637981 -1746376609 83276927 694569581 -418920609 -1044719348 1271889710
REM
CELL 1.54180   50.00000   50.00000   50.00000   90.00000   90.00000   90.00000
LATT -1
SFAC C  
C      1  0.5809820000000  0.4773940000000  0.4442980000000 1.0
C      1  0.4599770000000  0.4947810000000  0.5453990000000 1.0
C      1  0.5001810000000  0.5325920000000  0.5040190000000 1.0
C      1  0.4729280000000  0.4929820000000  0.4996760000000 1.0
C      1  0.4922450000000  0.4518360000000  0.4825530000000 1.0
C      1  0.6830330000000  0.4825900000000  0.4177470000000 1.0
C      1  0.4975380000000  0.4630360000000  0.5262320000000 1.0
C      1  0.5224350000000  0.4722280000000  0.5116580000000 1.0
C      1  0.5075000000000  0.4860740000000  0.4434200000000 1.0
C      1  0.4803930000000  0.4886260000000  0.4515970000000 1.0
C      1  0.4428570000000  0.5548030000000  0.6211080000000 1.0
C      1  0.4887560000000  0.4404760000000  0.5092010000000 1.0
C      1  0.4231350000000  0.5249260000000  0.5301550000000 1.0
C      1  0.4493100000000  0.5283450000000  0.4585630000000 1.0
C      1  0.4767210000000  0.4829530000000  0.5264320000000 1.0
C      1  0.4623650000000  0.5091860000000  0.4443620000000 1.0
C      1  0.4418860000000  0.5159970000000  0.5500590000000 1.0
C      1  0.3962640000000  0.5222080000000  0.5348880000000 1.0
C      1  0.5288390000000  0.4750560000000  0.4590110000000 1.0
C      1  0.5554030000000  0.4761070000000  0.4510500000000 1.0
C      1  0.4757690000000  0.4754140000000  0.4768630000000 1.0
C      1  0.4425220000000  0.5291440000000  0.5747430000000 1.0
C      1  0.5235290000000  0.5225530000000  0.5128890000000 1.0
C      1  0.4429880000000  0.5674430000000  0.6439080000000 1.0
C      1  0.4520640000000  0.5331950000000  0.4863600000000 1.0
C      1  0.6065970000000  0.4786980000000  0.4376320000000 1.0
C      1  0.5331570000000  0.4977430000000  0.5170970000000 1.0
C      1  0.4755960000000  0.5212560000000  0.4967470000000 1.0
C      1  0.6578330000000  0.4813070000000  0.4243030000000 1.0
C      1  0.6322110000000  0.4800020000000  0.4309680000000 1.0
C      1  0.4427230000000  0.5419520000000  0.5979260000000 1.0
C      1  0.4318850000000  0.5360810000000  0.5056570000000 1.0
C      1  0.5203780000000  0.4630140000000  0.4834780000000 1.0
END
