TITL C-247201-3759-586 -67.2621178271988 125000 -886.127317943737 0 0 144 (C1) n - 1
REM
REM in /home/nfs/bkarasulu/CARBON/AIRSS/Generating-Clusters/LCBOP/Only-C1/SD-CG/FIRE-HFTN
REM
REM
REM
REM
REM
REM ./C.cell (11c1c37f851c82e70ff6c80c92926a4b)
REM AIRSS Version 0.9.1 bugfix July 2018 build 013d7b7c2542+ Fri, 06 Jul 2018 19:26:36 +0100
REM compiler GCC version 9.2.1 20190827 (Red Hat 9.2.1-1)
REM options -cpp -mtune=generic -march=x86-64 -g -O0 -fpre-include=/usr/include/finclude/math-vector-fortran.h
REM seed 78713805 -572938902 219006359 -2088123977 -265653574 -1620449607 -1218280340 -509596431 162313104 846293333 -1701689263 606978379 1528142138 -1451018316 -1094655968 1460644267 671887406 -2055111239 -994423210 1538574931 1742043680 1916182329 1779460588 -183791087 819869859 1991752604 1840352064 1438972358 1390315845 1508847992 1909006092 826388778 1602795768
REM
CELL 1.54180   50.00000   50.00000   50.00000   90.00000   90.00000   90.00000
LATT -1
SFAC C  
C      1  0.4663510000000  0.4928150000000  0.4794220000000 1.0
C      1  0.4166710000000  0.5251340000000  0.5102640000000 1.0
C      1  0.4194080000000  0.5352130000000  0.4821900000000 1.0
C      1  0.6166660000000  0.5062420000000  0.5454190000000 1.0
C      1  0.5094710000000  0.5402550000000  0.5519560000000 1.0
C      1  0.5002560000000  0.5160050000000  0.4451330000000 1.0
C      1  0.4839230000000  0.4079340000000  0.4223620000000 1.0
C      1  0.5466380000000  0.4075770000000  0.4591010000000 1.0
C      1  0.5028110000000  0.4409230000000  0.4760970000000 1.0
C      1  0.5805240000000  0.5510170000000  0.5134480000000 1.0
C      1  0.4827160000000  0.3822390000000  0.4862020000000 1.0
C      1  0.5018520000000  0.5635220000000  0.4106920000000 1.0
C      1  0.6180160000000  0.5072910000000  0.5171270000000 1.0
C      1  0.4509930000000  0.4230660000000  0.6420750000000 1.0
C      1  0.4423050000000  0.5958000000000  0.5333300000000 1.0
C      1  0.4627290000000  0.5399080000000  0.5065550000000 1.0
C      1  0.5102330000000  0.5361550000000  0.5242310000000 1.0
C      1  0.6386370000000  0.4955990000000  0.5006780000000 1.0
C      1  0.5492820000000  0.5383960000000  0.4619730000000 1.0
C      1  0.5648730000000  0.4917650000000  0.3973070000000 1.0
C      1  0.7138550000000  0.4990980000000  0.5294080000000 1.0
C      1  0.4911930000000  0.5971150000000  0.5623710000000 1.0
C      1  0.5562610000000  0.5774970000000  0.4820600000000 1.0
C      1  0.6649820000000  0.4966820000000  0.5102110000000 1.0
C      1  0.4562590000000  0.5270740000000  0.5768690000000 1.0
C      1  0.4754410000000  0.4920840000000  0.5069230000000 1.0
C      1  0.3957000000000  0.4602020000000  0.5737470000000 1.0
C      1  0.5296930000000  0.5718560000000  0.4831490000000 1.0
C      1  0.5931030000000  0.5171980000000  0.5046740000000 1.0
C      1  0.5388060000000  0.4459440000000  0.5099970000000 1.0
C      1  0.4156390000000  0.4614360000000  0.5935890000000 1.0
C      1  0.4762930000000  0.4466690000000  0.4715600000000 1.0
C      1  0.4216120000000  0.4306050000000  0.5201850000000 1.0
C      1  0.5474670000000  0.4357430000000  0.4633220000000 1.0
C      1  0.5182310000000  0.6120530000000  0.4956920000000 1.0
C      1  0.4718780000000  0.5832560000000  0.5777280000000 1.0
C      1  0.5218320000000  0.4466870000000  0.4556470000000 1.0
C      1  0.4940960000000  0.4726750000000  0.3970000000000 1.0
C      1  0.5188460000000  0.4686590000000  0.4384150000000 1.0
C      1  0.5520840000000  0.5002580000000  0.5515670000000 1.0
C      1  0.5942380000000  0.5199490000000  0.4743450000000 1.0
C      1  0.4046510000000  0.5173100000000  0.4646450000000 1.0
C      1  0.4453890000000  0.5730890000000  0.5764420000000 1.0
C      1  0.4602440000000  0.5168760000000  0.4647870000000 1.0
C      1  0.4489720000000  0.5421550000000  0.4779900000000 1.0
C      1  0.5128590000000  0.6128630000000  0.4689670000000 1.0
C      1  0.4400320000000  0.4241180000000  0.5673400000000 1.0
C      1  0.4139750000000  0.5118140000000  0.6118170000000 1.0
C      1  0.4309830000000  0.5850560000000  0.5553020000000 1.0
C      1  0.4903640000000  0.4899190000000  0.5683670000000 1.0
C      1  0.5098980000000  0.6130920000000  0.5757260000000 1.0
C      1  0.4436840000000  0.4697340000000  0.5319080000000 1.0
C      1  0.5826360000000  0.4957560000000  0.4626720000000 1.0
C      1  0.5620540000000  0.4820510000000  0.4815170000000 1.0
C      1  0.5635160000000  0.5609860000000  0.5347620000000 1.0
C      1  0.4553380000000  0.4484360000000  0.4217690000000 1.0
C      1  0.5084290000000  0.5049890000000  0.6182760000000 1.0
C      1  0.4280740000000  0.5208000000000  0.4207220000000 1.0
C      1  0.4902590000000  0.4496760000000  0.5211700000000 1.0
C      1  0.5831910000000  0.4827210000000  0.4171140000000 1.0
C      1  0.4523980000000  0.4957350000000  0.5242290000000 1.0
C      1  0.3941640000000  0.4941220000000  0.4811840000000 1.0
C      1  0.4717900000000  0.4424160000000  0.6428950000000 1.0
C      1  0.4042980000000  0.4433810000000  0.4773320000000 1.0
C      1  0.6896340000000  0.4978880000000  0.5198400000000 1.0
C      1  0.4665100000000  0.5753550000000  0.4433790000000 1.0
C      1  0.5281220000000  0.6272410000000  0.5878440000000 1.0
C      1  0.4141490000000  0.5061160000000  0.4398920000000 1.0
C      1  0.4922520000000  0.5021090000000  0.3887860000000 1.0
C      1  0.4607790000000  0.4686920000000  0.4652840000000 1.0
C      1  0.5056980000000  0.5562800000000  0.4820040000000 1.0
C      1  0.3972790000000  0.5038040000000  0.5081780000000 1.0
C      1  0.5556010000000  0.4521050000000  0.4863920000000 1.0
C      1  0.4362710000000  0.4228970000000  0.6177230000000 1.0
C      1  0.5468270000000  0.5486490000000  0.4122700000000 1.0
C      1  0.4182030000000  0.4774830000000  0.4443270000000 1.0
C      1  0.4198540000000  0.5369750000000  0.6039500000000 1.0
C      1  0.5076570000000  0.3980320000000  0.4301560000000 1.0
C      1  0.4449700000000  0.4102640000000  0.4514220000000 1.0
C      1  0.4020260000000  0.4696190000000  0.4676660000000 1.0
C      1  0.4511270000000  0.4821590000000  0.3862270000000 1.0
C      1  0.5196350000000  0.4714740000000  0.4103730000000 1.0
C      1  0.5375660000000  0.5231140000000  0.4827770000000 1.0
C      1  0.5143140000000  0.5253340000000  0.6019220000000 1.0
C      1  0.4172830000000  0.4579960000000  0.5296350000000 1.0
C      1  0.5947450000000  0.5480900000000  0.4688620000000 1.0
C      1  0.5183270000000  0.5973150000000  0.5207210000000 1.0
C      1  0.4564530000000  0.3976880000000  0.5242200000000 1.0
C      1  0.5504460000000  0.5075030000000  0.5242660000000 1.0
C      1  0.4964710000000  0.4820130000000  0.6248860000000 1.0
C      1  0.4565850000000  0.5701890000000  0.4693960000000 1.0
C      1  0.4698420000000  0.5045860000000  0.5760830000000 1.0
C      1  0.5076160000000  0.4833400000000  0.5478410000000 1.0
C      1  0.5068850000000  0.3816980000000  0.4746090000000 1.0
C      1  0.5967210000000  0.4832510000000  0.4417980000000 1.0
C      1  0.5325210000000  0.5242010000000  0.5110170000000 1.0
C      1  0.5135630000000  0.5378960000000  0.5783010000000 1.0
C      1  0.4721620000000  0.5168790000000  0.4385910000000 1.0
C      1  0.5706260000000  0.4973620000000  0.5077730000000 1.0
C      1  0.4645120000000  0.4553610000000  0.5982150000000 1.0
C      1  0.4431290000000  0.5225220000000  0.5213550000000 1.0
C      1  0.4200920000000  0.4250340000000  0.4921210000000 1.0
C      1  0.4599520000000  0.4210530000000  0.4296150000000 1.0
C      1  0.5366170000000  0.4937050000000  0.4006630000000 1.0
C      1  0.5063530000000  0.6014050000000  0.4451570000000 1.0
C      1  0.5171560000000  0.4935070000000  0.4519910000000 1.0
C      1  0.4394670000000  0.5472290000000  0.5864570000000 1.0
C      1  0.5754790000000  0.4992950000000  0.3724600000000 1.0
C      1  0.4637920000000  0.4467930000000  0.5319580000000 1.0
C      1  0.5352420000000  0.4770050000000  0.5519380000000 1.0
C      1  0.5420420000000  0.5815390000000  0.5305560000000 1.0
C      1  0.5107230000000  0.4396070000000  0.5036470000000 1.0
C      1  0.4557900000000  0.5197510000000  0.4155490000000 1.0
C      1  0.4918740000000  0.5959820000000  0.5334360000000 1.0
C      1  0.5041590000000  0.5406330000000  0.4587300000000 1.0
C      1  0.3962510000000  0.4629890000000  0.5471560000000 1.0
C      1  0.4456040000000  0.4061850000000  0.6627490000000 1.0
C      1  0.4639330000000  0.5079310000000  0.3911440000000 1.0
C      1  0.4790860000000  0.4602610000000  0.6221640000000 1.0
C      1  0.4953950000000  0.4784720000000  0.5223710000000 1.0
C      1  0.4381760000000  0.4407190000000  0.5931440000000 1.0
C      1  0.4439620000000  0.4655860000000  0.4422630000000 1.0
C      1  0.5558800000000  0.5457250000000  0.4371780000000 1.0
C      1  0.5360880000000  0.4963460000000  0.4729060000000 1.0
C      1  0.4399880000000  0.4080300000000  0.4793590000000 1.0
C      1  0.6343850000000  0.4832640000000  0.4752360000000 1.0
C      1  0.4664590000000  0.5949040000000  0.5183200000000 1.0
C      1  0.5225730000000  0.3926990000000  0.4537650000000 1.0
C      1  0.4590580000000  0.3938410000000  0.4961550000000 1.0
C      1  0.5846640000000  0.5072750000000  0.3494140000000 1.0
C      1  0.5657520000000  0.5458070000000  0.5590560000000 1.0
C      1  0.5442930000000  0.4544470000000  0.5366440000000 1.0
C      1  0.4626230000000  0.5884700000000  0.4907850000000 1.0
C      1  0.6228800000000  0.4772420000000  0.4513110000000 1.0
C      1  0.5208670000000  0.5433940000000  0.4023190000000 1.0
C      1  0.4914360000000  0.5813810000000  0.4308840000000 1.0
C      1  0.5172400000000  0.5159280000000  0.3937750000000 1.0
C      1  0.4670060000000  0.4613220000000  0.3991490000000 1.0
C      1  0.5803850000000  0.5639180000000  0.4881670000000 1.0
C      1  0.5978380000000  0.5097740000000  0.5644760000000 1.0
C      1  0.4912630000000  0.5463990000000  0.5057190000000 1.0
C      1  0.4460450000000  0.4219430000000  0.5375420000000 1.0
C      1  0.5705980000000  0.5178540000000  0.5645500000000 1.0
C      1  0.4161160000000  0.4851870000000  0.6090860000000 1.0
END
