TITL C-247196-3112-573 -1.30581547598161e-06 125000 -1219.65176268758 0 0 200 (C1) n - 1
REM
REM in /home/nfs/bkarasulu/CARBON/AIRSS/Generating-Clusters/LCBOP/Only-C1/SD-CG/FIRE-HFTN
REM
REM
REM
REM
REM
REM ./C.cell (11c1c37f851c82e70ff6c80c92926a4b)
REM AIRSS Version 0.9.1 bugfix July 2018 build 013d7b7c2542+ Fri, 06 Jul 2018 19:26:36 +0100
REM compiler GCC version 9.2.1 20190827 (Red Hat 9.2.1-1)
REM options -cpp -mtune=generic -march=x86-64 -g -O0 -fpre-include=/usr/include/finclude/math-vector-fortran.h
REM seed -396430283 -2093666778 1568632104 554833880 571378690 746668644 548596838 -1922788396 -1846606986 1700317449 1809376859 1562903792 876857201 224291239 -361350451 -1730618819 -909880902 -1157837388 -787901308 1531574777 273987037 -1694139084 2042955911 -42863822 1001182796 -340332815 -840415881 -1595346135 1916263155 816161667 -2118389422 881440274 1374695497
REM
CELL 1.54180   50.00000   50.00000   50.00000   90.00000   90.00000   90.00000
LATT -1
SFAC C  
C      1  0.4122270000000  0.3913410000000  0.5234900000000 1.0
C      1  0.4407360000000  0.5227380000000  0.4672650000000 1.0
C      1  0.3999880000000  0.4184380000000  0.4521440000000 1.0
C      1  0.5218620000000  0.4902390000000  0.5165890000000 1.0
C      1  0.4771070000000  0.4485700000000  0.4607440000000 1.0
C      1  0.5043710000000  0.5482600000000  0.6264030000000 1.0
C      1  0.4053840000000  0.4510410000000  0.5107880000000 1.0
C      1  0.6221220000000  0.4524330000000  0.4660340000000 1.0
C      1  0.4962780000000  0.5949330000000  0.6077910000000 1.0
C      1  0.5003960000000  0.5844270000000  0.5118220000000 1.0
C      1  0.5710770000000  0.6087510000000  0.4855160000000 1.0
C      1  0.5477860000000  0.5293220000000  0.4174290000000 1.0
C      1  0.5572500000000  0.4079660000000  0.5282140000000 1.0
C      1  0.5357310000000  0.5788160000000  0.5888770000000 1.0
C      1  0.4199530000000  0.5669450000000  0.4469040000000 1.0
C      1  0.4512330000000  0.6047950000000  0.5388480000000 1.0
C      1  0.4258400000000  0.4812920000000  0.3998490000000 1.0
C      1  0.4301460000000  0.5399470000000  0.4473210000000 1.0
C      1  0.5757640000000  0.4093730000000  0.5044660000000 1.0
C      1  0.6335310000000  0.4880520000000  0.5395850000000 1.0
C      1  0.4862550000000  0.5938960000000  0.4437210000000 1.0
C      1  0.5474160000000  0.5747980000000  0.4631950000000 1.0
C      1  0.4615090000000  0.4228930000000  0.4123840000000 1.0
C      1  0.5767620000000  0.4258230000000  0.4588270000000 1.0
C      1  0.4444340000000  0.5996880000000  0.4133450000000 1.0
C      1  0.5289520000000  0.5604210000000  0.5686250000000 1.0
C      1  0.3891280000000  0.4966830000000  0.4351190000000 1.0
C      1  0.4794440000000  0.5546440000000  0.5633790000000 1.0
C      1  0.6222600000000  0.5031610000000  0.4540850000000 1.0
C      1  0.5458810000000  0.5674270000000  0.6133440000000 1.0
C      1  0.4511330000000  0.5378700000000  0.5987930000000 1.0
C      1  0.5068710000000  0.5571370000000  0.5508780000000 1.0
C      1  0.4469840000000  0.4989330000000  0.5154480000000 1.0
C      1  0.5032540000000  0.4387780000000  0.4575280000000 1.0
C      1  0.4901440000000  0.4664760000000  0.6140630000000 1.0
C      1  0.4681550000000  0.4973740000000  0.3810600000000 1.0
C      1  0.5434190000000  0.5260740000000  0.6465290000000 1.0
C      1  0.4921140000000  0.5285460000000  0.4749540000000 1.0
C      1  0.5637870000000  0.4894030000000  0.3912490000000 1.0
C      1  0.5392160000000  0.5166440000000  0.4418410000000 1.0
C      1  0.5149470000000  0.5634080000000  0.5234830000000 1.0
C      1  0.3869560000000  0.5548060000000  0.4794090000000 1.0
C      1  0.6167330000000  0.5453980000000  0.4966310000000 1.0
C      1  0.5084950000000  0.5163470000000  0.5921430000000 1.0
C      1  0.4304930000000  0.4971260000000  0.4672250000000 1.0
C      1  0.5126130000000  0.6010290000000  0.4380030000000 1.0
C      1  0.4605130000000  0.6137080000000  0.5128820000000 1.0
C      1  0.5387840000000  0.5558040000000  0.5078430000000 1.0
C      1  0.5932560000000  0.5643740000000  0.5031200000000 1.0
C      1  0.3883380000000  0.4905530000000  0.4877040000000 1.0
C      1  0.5044640000000  0.5534300000000  0.4709580000000 1.0
C      1  0.5246180000000  0.6141170000000  0.4619430000000 1.0
C      1  0.4812290000000  0.5508190000000  0.3828020000000 1.0
C      1  0.4453770000000  0.4891340000000  0.5935900000000 1.0
C      1  0.6304850000000  0.4780180000000  0.4650530000000 1.0
C      1  0.4787830000000  0.4659910000000  0.5086590000000 1.0
C      1  0.3962010000000  0.5148280000000  0.5123990000000 1.0
C      1  0.4074380000000  0.5103330000000  0.5408510000000 1.0
C      1  0.4150060000000  0.5945910000000  0.4910410000000 1.0
C      1  0.5511610000000  0.4729070000000  0.6442150000000 1.0
C      1  0.5082490000000  0.4843870000000  0.4244990000000 1.0
C      1  0.4983980000000  0.5226300000000  0.6161510000000 1.0
C      1  0.5701680000000  0.4990170000000  0.5554510000000 1.0
C      1  0.4681880000000  0.4724350000000  0.4473110000000 1.0
C      1  0.3826710000000  0.4997600000000  0.4612060000000 1.0
C      1  0.5304010000000  0.4763980000000  0.5876420000000 1.0
C      1  0.5067270000000  0.4550430000000  0.6339880000000 1.0
C      1  0.4046060000000  0.4892830000000  0.4143350000000 1.0
C      1  0.3955860000000  0.4394400000000  0.5344530000000 1.0
C      1  0.5353880000000  0.4511450000000  0.6316120000000 1.0
C      1  0.5138040000000  0.6255930000000  0.4884640000000 1.0
C      1  0.5521330000000  0.4150440000000  0.5897980000000 1.0
C      1  0.4072540000000  0.3958100000000  0.4674920000000 1.0
C      1  0.4618920000000  0.5203760000000  0.5171330000000 1.0
C      1  0.5418610000000  0.5283470000000  0.6740860000000 1.0
C      1  0.6202920000000  0.5059120000000  0.5239960000000 1.0
C      1  0.4403800000000  0.4750170000000  0.4537610000000 1.0
C      1  0.4335590000000  0.4513780000000  0.5093680000000 1.0
C      1  0.4277460000000  0.5770250000000  0.4212610000000 1.0
C      1  0.5947870000000  0.5198180000000  0.4146970000000 1.0
C      1  0.4577840000000  0.4143850000000  0.5477590000000 1.0
C      1  0.4818490000000  0.4913350000000  0.4313920000000 1.0
C      1  0.6017560000000  0.4342570000000  0.4720510000000 1.0
C      1  0.4837530000000  0.4101570000000  0.4282200000000 1.0
C      1  0.5982090000000  0.4727240000000  0.4197580000000 1.0
C      1  0.3637400000000  0.5511270000000  0.4653040000000 1.0
C      1  0.4516580000000  0.5632210000000  0.5001580000000 1.0
C      1  0.5502700000000  0.6019750000000  0.4668600000000 1.0
C      1  0.4689170000000  0.5222640000000  0.4618370000000 1.0
C      1  0.5760600000000  0.5305890000000  0.4683150000000 1.0
C      1  0.4304060000000  0.3834720000000  0.4783560000000 1.0
C      1  0.4652550000000  0.4675550000000  0.5577740000000 1.0
C      1  0.5139350000000  0.4660200000000  0.4033230000000 1.0
C      1  0.4902840000000  0.4652440000000  0.5655300000000 1.0
C      1  0.5985620000000  0.5449330000000  0.4258830000000 1.0
C      1  0.4852790000000  0.5736680000000  0.4632970000000 1.0
C      1  0.5615020000000  0.4221150000000  0.5613690000000 1.0
C      1  0.4554550000000  0.3835460000000  0.4639280000000 1.0
C      1  0.5675880000000  0.4029330000000  0.4758590000000 1.0
C      1  0.4696940000000  0.5173600000000  0.4324590000000 1.0
C      1  0.3910700000000  0.5427650000000  0.5054580000000 1.0
C      1  0.4518600000000  0.5536880000000  0.5487630000000 1.0
C      1  0.5211150000000  0.5759380000000  0.4135490000000 1.0
C      1  0.5324310000000  0.4641530000000  0.5200610000000 1.0
C      1  0.5924010000000  0.5113120000000  0.5988430000000 1.0
C      1  0.5079470000000  0.4274010000000  0.4310070000000 1.0
C      1  0.4537160000000  0.4346670000000  0.4725480000000 1.0
C      1  0.5543460000000  0.4623230000000  0.5879140000000 1.0
C      1  0.4535230000000  0.5928560000000  0.3865130000000 1.0
C      1  0.4561430000000  0.5640850000000  0.3840200000000 1.0
C      1  0.5288740000000  0.5109730000000  0.5322780000000 1.0
C      1  0.5896110000000  0.5098350000000  0.5723460000000 1.0
C      1  0.4030790000000  0.4445210000000  0.4650550000000 1.0
C      1  0.5932880000000  0.4322100000000  0.4997810000000 1.0
C      1  0.5598950000000  0.4455030000000  0.4469770000000 1.0
C      1  0.4678200000000  0.4222130000000  0.5214100000000 1.0
C      1  0.5686870000000  0.5149020000000  0.4036250000000 1.0
C      1  0.4392160000000  0.3521260000000  0.5145730000000 1.0
C      1  0.4091370000000  0.4138460000000  0.5399940000000 1.0
C      1  0.4627710000000  0.4486730000000  0.3984830000000 1.0
C      1  0.4650770000000  0.4810250000000  0.6136190000000 1.0
C      1  0.4391570000000  0.5541710000000  0.4050630000000 1.0
C      1  0.5421740000000  0.5571980000000  0.4154880000000 1.0
C      1  0.4317020000000  0.4224900000000  0.5568970000000 1.0
C      1  0.5915460000000  0.5883270000000  0.4860160000000 1.0
C      1  0.5448940000000  0.4284160000000  0.6138680000000 1.0
C      1  0.5201020000000  0.4748300000000  0.3773960000000 1.0
C      1  0.5167520000000  0.4292880000000  0.4799820000000 1.0
C      1  0.5150510000000  0.4433860000000  0.5299980000000 1.0
C      1  0.4619110000000  0.5729210000000  0.4780320000000 1.0
C      1  0.4274970000000  0.3752090000000  0.5057130000000 1.0
C      1  0.4464780000000  0.5330230000000  0.4229690000000 1.0
C      1  0.4890930000000  0.4419790000000  0.5190190000000 1.0
C      1  0.5058870000000  0.3852690000000  0.4695500000000 1.0
C      1  0.4515760000000  0.4728270000000  0.5108390000000 1.0
C      1  0.4288740000000  0.5250750000000  0.5580850000000 1.0
C      1  0.5789630000000  0.5058400000000  0.6211080000000 1.0
C      1  0.5330310000000  0.5490540000000  0.6312010000000 1.0
C      1  0.5335060000000  0.5531460000000  0.4773750000000 1.0
C      1  0.4929610000000  0.6141530000000  0.5108550000000 1.0
C      1  0.4794810000000  0.5222080000000  0.3787290000000 1.0
C      1  0.5848660000000  0.5106680000000  0.4865810000000 1.0
C      1  0.4239510000000  0.4484570000000  0.5689640000000 1.0
C      1  0.5440280000000  0.4858670000000  0.3716270000000 1.0
C      1  0.5168470000000  0.6011080000000  0.5888930000000 1.0
C      1  0.4390260000000  0.6111930000000  0.4932000000000 1.0
C      1  0.4428990000000  0.5821430000000  0.5513030000000 1.0
C      1  0.5019950000000  0.5667780000000  0.3943730000000 1.0
C      1  0.4347640000000  0.4133960000000  0.4148470000000 1.0
C      1  0.4885150000000  0.5679900000000  0.6123800000000 1.0
C      1  0.5642400000000  0.4654060000000  0.6675990000000 1.0
C      1  0.5551180000000  0.4461140000000  0.4183090000000 1.0
C      1  0.4558950000000  0.5466070000000  0.5212940000000 1.0
C      1  0.5977980000000  0.5774040000000  0.4603870000000 1.0
C      1  0.4019410000000  0.5889110000000  0.5161580000000 1.0
C      1  0.5905320000000  0.5512450000000  0.4520730000000 1.0
C      1  0.5365600000000  0.6390180000000  0.5015100000000 1.0
C      1  0.5677190000000  0.4507650000000  0.5656820000000 1.0
C      1  0.4066180000000  0.5749180000000  0.4705570000000 1.0
C      1  0.6281230000000  0.5328500000000  0.5201280000000 1.0
C      1  0.4812330000000  0.3911760000000  0.4527730000000 1.0
C      1  0.5555160000000  0.5012480000000  0.6362830000000 1.0
C      1  0.5457670000000  0.4695210000000  0.4559560000000 1.0
C      1  0.5247310000000  0.3471680000000  0.4446230000000 1.0
C      1  0.5113960000000  0.6164780000000  0.5652660000000 1.0
C      1  0.6240080000000  0.5282040000000  0.4714930000000 1.0
C      1  0.5301090000000  0.4900060000000  0.4425620000000 1.0
C      1  0.5043510000000  0.4658630000000  0.5891760000000 1.0
C      1  0.4389970000000  0.5164310000000  0.5843760000000 1.0
C      1  0.5279190000000  0.3700520000000  0.4590410000000 1.0
C      1  0.3993150000000  0.4582070000000  0.5566220000000 1.0
C      1  0.5672380000000  0.5571320000000  0.5144140000000 1.0
C      1  0.4526490000000  0.4752070000000  0.3917360000000 1.0
C      1  0.5294090000000  0.5034630000000  0.5796760000000 1.0
C      1  0.3937740000000  0.5641410000000  0.5243280000000 1.0
C      1  0.4491780000000  0.4283700000000  0.5002730000000 1.0
C      1  0.5806590000000  0.4560400000000  0.5060680000000 1.0
C      1  0.5176950000000  0.4268490000000  0.5526190000000 1.0
C      1  0.5533260000000  0.3811040000000  0.4653460000000 1.0
C      1  0.5708230000000  0.4716790000000  0.5472110000000 1.0
C      1  0.5029480000000  0.4094280000000  0.5668400000000 1.0
C      1  0.3930300000000  0.4612120000000  0.4875800000000 1.0
C      1  0.4427070000000  0.4686280000000  0.5739710000000 1.0
C      1  0.5314960000000  0.3989810000000  0.5153980000000 1.0
C      1  0.5260630000000  0.4418870000000  0.4132600000000 1.0
C      1  0.5733480000000  0.4663550000000  0.4062350000000 1.0
C      1  0.5625320000000  0.6301280000000  0.5020130000000 1.0
C      1  0.3966450000000  0.4861930000000  0.5530990000000 1.0
C      1  0.4310180000000  0.4496230000000  0.4610410000000 1.0
C      1  0.4643250000000  0.6067390000000  0.4318700000000 1.0
C      1  0.5985650000000  0.4997860000000  0.5069520000000 1.0
C      1  0.5606820000000  0.4646710000000  0.5222710000000 1.0
C      1  0.4723780000000  0.5555490000000  0.5919980000000 1.0
C      1  0.6076260000000  0.4985230000000  0.4286830000000 1.0
C      1  0.5026540000000  0.6226670000000  0.5402570000000 1.0
C      1  0.5436570000000  0.5099300000000  0.5562360000000 1.0
C      1  0.5155950000000  0.4031290000000  0.4911560000000 1.0
C      1  0.4101740000000  0.4165460000000  0.4255150000000 1.0
C      1  0.5477340000000  0.5298230000000  0.4650800000000 1.0
C      1  0.4768220000000  0.4033870000000  0.5652980000000 1.0
END
