TITL C-247200-3482-455 3068.67360196682 125000 -575.544832796129 0 0 96 (C1) n - 1
REM
REM in /home/nfs/bkarasulu/CARBON/AIRSS/Generating-Clusters/LCBOP/Only-C1/SD-CG/FIRE-HFTN
REM
REM
REM
REM
REM
REM ./C.cell (11c1c37f851c82e70ff6c80c92926a4b)
REM AIRSS Version 0.9.1 bugfix July 2018 build 013d7b7c2542+ Fri, 06 Jul 2018 19:26:36 +0100
REM compiler GCC version 9.2.1 20190827 (Red Hat 9.2.1-1)
REM options -cpp -mtune=generic -march=x86-64 -g -O0 -fpre-include=/usr/include/finclude/math-vector-fortran.h
REM seed -1894254989 -1599464904 288957162 -999057847 1649240050 1566705916 731477859 1576462172 1885412829 -1070210923 -156340166 -52262613 -120988894 -1329030328 1487842454 -1788833679 -61140941 -880587594 398273150 -845896444 271473476 -515647879 -165206611 -491012766 96024463 -318388916 -89152240 1679405014 -707753943 968786301 702026767 -679740089 -392310451
REM
CELL 1.54180   50.00000   50.00000   50.00000   90.00000   90.00000   90.00000
LATT -1
SFAC C  
C      1  0.4752670000000  0.4751980000000  0.5194270000000 1.0
C      1  0.5818920000000  0.4999660000000  0.4768160000000 1.0
C      1  0.5481820000000  0.4219150000000  0.5338240000000 1.0
C      1  0.5860950000000  0.5461430000000  0.5106320000000 1.0
C      1  0.4461200000000  0.4052620000000  0.5256010000000 1.0
C      1  0.5186800000000  0.5426550000000  0.4204210000000 1.0
C      1  0.5054340000000  0.4412840000000  0.4514320000000 1.0
C      1  0.5594090000000  0.4767500000000  0.4179570000000 1.0
C      1  0.5307710000000  0.4693540000000  0.5327800000000 1.0
C      1  0.4906110000000  0.5794140000000  0.4499770000000 1.0
C      1  0.5516330000000  0.5694900000000  0.5405410000000 1.0
C      1  0.5677770000000  0.4508370000000  0.4738920000000 1.0
C      1  0.4912730000000  0.5502150000000  0.5625580000000 1.0
C      1  0.4594810000000  0.4525640000000  0.4505260000000 1.0
C      1  0.5458480000000  0.5050120000000  0.6458600000000 1.0
C      1  0.4462890000000  0.4978110000000  0.4912560000000 1.0
C      1  0.4389640000000  0.4499190000000  0.4700610000000 1.0
C      1  0.4600470000000  0.4619180000000  0.4240850000000 1.0
C      1  0.4844430000000  0.5218700000000  0.5226790000000 1.0
C      1  0.4949070000000  0.5925380000000  0.4764760000000 1.0
C      1  0.5299380000000  0.4426000000000  0.5442230000000 1.0
C      1  0.4639760000000  0.5488070000000  0.5690600000000 1.0
C      1  0.5750000000000  0.5579910000000  0.5336010000000 1.0
C      1  0.5526310000000  0.5679400000000  0.4781860000000 1.0
C      1  0.5317620000000  0.4003760000000  0.5228710000000 1.0
C      1  0.5214030000000  0.4439890000000  0.4965080000000 1.0
C      1  0.4345100000000  0.5694070000000  0.4447890000000 1.0
C      1  0.4101490000000  0.5025900000000  0.5162350000000 1.0
C      1  0.5055800000000  0.5695020000000  0.5206150000000 1.0
C      1  0.5450750000000  0.5871180000000  0.4976500000000 1.0
C      1  0.5626260000000  0.4795420000000  0.4745440000000 1.0
C      1  0.5166180000000  0.5376980000000  0.4803960000000 1.0
C      1  0.5348460000000  0.4853450000000  0.4809730000000 1.0
C      1  0.4886040000000  0.4066900000000  0.5004540000000 1.0
C      1  0.4382090000000  0.4240020000000  0.5435410000000 1.0
C      1  0.5140580000000  0.4953150000000  0.4621000000000 1.0
C      1  0.4525110000000  0.5172210000000  0.4480870000000 1.0
C      1  0.4051090000000  0.5387370000000  0.4768300000000 1.0
C      1  0.4459260000000  0.5546460000000  0.5253090000000 1.0
C      1  0.4871200000000  0.5818180000000  0.5025470000000 1.0
C      1  0.4500070000000  0.4718910000000  0.5350020000000 1.0
C      1  0.5766140000000  0.5263980000000  0.4674620000000 1.0
C      1  0.4594540000000  0.4097130000000  0.5007110000000 1.0
C      1  0.5106320000000  0.5573630000000  0.5811110000000 1.0
C      1  0.5115170000000  0.4587230000000  0.4304100000000 1.0
C      1  0.4461160000000  0.5065920000000  0.4244100000000 1.0
C      1  0.5263370000000  0.4237290000000  0.4594060000000 1.0
C      1  0.5030690000000  0.4082890000000  0.5264380000000 1.0
C      1  0.5220350000000  0.4986560000000  0.5707450000000 1.0
C      1  0.4632470000000  0.5528010000000  0.4757380000000 1.0
C      1  0.5377690000000  0.5023290000000  0.6212200000000 1.0
C      1  0.5353030000000  0.3912160000000  0.4960300000000 1.0
C      1  0.4231990000000  0.5096720000000  0.5820910000000 1.0
C      1  0.4444340000000  0.5404230000000  0.5502740000000 1.0
C      1  0.5433480000000  0.5757560000000  0.6179060000000 1.0
C      1  0.4926410000000  0.4957930000000  0.5306950000000 1.0
C      1  0.5739550000000  0.5495500000000  0.4841570000000 1.0
C      1  0.5288330000000  0.4691170000000  0.5041010000000 1.0
C      1  0.5157980000000  0.4895570000000  0.5452990000000 1.0
C      1  0.5301970000000  0.5569020000000  0.4648400000000 1.0
C      1  0.6005410000000  0.5005860000000  0.4983180000000 1.0
C      1  0.5028310000000  0.4303690000000  0.5458200000000 1.0
C      1  0.4810040000000  0.4618930000000  0.4940170000000 1.0
C      1  0.5528660000000  0.4370000000000  0.4530280000000 1.0
C      1  0.4835180000000  0.4507270000000  0.4667930000000 1.0
C      1  0.4719700000000  0.5273040000000  0.4656390000000 1.0
C      1  0.4395520000000  0.5928070000000  0.4968770000000 1.0
C      1  0.4326080000000  0.5148030000000  0.5562510000000 1.0
C      1  0.5553510000000  0.5035610000000  0.4158060000000 1.0
C      1  0.5720770000000  0.4284210000000  0.5205150000000 1.0
C      1  0.4990440000000  0.5181990000000  0.4705740000000 1.0
C      1  0.4528820000000  0.4472530000000  0.5500940000000 1.0
C      1  0.4029890000000  0.5206420000000  0.4970020000000 1.0
C      1  0.6028400000000  0.5232160000000  0.5132680000000 1.0
C      1  0.5574910000000  0.4513910000000  0.4280330000000 1.0
C      1  0.5086560000000  0.4862080000000  0.4350350000000 1.0
C      1  0.4611670000000  0.5158080000000  0.5058070000000 1.0
C      1  0.4150870000000  0.5042190000000  0.6062480000000 1.0
C      1  0.5436480000000  0.5281140000000  0.4176560000000 1.0
C      1  0.5296590000000  0.5006410000000  0.5960430000000 1.0
C      1  0.4624980000000  0.5701600000000  0.4512920000000 1.0
C      1  0.5267720000000  0.5668970000000  0.5998410000000 1.0
C      1  0.4649520000000  0.4882130000000  0.4145400000000 1.0
C      1  0.4144690000000  0.5557660000000  0.4577800000000 1.0
C      1  0.4338810000000  0.4750830000000  0.4824650000000 1.0
C      1  0.5325580000000  0.5788170000000  0.5219800000000 1.0
C      1  0.4914740000000  0.4995470000000  0.4164230000000 1.0
C      1  0.4971170000000  0.5267850000000  0.4107740000000 1.0
C      1  0.5169860000000  0.4032540000000  0.4779230000000 1.0
C      1  0.5143710000000  0.5630640000000  0.4412630000000 1.0
C      1  0.4296540000000  0.4942140000000  0.5361900000000 1.0
C      1  0.4961990000000  0.5459670000000  0.5344870000000 1.0
C      1  0.5787550000000  0.4379510000000  0.4963010000000 1.0
C      1  0.4589180000000  0.5692230000000  0.5013660000000 1.0
C      1  0.4425090000000  0.4248960000000  0.4832860000000 1.0
C      1  0.4798250000000  0.4410820000000  0.5579010000000 1.0
END
