TITL C-247196-3112-692 -4.87998006348457e-07 125000 -325.261552304719 0 0 55 (C1) n - 1
REM
REM in /home/nfs/bkarasulu/CARBON/AIRSS/Generating-Clusters/LCBOP/Only-C1/SD-CG/FIRE-HFTN
REM
REM
REM
REM
REM
REM ./C.cell (11c1c37f851c82e70ff6c80c92926a4b)
REM AIRSS Version 0.9.1 bugfix July 2018 build 013d7b7c2542+ Fri, 06 Jul 2018 19:26:36 +0100
REM compiler GCC version 9.2.1 20190827 (Red Hat 9.2.1-1)
REM options -cpp -mtune=generic -march=x86-64 -g -O0 -fpre-include=/usr/include/finclude/math-vector-fortran.h
REM seed -913770104 1986628519 2100110112 1079637553 -1671607085 -185739496 1551410184 1234051115 1103272153 -204150300 -2070062968 1356286244 1108842460 -2135091629 525650255 1839584329 -1352583782 -423472836 -319670118 -2141470241 -446818580 1527915958 -545566550 -655654745 -1695787121 1184590982 -521550513 1329805860 -1049478346 710989442 -309304597 -187252910 584761379
REM
CELL 1.54180   50.00000   50.00000   50.00000   90.00000   90.00000   90.00000
LATT -1
SFAC C  
C      1  0.4958610000000  0.5900920000000  0.4945000000000 1.0
C      1  0.5502590000000  0.4247670000000  0.4492100000000 1.0
C      1  0.5486100000000  0.5059370000000  0.4526920000000 1.0
C      1  0.4849350000000  0.5160410000000  0.5299930000000 1.0
C      1  0.4910050000000  0.5787350000000  0.5200470000000 1.0
C      1  0.4391320000000  0.4951100000000  0.5210140000000 1.0
C      1  0.4406410000000  0.4913340000000  0.5494460000000 1.0
C      1  0.4889900000000  0.5748500000000  0.4729900000000 1.0
C      1  0.4354730000000  0.4646790000000  0.5609640000000 1.0
C      1  0.5618020000000  0.4558260000000  0.5085100000000 1.0
C      1  0.5038680000000  0.5302240000000  0.4654400000000 1.0
C      1  0.5489880000000  0.4677390000000  0.5327930000000 1.0
C      1  0.4700170000000  0.4936330000000  0.4607510000000 1.0
C      1  0.4459770000000  0.5686160000000  0.5385200000000 1.0
C      1  0.5448190000000  0.4215480000000  0.4751270000000 1.0
C      1  0.4831880000000  0.5468150000000  0.4767210000000 1.0
C      1  0.4628620000000  0.5070240000000  0.4114550000000 1.0
C      1  0.5600850000000  0.4683220000000  0.4241570000000 1.0
C      1  0.5301320000000  0.4757840000000  0.5764960000000 1.0
C      1  0.5559310000000  0.5109170000000  0.5562960000000 1.0
C      1  0.4564520000000  0.4566770000000  0.5775600000000 1.0
C      1  0.5121790000000  0.5721460000000  0.5378100000000 1.0
C      1  0.5218450000000  0.5316330000000  0.4210090000000 1.0
C      1  0.4918500000000  0.5019380000000  0.5067930000000 1.0
C      1  0.4180710000000  0.4536660000000  0.5021220000000 1.0
C      1  0.4454430000000  0.5201860000000  0.5067130000000 1.0
C      1  0.5563060000000  0.4979850000000  0.4790390000000 1.0
C      1  0.4404510000000  0.4694410000000  0.5068340000000 1.0
C      1  0.5219450000000  0.4695340000000  0.5222690000000 1.0
C      1  0.5143810000000  0.4453640000000  0.5080650000000 1.0
C      1  0.4605950000000  0.4972830000000  0.4361730000000 1.0
C      1  0.5444180000000  0.5353120000000  0.5542870000000 1.0
C      1  0.5046380000000  0.5308870000000  0.4005600000000 1.0
C      1  0.4662860000000  0.5633380000000  0.5201460000000 1.0
C      1  0.5557650000000  0.4428400000000  0.4304280000000 1.0
C      1  0.5706420000000  0.4748960000000  0.4885460000000 1.0
C      1  0.4866790000000  0.4432260000000  0.5022090000000 1.0
C      1  0.4765480000000  0.4776720000000  0.5800570000000 1.0
C      1  0.5631830000000  0.4954620000000  0.4304660000000 1.0
C      1  0.4666800000000  0.4629330000000  0.4973630000000 1.0
C      1  0.4634000000000  0.5425410000000  0.4992560000000 1.0
C      1  0.3970280000000  0.4387900000000  0.4982520000000 1.0
C      1  0.4274500000000  0.5715580000000  0.5566060000000 1.0
C      1  0.5041850000000  0.4752830000000  0.5834830000000 1.0
C      1  0.5193020000000  0.5473650000000  0.5494780000000 1.0
C      1  0.5803770000000  0.5113210000000  0.4162980000000 1.0
C      1  0.4625750000000  0.5001300000000  0.5670110000000 1.0
C      1  0.4976330000000  0.5293670000000  0.5493860000000 1.0
C      1  0.5181250000000  0.4940680000000  0.5092880000000 1.0
C      1  0.4774010000000  0.4875260000000  0.4869260000000 1.0
C      1  0.4802100000000  0.5207150000000  0.3963580000000 1.0
C      1  0.5498490000000  0.4830800000000  0.5570600000000 1.0
C      1  0.5394700000000  0.5085140000000  0.4989280000000 1.0
C      1  0.5407350000000  0.4364240000000  0.4983780000000 1.0
C      1  0.5253290000000  0.5229040000000  0.4477220000000 1.0
END
