TITL C-247202-1916-754 7004.90011300884 125000 -1115.05377691697 0 0 180 (C1) n - 1
REM
REM in /home/nfs/bkarasulu/CARBON/AIRSS/Generating-Clusters/LCBOP/Only-C1/SD-CG/FIRE-HFTN
REM
REM
REM
REM
REM
REM ./C.cell (11c1c37f851c82e70ff6c80c92926a4b)
REM AIRSS Version 0.9.1 bugfix July 2018 build 013d7b7c2542+ Fri, 06 Jul 2018 19:26:36 +0100
REM compiler GCC version 9.2.1 20190827 (Red Hat 9.2.1-1)
REM options -cpp -mtune=generic -march=x86-64 -g -O0 -fpre-include=/usr/include/finclude/math-vector-fortran.h
REM seed 1927141073 -793764505 1585477366 620465833 1982159406 -1172558906 1899078931 -846434431 -1917460061 -1106382006 1749113187 554548202 -291023859 2082257455 -1234852022 -1472812512 -219685382 1025179284 1389555044 -284012326 1215957677 -1202690522 -1905705370 -652400309 -1174315805 961912368 1943772578 -2097982565 -7161598 1624909688 738239298 -821165514 138400482
REM
CELL 1.54180   50.00000   50.00000   50.00000   90.00000   90.00000   90.00000
LATT -1
SFAC C  
C      1  0.5015850000000  0.5655430000000  0.4789220000000 1.0
C      1  0.5834090000000  0.6217620000000  0.4938670000000 1.0
C      1  0.4729880000000  0.4478140000000  0.4679710000000 1.0
C      1  0.4897940000000  0.5673970000000  0.5928320000000 1.0
C      1  0.4552790000000  0.4746350000000  0.5745450000000 1.0
C      1  0.4910570000000  0.3947650000000  0.4312290000000 1.0
C      1  0.5050350000000  0.4313210000000  0.6015100000000 1.0
C      1  0.6144370000000  0.4912180000000  0.4132730000000 1.0
C      1  0.5290120000000  0.4840420000000  0.5650390000000 1.0
C      1  0.6151840000000  0.5547030000000  0.5083770000000 1.0
C      1  0.5355970000000  0.6073540000000  0.5081090000000 1.0
C      1  0.3966420000000  0.4718530000000  0.4341000000000 1.0
C      1  0.4141390000000  0.5279130000000  0.5980260000000 1.0
C      1  0.5781380000000  0.4284040000000  0.5122360000000 1.0
C      1  0.4427340000000  0.5084320000000  0.6401900000000 1.0
C      1  0.5333560000000  0.4359130000000  0.4545420000000 1.0
C      1  0.3875330000000  0.4523070000000  0.5249030000000 1.0
C      1  0.4676710000000  0.4040030000000  0.4215570000000 1.0
C      1  0.5260830000000  0.5348140000000  0.4388200000000 1.0
C      1  0.5719550000000  0.4805190000000  0.4354220000000 1.0
C      1  0.4217770000000  0.5531250000000  0.5378380000000 1.0
C      1  0.5017080000000  0.4752520000000  0.5592160000000 1.0
C      1  0.4780280000000  0.4598900000000  0.3817950000000 1.0
C      1  0.4183310000000  0.5623710000000  0.4427820000000 1.0
C      1  0.5956750000000  0.4726610000000  0.4220360000000 1.0
C      1  0.4876450000000  0.5500360000000  0.3791910000000 1.0
C      1  0.5863050000000  0.4131870000000  0.4525520000000 1.0
C      1  0.3964470000000  0.5326240000000  0.4933710000000 1.0
C      1  0.5711030000000  0.6029440000000  0.4759580000000 1.0
C      1  0.4882050000000  0.5574960000000  0.5665870000000 1.0
C      1  0.5098260000000  0.3959880000000  0.4523810000000 1.0
C      1  0.4460390000000  0.5718760000000  0.4363380000000 1.0
C      1  0.4839640000000  0.4769450000000  0.5840660000000 1.0
C      1  0.4576160000000  0.5789590000000  0.4620500000000 1.0
C      1  0.5623180000000  0.4898340000000  0.5315210000000 1.0
C      1  0.4767880000000  0.3352390000000  0.4961680000000 1.0
C      1  0.6050730000000  0.6025970000000  0.4411840000000 1.0
C      1  0.5758570000000  0.4453770000000  0.5379510000000 1.0
C      1  0.4286470000000  0.3890610000000  0.4875410000000 1.0
C      1  0.4651170000000  0.5346590000000  0.4846910000000 1.0
C      1  0.5533940000000  0.5990640000000  0.5536280000000 1.0
C      1  0.5480670000000  0.5483260000000  0.5070600000000 1.0
C      1  0.4891010000000  0.4286370000000  0.4820990000000 1.0
C      1  0.3636560000000  0.5170640000000  0.4616690000000 1.0
C      1  0.4426290000000  0.4503480000000  0.5664650000000 1.0
C      1  0.4309230000000  0.4145380000000  0.4925240000000 1.0
C      1  0.4073080000000  0.4793580000000  0.4594520000000 1.0
C      1  0.4019850000000  0.4446610000000  0.4270720000000 1.0
C      1  0.4806340000000  0.5762790000000  0.5237690000000 1.0
C      1  0.4714190000000  0.5591390000000  0.5441850000000 1.0
C      1  0.5765860000000  0.6261420000000  0.5197980000000 1.0
C      1  0.3527880000000  0.4961000000000  0.4747110000000 1.0
C      1  0.5088690000000  0.5233140000000  0.6051320000000 1.0
C      1  0.4979540000000  0.4015840000000  0.4779000000000 1.0
C      1  0.5014440000000  0.5662150000000  0.5077320000000 1.0
C      1  0.4463540000000  0.4198870000000  0.4176390000000 1.0
C      1  0.5730360000000  0.5530890000000  0.5661050000000 1.0
C      1  0.5424890000000  0.4402930000000  0.4812870000000 1.0
C      1  0.4549780000000  0.4342530000000  0.5472130000000 1.0
C      1  0.4997000000000  0.4570790000000  0.4256160000000 1.0
C      1  0.5190550000000  0.4321200000000  0.3888550000000 1.0
C      1  0.6195430000000  0.6157220000000  0.4233000000000 1.0
C      1  0.5172070000000  0.5243550000000  0.4651890000000 1.0
C      1  0.4535100000000  0.4704120000000  0.3855620000000 1.0
C      1  0.5913420000000  0.4943160000000  0.4819650000000 1.0
C      1  0.5261060000000  0.4557150000000  0.4360800000000 1.0
C      1  0.5150650000000  0.4675920000000  0.6262800000000 1.0
C      1  0.4905380000000  0.5041340000000  0.5951120000000 1.0
C      1  0.5895140000000  0.5886040000000  0.4597590000000 1.0
C      1  0.4686860000000  0.5041730000000  0.5240400000000 1.0
C      1  0.4680330000000  0.5184680000000  0.6456580000000 1.0
C      1  0.4639570000000  0.6051210000000  0.4702950000000 1.0
C      1  0.4137620000000  0.5552560000000  0.5880790000000 1.0
C      1  0.4521240000000  0.5144100000000  0.5443630000000 1.0
C      1  0.5422010000000  0.4192340000000  0.3932600000000 1.0
C      1  0.5025670000000  0.5436590000000  0.4238030000000 1.0
C      1  0.4545770000000  0.5206450000000  0.3985990000000 1.0
C      1  0.6312610000000  0.5024080000000  0.6308590000000 1.0
C      1  0.4289730000000  0.4418890000000  0.4171430000000 1.0
C      1  0.5586950000000  0.4187040000000  0.4920470000000 1.0
C      1  0.4719300000000  0.5279320000000  0.3773660000000 1.0
C      1  0.5427580000000  0.5981010000000  0.4815710000000 1.0
C      1  0.4725830000000  0.5436970000000  0.6316710000000 1.0
C      1  0.5886820000000  0.5219640000000  0.4898170000000 1.0
C      1  0.4062950000000  0.4547620000000  0.5026820000000 1.0
C      1  0.5326550000000  0.4728170000000  0.5168260000000 1.0
C      1  0.6312700000000  0.5100020000000  0.4067150000000 1.0
C      1  0.4483190000000  0.5423770000000  0.5419770000000 1.0
C      1  0.4193250000000  0.5073640000000  0.5798250000000 1.0
C      1  0.5467900000000  0.4719470000000  0.4257570000000 1.0
C      1  0.3892860000000  0.5288050000000  0.4650050000000 1.0
C      1  0.4602170000000  0.5089120000000  0.4970060000000 1.0
C      1  0.5963590000000  0.4716560000000  0.5004820000000 1.0
C      1  0.5537920000000  0.4760970000000  0.5764760000000 1.0
C      1  0.4325630000000  0.5699300000000  0.6062980000000 1.0
C      1  0.5990120000000  0.4449540000000  0.4183750000000 1.0
C      1  0.3938890000000  0.4713640000000  0.4825710000000 1.0
C      1  0.4242000000000  0.5670850000000  0.4911650000000 1.0
C      1  0.4459040000000  0.5911140000000  0.5920370000000 1.0
C      1  0.5461420000000  0.4036430000000  0.5632690000000 1.0
C      1  0.5383470000000  0.4521810000000  0.6242000000000 1.0
C      1  0.5515980000000  0.4264270000000  0.5800820000000 1.0
C      1  0.4888380000000  0.3582570000000  0.4981970000000 1.0
C      1  0.5711750000000  0.4893610000000  0.4621190000000 1.0
C      1  0.6073440000000  0.5002380000000  0.6207170000000 1.0
C      1  0.6479530000000  0.6416850000000  0.3874810000000 1.0
C      1  0.4948740000000  0.4583940000000  0.6068870000000 1.0
C      1  0.5983060000000  0.4428460000000  0.4941180000000 1.0
C      1  0.5826650000000  0.4717010000000  0.5267620000000 1.0
C      1  0.4770160000000  0.4627270000000  0.4427310000000 1.0
C      1  0.4306260000000  0.4423760000000  0.4954290000000 1.0
C      1  0.4100490000000  0.4892580000000  0.4152270000000 1.0
C      1  0.5151030000000  0.4970280000000  0.5107880000000 1.0
C      1  0.3945360000000  0.4467310000000  0.5511410000000 1.0
C      1  0.5364010000000  0.4067250000000  0.4513320000000 1.0
C      1  0.4488660000000  0.4870240000000  0.4832790000000 1.0
C      1  0.6338890000000  0.6288180000000  0.4052660000000 1.0
C      1  0.4112120000000  0.5508170000000  0.5106770000000 1.0
C      1  0.4448810000000  0.5517030000000  0.6244110000000 1.0
C      1  0.4944670000000  0.5475250000000  0.6132080000000 1.0
C      1  0.5250360000000  0.5056290000000  0.4839130000000 1.0
C      1  0.5610610000000  0.5770360000000  0.5666980000000 1.0
C      1  0.6033120000000  0.5458100000000  0.4838370000000 1.0
C      1  0.4420850000000  0.4986960000000  0.5658220000000 1.0
C      1  0.5132810000000  0.4502260000000  0.5222310000000 1.0
C      1  0.5228070000000  0.4015740000000  0.5470170000000 1.0
C      1  0.4646610000000  0.5116540000000  0.4247210000000 1.0
C      1  0.4715460000000  0.6022960000000  0.5183090000000 1.0
C      1  0.4304790000000  0.5927670000000  0.5672460000000 1.0
C      1  0.5531370000000  0.6135370000000  0.5296950000000 1.0
C      1  0.4919810000000  0.4367310000000  0.5088530000000 1.0
C      1  0.4942690000000  0.4955680000000  0.5301520000000 1.0
C      1  0.4523370000000  0.4585530000000  0.4857030000000 1.0
C      1  0.4096430000000  0.5755640000000  0.4676560000000 1.0
C      1  0.5351300000000  0.4315860000000  0.6037300000000 1.0
C      1  0.5697840000000  0.5164740000000  0.5330520000000 1.0
C      1  0.6083660000000  0.5466290000000  0.5336650000000 1.0
C      1  0.4174550000000  0.5457810000000  0.3781300000000 1.0
C      1  0.5858960000000  0.5355180000000  0.5482010000000 1.0
C      1  0.5434640000000  0.4655240000000  0.4910250000000 1.0
C      1  0.4350000000000  0.4886230000000  0.4583980000000 1.0
C      1  0.5031370000000  0.4198110000000  0.5569540000000 1.0
C      1  0.5174010000000  0.3888980000000  0.5225400000000 1.0
C      1  0.5850450000000  0.4212030000000  0.4248940000000 1.0
C      1  0.5670740000000  0.5284010000000  0.5073610000000 1.0
C      1  0.4506240000000  0.5596610000000  0.4832310000000 1.0
C      1  0.4805310000000  0.5306020000000  0.4393010000000 1.0
C      1  0.4147170000000  0.5681660000000  0.5614630000000 1.0
C      1  0.6035750000000  0.4285000000000  0.4700290000000 1.0
C      1  0.4147870000000  0.4470940000000  0.5685870000000 1.0
C      1  0.4274020000000  0.5292270000000  0.3973670000000 1.0
C      1  0.5647460000000  0.4135710000000  0.4067110000000 1.0
C      1  0.4738870000000  0.5909220000000  0.5962660000000 1.0
C      1  0.4277640000000  0.5265970000000  0.6236260000000 1.0
C      1  0.4377260000000  0.4715260000000  0.4106750000000 1.0
C      1  0.5772610000000  0.5461890000000  0.4423940000000 1.0
C      1  0.5459110000000  0.4880870000000  0.4747710000000 1.0
C      1  0.4902650000000  0.5377260000000  0.4680890000000 1.0
C      1  0.5365870000000  0.5148540000000  0.6041460000000 1.0
C      1  0.5924660000000  0.5603900000000  0.4615660000000 1.0
C      1  0.5223170000000  0.5827820000000  0.4683880000000 1.0
C      1  0.5016300000000  0.3831090000000  0.4996480000000 1.0
C      1  0.5255400000000  0.5570040000000  0.5182900000000 1.0
C      1  0.4671090000000  0.6151700000000  0.4950880000000 1.0
C      1  0.4697820000000  0.4304920000000  0.5255000000000 1.0
C      1  0.4931010000000  0.4151220000000  0.5824830000000 1.0
C      1  0.5583940000000  0.4962680000000  0.5974240000000 1.0
C      1  0.3628860000000  0.4641690000000  0.5153640000000 1.0
C      1  0.5625690000000  0.4029050000000  0.4662620000000 1.0
C      1  0.3661630000000  0.4768610000000  0.4897990000000 1.0
C      1  0.4650340000000  0.5732180000000  0.4151520000000 1.0
C      1  0.4110830000000  0.5179950000000  0.4178750000000 1.0
C      1  0.4985050000000  0.4494230000000  0.3978100000000 1.0
C      1  0.5530450000000  0.5393350000000  0.4335920000000 1.0
C      1  0.4896550000000  0.5613220000000  0.4051630000000 1.0
C      1  0.5831290000000  0.4981410000000  0.6101820000000 1.0
C      1  0.4057570000000  0.5356160000000  0.4409770000000 1.0
C      1  0.5636350000000  0.4492300000000  0.5661070000000 1.0
C      1  0.4547560000000  0.4839170000000  0.4344250000000 1.0
C      1  0.5060270000000  0.4472370000000  0.5495180000000 1.0
END
