TITL C-247198-3593-523 1.08672041891013e-06 125000 -535.255748541853 0 0 90 (C1) n - 1
REM
REM in /home/nfs/bkarasulu/CARBON/AIRSS/Generating-Clusters/LCBOP/Only-C1/SD-CG/FIRE-HFTN
REM
REM
REM
REM
REM
REM ./C.cell (11c1c37f851c82e70ff6c80c92926a4b)
REM AIRSS Version 0.9.1 bugfix July 2018 build 013d7b7c2542+ Fri, 06 Jul 2018 19:26:36 +0100
REM compiler GCC version 9.2.1 20190827 (Red Hat 9.2.1-1)
REM options -cpp -mtune=generic -march=x86-64 -g -O0 -fpre-include=/usr/include/finclude/math-vector-fortran.h
REM seed -774999174 -1798468477 -1331141666 -1451386331 -199408392 1778218550 287180291 -619373407 583127510 2077801426 850218194 -2031999366 -709765283 -470294602 1234281830 -1453404870 -828704033 -1851442214 -513060134 -203670499 -954193619 -757732003 -287592284 398160154 -146712012 -487151426 -934140692 -929290495 -1680436910 -1403619670 -2048411757 1733338049 666538508
REM
CELL 1.54180   50.00000   50.00000   50.00000   90.00000   90.00000   90.00000
LATT -1
SFAC C  
C      1  0.5252150000000  0.5010300000000  0.4679440000000 1.0
C      1  0.5587930000000  0.4366640000000  0.5210140000000 1.0
C      1  0.5134950000000  0.4968620000000  0.5688510000000 1.0
C      1  0.4531220000000  0.4584140000000  0.4593680000000 1.0
C      1  0.4734230000000  0.5557080000000  0.5545480000000 1.0
C      1  0.5966640000000  0.4965020000000  0.4979410000000 1.0
C      1  0.4168680000000  0.5344260000000  0.4941630000000 1.0
C      1  0.5621820000000  0.5060430000000  0.5629100000000 1.0
C      1  0.4432810000000  0.4840480000000  0.4714370000000 1.0
C      1  0.5980350000000  0.4753380000000  0.4816660000000 1.0
C      1  0.4992410000000  0.5638310000000  0.4607530000000 1.0
C      1  0.5266550000000  0.4264030000000  0.4857730000000 1.0
C      1  0.5588190000000  0.3720770000000  0.5086140000000 1.0
C      1  0.5118810000000  0.5287030000000  0.3881370000000 1.0
C      1  0.4810250000000  0.4896120000000  0.5006430000000 1.0
C      1  0.4884590000000  0.5195250000000  0.4029270000000 1.0
C      1  0.4667810000000  0.4506500000000  0.4359580000000 1.0
C      1  0.5753490000000  0.3793170000000  0.4888100000000 1.0
C      1  0.5642030000000  0.4515920000000  0.5437500000000 1.0
C      1  0.4475890000000  0.5232250000000  0.5288140000000 1.0
C      1  0.5144860000000  0.4466170000000  0.5570590000000 1.0
C      1  0.4502760000000  0.5401140000000  0.5511690000000 1.0
C      1  0.5018620000000  0.5347010000000  0.5034280000000 1.0
C      1  0.5047800000000  0.4941790000000  0.5415070000000 1.0
C      1  0.4721490000000  0.5635870000000  0.4179900000000 1.0
C      1  0.5656560000000  0.5487330000000  0.4914260000000 1.0
C      1  0.4720570000000  0.5821810000000  0.3977900000000 1.0
C      1  0.4699880000000  0.5024720000000  0.4742940000000 1.0
C      1  0.4308660000000  0.4669820000000  0.5674360000000 1.0
C      1  0.4696460000000  0.4242800000000  0.4294510000000 1.0
C      1  0.4057810000000  0.5223950000000  0.5642610000000 1.0
C      1  0.5286520000000  0.5073710000000  0.3824910000000 1.0
C      1  0.4700590000000  0.4876620000000  0.5940060000000 1.0
C      1  0.4541670000000  0.6285310000000  0.4907010000000 1.0
C      1  0.5914080000000  0.4508590000000  0.4731120000000 1.0
C      1  0.4286910000000  0.5141420000000  0.5099730000000 1.0
C      1  0.4416010000000  0.5255030000000  0.4136800000000 1.0
C      1  0.5140090000000  0.5783490000000  0.5357040000000 1.0
C      1  0.4992890000000  0.4650750000000  0.5368490000000 1.0
C      1  0.5861040000000  0.5109040000000  0.5197630000000 1.0
C      1  0.4771830000000  0.4708770000000  0.4194120000000 1.0
C      1  0.4467930000000  0.4767370000000  0.5865360000000 1.0
C      1  0.5111370000000  0.5861520000000  0.4736770000000 1.0
C      1  0.5423810000000  0.4599930000000  0.5597720000000 1.0
C      1  0.5001620000000  0.4254070000000  0.4890170000000 1.0
C      1  0.5528590000000  0.4314420000000  0.4942070000000 1.0
C      1  0.5046670000000  0.5062650000000  0.5136670000000 1.0
C      1  0.4248080000000  0.4949780000000  0.4499790000000 1.0
C      1  0.5572840000000  0.5337990000000  0.5623590000000 1.0
C      1  0.4965380000000  0.4819520000000  0.5871910000000 1.0
C      1  0.5411930000000  0.4878610000000  0.5689420000000 1.0
C      1  0.4838010000000  0.4630380000000  0.5129370000000 1.0
C      1  0.5175700000000  0.4841720000000  0.3928530000000 1.0
C      1  0.5834660000000  0.4009500000000  0.4749520000000 1.0
C      1  0.5758360000000  0.4279430000000  0.4775610000000 1.0
C      1  0.4557140000000  0.5299590000000  0.4699510000000 1.0
C      1  0.5275550000000  0.4951200000000  0.4961740000000 1.0
C      1  0.5397190000000  0.5687480000000  0.5276600000000 1.0
C      1  0.4296520000000  0.4870720000000  0.4997050000000 1.0
C      1  0.5495780000000  0.5712340000000  0.5001130000000 1.0
C      1  0.5728760000000  0.5358180000000  0.5165170000000 1.0
C      1  0.4296540000000  0.4404340000000  0.5133540000000 1.0
C      1  0.5095460000000  0.5693560000000  0.5829890000000 1.0
C      1  0.5154530000000  0.4178940000000  0.5507110000000 1.0
C      1  0.4922780000000  0.4900410000000  0.4061880000000 1.0
C      1  0.4220760000000  0.4670000000000  0.5188860000000 1.0
C      1  0.4269470000000  0.5391140000000  0.5673110000000 1.0
C      1  0.4523180000000  0.4281630000000  0.5055940000000 1.0
C      1  0.4253650000000  0.5096930000000  0.4277140000000 1.0
C      1  0.5477240000000  0.5144830000000  0.4572410000000 1.0
C      1  0.4990280000000  0.5674990000000  0.5576950000000 1.0
C      1  0.4699460000000  0.6088240000000  0.4804540000000 1.0
C      1  0.4674180000000  0.5361950000000  0.4113810000000 1.0
C      1  0.5407110000000  0.3784190000000  0.5272210000000 1.0
C      1  0.4329610000000  0.5437000000000  0.4744800000000 1.0
C      1  0.4001350000000  0.4989600000000  0.5519180000000 1.0
C      1  0.4151920000000  0.4756320000000  0.5456230000000 1.0
C      1  0.5014010000000  0.5974810000000  0.5189560000000 1.0
C      1  0.5824290000000  0.4967330000000  0.5444890000000 1.0
C      1  0.4952390000000  0.6013070000000  0.4918460000000 1.0
C      1  0.4985720000000  0.5118620000000  0.4625310000000 1.0
C      1  0.5252470000000  0.3948260000000  0.5415330000000 1.0
C      1  0.5865390000000  0.4687750000000  0.5448870000000 1.0
C      1  0.5019040000000  0.4537680000000  0.5838200000000 1.0
C      1  0.4784480000000  0.4377100000000  0.5017070000000 1.0
C      1  0.5626340000000  0.5345530000000  0.4674680000000 1.0
C      1  0.5571860000000  0.5481330000000  0.5383580000000 1.0
C      1  0.4628400000000  0.5937200000000  0.4571480000000 1.0
C      1  0.4769670000000  0.5721580000000  0.4445790000000 1.0
C      1  0.5004640000000  0.5394430000000  0.4746270000000 1.0
END
