TITL C-247199-3331-385 -4.77738201051896e-07 125000 -572.736107969907 0 0 93 (C1) n - 1
REM
REM in /home/nfs/bkarasulu/CARBON/AIRSS/Generating-Clusters/LCBOP/Only-C1/SD-CG/FIRE-HFTN
REM
REM
REM
REM
REM
REM ./C.cell (11c1c37f851c82e70ff6c80c92926a4b)
REM AIRSS Version 0.9.1 bugfix July 2018 build 013d7b7c2542+ Fri, 06 Jul 2018 19:26:36 +0100
REM compiler GCC version 9.2.1 20190827 (Red Hat 9.2.1-1)
REM options -cpp -mtune=generic -march=x86-64 -g -O0 -fpre-include=/usr/include/finclude/math-vector-fortran.h
REM seed 297641843 -1909365930 1652359088 1101152398 -736928099 -562307550 -1142924980 69492847 322891599 -1251807661 624942211 -1964697505 196468186 -1436658614 697879787 -898845549 -632494964 478295472 347926044 -1882384050 65339116 456861161 -2125474260 -1308850646 235865913 3941115 -1938341967 -1620303501 203339598 -2089442319 -527809711 -709437698 -2022875830
REM
CELL 1.54180   50.00000   50.00000   50.00000   90.00000   90.00000   90.00000
LATT -1
SFAC C  
C      1  0.5564860000000  0.4999320000000  0.5750420000000 1.0
C      1  0.5216220000000  0.3871880000000  0.4809910000000 1.0
C      1  0.5642260000000  0.4804760000000  0.4201040000000 1.0
C      1  0.5172080000000  0.5186010000000  0.4823190000000 1.0
C      1  0.5625050000000  0.4940310000000  0.5264360000000 1.0
C      1  0.4664870000000  0.4810120000000  0.4548720000000 1.0
C      1  0.5779810000000  0.5722080000000  0.4643070000000 1.0
C      1  0.4110570000000  0.5724880000000  0.5605080000000 1.0
C      1  0.5142370000000  0.5268050000000  0.4531750000000 1.0
C      1  0.5957410000000  0.5054380000000  0.4481330000000 1.0
C      1  0.4448600000000  0.4841450000000  0.4731520000000 1.0
C      1  0.4301440000000  0.5331420000000  0.4200840000000 1.0
C      1  0.4951930000000  0.4126610000000  0.5145000000000 1.0
C      1  0.4074020000000  0.4295500000000  0.5231780000000 1.0
C      1  0.4036030000000  0.5392020000000  0.4985810000000 1.0
C      1  0.5616240000000  0.5290510000000  0.4201430000000 1.0
C      1  0.4483230000000  0.4965560000000  0.5952560000000 1.0
C      1  0.5352560000000  0.4527000000000  0.4482990000000 1.0
C      1  0.5254610000000  0.4755840000000  0.3862800000000 1.0
C      1  0.4950980000000  0.5439590000000  0.5685940000000 1.0
C      1  0.4469820000000  0.5137090000000  0.4243400000000 1.0
C      1  0.4309730000000  0.5711290000000  0.5797970000000 1.0
C      1  0.5824250000000  0.4582300000000  0.4601520000000 1.0
C      1  0.4260370000000  0.4907970000000  0.4931710000000 1.0
C      1  0.4578010000000  0.4256630000000  0.4803950000000 1.0
C      1  0.4216040000000  0.4102200000000  0.5106000000000 1.0
C      1  0.5777690000000  0.4408930000000  0.4819680000000 1.0
C      1  0.4490370000000  0.4131090000000  0.5050240000000 1.0
C      1  0.4889760000000  0.4649310000000  0.4627000000000 1.0
C      1  0.4403140000000  0.5214420000000  0.5905070000000 1.0
C      1  0.4669200000000  0.4322640000000  0.5493210000000 1.0
C      1  0.5327610000000  0.4650830000000  0.5593620000000 1.0
C      1  0.4652140000000  0.5712520000000  0.4698630000000 1.0
C      1  0.4422110000000  0.4463730000000  0.5507020000000 1.0
C      1  0.5747170000000  0.5193680000000  0.5283680000000 1.0
C      1  0.4993960000000  0.4769640000000  0.3913200000000 1.0
C      1  0.4114750000000  0.5147570000000  0.4916960000000 1.0
C      1  0.4699150000000  0.5395090000000  0.5245600000000 1.0
C      1  0.5294170000000  0.4252300000000  0.4473700000000 1.0
C      1  0.5177260000000  0.4406640000000  0.5561280000000 1.0
C      1  0.4072040000000  0.5654210000000  0.5079650000000 1.0
C      1  0.4717590000000  0.5277510000000  0.4989840000000 1.0
C      1  0.4787780000000  0.4817460000000  0.4073250000000 1.0
C      1  0.4895850000000  0.4428780000000  0.5637670000000 1.0
C      1  0.5392760000000  0.4583870000000  0.5077770000000 1.0
C      1  0.4920790000000  0.5466100000000  0.5398310000000 1.0
C      1  0.5489460000000  0.4849130000000  0.5031510000000 1.0
C      1  0.5235740000000  0.5513900000000  0.4422820000000 1.0
C      1  0.5581570000000  0.4387640000000  0.5005670000000 1.0
C      1  0.5501080000000  0.4770500000000  0.3962470000000 1.0
C      1  0.4204420000000  0.5836070000000  0.4910810000000 1.0
C      1  0.4816040000000  0.4411670000000  0.4776940000000 1.0
C      1  0.5373100000000  0.5431350000000  0.5489350000000 1.0
C      1  0.5182790000000  0.5466700000000  0.5272940000000 1.0
C      1  0.4692640000000  0.4140120000000  0.5264640000000 1.0
C      1  0.4642870000000  0.5439700000000  0.4773620000000 1.0
C      1  0.4768080000000  0.4843840000000  0.5343730000000 1.0
C      1  0.4641640000000  0.4920840000000  0.4287920000000 1.0
C      1  0.5329700000000  0.4928630000000  0.4796920000000 1.0
C      1  0.4924180000000  0.5079160000000  0.4965630000000 1.0
C      1  0.6004500000000  0.4800200000000  0.4599560000000 1.0
C      1  0.5167070000000  0.5721920000000  0.4612340000000 1.0
C      1  0.5993630000000  0.5542080000000  0.4674380000000 1.0
C      1  0.5245790000000  0.5440110000000  0.4997010000000 1.0
C      1  0.4032820000000  0.5712380000000  0.5350760000000 1.0
C      1  0.4895070000000  0.4676820000000  0.5802620000000 1.0
C      1  0.5612680000000  0.4612600000000  0.4409400000000 1.0
C      1  0.5754510000000  0.5057120000000  0.4275320000000 1.0
C      1  0.6050680000000  0.5292100000000  0.4596660000000 1.0
C      1  0.4210260000000  0.4524860000000  0.5328980000000 1.0
C      1  0.5559230000000  0.4816120000000  0.5521440000000 1.0
C      1  0.5642770000000  0.5402590000000  0.5419470000000 1.0
C      1  0.4945130000000  0.4841130000000  0.5132630000000 1.0
C      1  0.4221440000000  0.4748840000000  0.5160620000000 1.0
C      1  0.5489780000000  0.5525220000000  0.4291180000000 1.0
C      1  0.5109720000000  0.4598100000000  0.5098340000000 1.0
C      1  0.4424050000000  0.5863140000000  0.4760220000000 1.0
C      1  0.4477010000000  0.5474710000000  0.5844220000000 1.0
C      1  0.5322920000000  0.5678390000000  0.4852190000000 1.0
C      1  0.4760440000000  0.5558470000000  0.5850770000000 1.0
C      1  0.4481970000000  0.5930620000000  0.5878710000000 1.0
C      1  0.5183260000000  0.4718710000000  0.4620810000000 1.0
C      1  0.4742570000000  0.5841870000000  0.5910680000000 1.0
C      1  0.5591240000000  0.5767540000000  0.4849400000000 1.0
C      1  0.5273810000000  0.4012370000000  0.4589290000000 1.0
C      1  0.5218780000000  0.5333550000000  0.5724880000000 1.0
C      1  0.4902490000000  0.5815450000000  0.4621910000000 1.0
C      1  0.5145000000000  0.4822070000000  0.5770350000000 1.0
C      1  0.5666430000000  0.5729250000000  0.4381580000000 1.0
C      1  0.5289740000000  0.5075060000000  0.5819500000000 1.0
C      1  0.4671120000000  0.4779040000000  0.5931300000000 1.0
C      1  0.5096710000000  0.3907630000000  0.5048330000000 1.0
C      1  0.4985450000000  0.4369650000000  0.5000720000000 1.0
END
