TITL C-247198-3593-169 -4.67295355791821 125000 -1205.26224687227 0 0 197 (C1) n - 1
REM
REM in /home/nfs/bkarasulu/CARBON/AIRSS/Generating-Clusters/LCBOP/Only-C1/SD-CG/FIRE-HFTN
REM
REM
REM
REM
REM
REM ./C.cell (11c1c37f851c82e70ff6c80c92926a4b)
REM AIRSS Version 0.9.1 bugfix July 2018 build 013d7b7c2542+ Fri, 06 Jul 2018 19:26:36 +0100
REM compiler GCC version 9.2.1 20190827 (Red Hat 9.2.1-1)
REM options -cpp -mtune=generic -march=x86-64 -g -O0 -fpre-include=/usr/include/finclude/math-vector-fortran.h
REM seed 1065118303 618225313 -136526392 -480592769 -878842682 51730393 -280250250 1574982493 771579833 -1085227224 432263124 -1596566225 205096882 671588614 833903675 399661047 -1181244415 743340035 -110106916 758141840 -71630361 1380380515 -114640840 817693387 -1350761248 -1650478245 -835342669 -1650753899 1904996538 -38649558 284130665 -1562279637 535756757
REM
CELL 1.54180   50.00000   50.00000   50.00000   90.00000   90.00000   90.00000
LATT -1
SFAC C  
C      1  0.5465580000000  0.4499300000000  0.5205510000000 1.0
C      1  0.5494030000000  0.4258170000000  0.3942630000000 1.0
C      1  0.5859260000000  0.5011880000000  0.4712170000000 1.0
C      1  0.3826250000000  0.5006690000000  0.5391310000000 1.0
C      1  0.5466010000000  0.4038570000000  0.4993800000000 1.0
C      1  0.5684570000000  0.5129780000000  0.5218570000000 1.0
C      1  0.5730460000000  0.5049420000000  0.4955250000000 1.0
C      1  0.5653080000000  0.6052390000000  0.5051130000000 1.0
C      1  0.5696440000000  0.4270110000000  0.5991550000000 1.0
C      1  0.6029290000000  0.5372700000000  0.3423380000000 1.0
C      1  0.3631680000000  0.3771320000000  0.4753940000000 1.0
C      1  0.4990280000000  0.4121640000000  0.5177350000000 1.0
C      1  0.4450550000000  0.5283710000000  0.6050510000000 1.0
C      1  0.6370760000000  0.4480740000000  0.5724720000000 1.0
C      1  0.5446900000000  0.4323400000000  0.6116300000000 1.0
C      1  0.5909170000000  0.4423180000000  0.4756830000000 1.0
C      1  0.4485300000000  0.6022440000000  0.4322750000000 1.0
C      1  0.5497970000000  0.4786850000000  0.5899200000000 1.0
C      1  0.5608280000000  0.5535150000000  0.5841700000000 1.0
C      1  0.5848010000000  0.5429350000000  0.5888360000000 1.0
C      1  0.5524360000000  0.3828790000000  0.5829710000000 1.0
C      1  0.4858110000000  0.4451950000000  0.5742860000000 1.0
C      1  0.4695450000000  0.5099970000000  0.5973730000000 1.0
C      1  0.4345330000000  0.5953690000000  0.4078950000000 1.0
C      1  0.5164130000000  0.4365240000000  0.4507020000000 1.0
C      1  0.5724960000000  0.4842780000000  0.4524590000000 1.0
C      1  0.4020660000000  0.5692820000000  0.5546670000000 1.0
C      1  0.4985250000000  0.4631100000000  0.5251560000000 1.0
C      1  0.6047980000000  0.5277640000000  0.5795500000000 1.0
C      1  0.5303170000000  0.4715880000000  0.5691830000000 1.0
C      1  0.4538880000000  0.3937810000000  0.5199730000000 1.0
C      1  0.3869230000000  0.3829450000000  0.4663900000000 1.0
C      1  0.6148600000000  0.4425540000000  0.5861530000000 1.0
C      1  0.4145160000000  0.4765360000000  0.4000760000000 1.0
C      1  0.4915460000000  0.4876430000000  0.6008930000000 1.0
C      1  0.4052750000000  0.5193620000000  0.5395500000000 1.0
C      1  0.6317580000000  0.5022340000000  0.4506260000000 1.0
C      1  0.5199900000000  0.5599940000000  0.5305160000000 1.0
C      1  0.4995000000000  0.5282920000000  0.5612670000000 1.0
C      1  0.4298590000000  0.4618000000000  0.4900560000000 1.0
C      1  0.5211070000000  0.5029570000000  0.4782270000000 1.0
C      1  0.5832300000000  0.5637960000000  0.5286100000000 1.0
C      1  0.4367600000000  0.3994680000000  0.5005900000000 1.0
C      1  0.3804020000000  0.4278980000000  0.5319550000000 1.0
C      1  0.4324170000000  0.5433150000000  0.5826630000000 1.0
C      1  0.5610840000000  0.3961640000000  0.4467160000000 1.0
C      1  0.4149240000000  0.5763430000000  0.4126270000000 1.0
C      1  0.4733530000000  0.4357820000000  0.4082980000000 1.0
C      1  0.3983020000000  0.5755980000000  0.4975890000000 1.0
C      1  0.5371860000000  0.5591720000000  0.4872470000000 1.0
C      1  0.5182870000000  0.4291930000000  0.6074210000000 1.0
C      1  0.4780110000000  0.4919690000000  0.3975640000000 1.0
C      1  0.5174570000000  0.5652270000000  0.6019800000000 1.0
C      1  0.3954900000000  0.4279640000000  0.5539760000000 1.0
C      1  0.5048360000000  0.5801590000000  0.4580020000000 1.0
C      1  0.4169480000000  0.4795100000000  0.4730910000000 1.0
C      1  0.3813270000000  0.4632730000000  0.4490510000000 1.0
C      1  0.4138950000000  0.5692900000000  0.4405150000000 1.0
C      1  0.5199340000000  0.6318350000000  0.4888190000000 1.0
C      1  0.5726700000000  0.4198920000000  0.4065000000000 1.0
C      1  0.5440090000000  0.4924140000000  0.6134230000000 1.0
C      1  0.4583960000000  0.4465640000000  0.5614350000000 1.0
C      1  0.3876260000000  0.5591730000000  0.4788670000000 1.0
C      1  0.4119970000000  0.3908440000000  0.4580440000000 1.0
C      1  0.4768510000000  0.6212990000000  0.5167490000000 1.0
C      1  0.5039220000000  0.5788150000000  0.5144150000000 1.0
C      1  0.4400870000000  0.5205060000000  0.4431420000000 1.0
C      1  0.4916180000000  0.4389620000000  0.5118590000000 1.0
C      1  0.4985500000000  0.6068910000000  0.4501060000000 1.0
C      1  0.5861770000000  0.4315170000000  0.5000710000000 1.0
C      1  0.4094470000000  0.4685050000000  0.4473110000000 1.0
C      1  0.5473430000000  0.5401460000000  0.4231430000000 1.0
C      1  0.5321650000000  0.4812190000000  0.3829210000000 1.0
C      1  0.6174570000000  0.5572150000000  0.4764910000000 1.0
C      1  0.4487850000000  0.4602010000000  0.5366510000000 1.0
C      1  0.5451420000000  0.4698670000000  0.5422990000000 1.0
C      1  0.6491280000000  0.4643320000000  0.5550510000000 1.0
C      1  0.5657260000000  0.4913270000000  0.5404200000000 1.0
C      1  0.5817140000000  0.4576230000000  0.4553570000000 1.0
C      1  0.4377730000000  0.6486490000000  0.5078380000000 1.0
C      1  0.3686320000000  0.4425120000000  0.5130240000000 1.0
C      1  0.4166160000000  0.5062240000000  0.4827200000000 1.0
C      1  0.5851430000000  0.5249220000000  0.3568560000000 1.0
C      1  0.4821630000000  0.6000550000000  0.5804350000000 1.0
C      1  0.6258680000000  0.5239270000000  0.5155880000000 1.0
C      1  0.4067130000000  0.4454720000000  0.5726030000000 1.0
C      1  0.4647170000000  0.5628450000000  0.4797550000000 1.0
C      1  0.4802060000000  0.4960510000000  0.4251970000000 1.0
C      1  0.5490830000000  0.5121050000000  0.4173210000000 1.0
C      1  0.4501740000000  0.5693220000000  0.5465550000000 1.0
C      1  0.4237840000000  0.3883490000000  0.4319230000000 1.0
C      1  0.4882420000000  0.5080200000000  0.5447410000000 1.0
C      1  0.5042990000000  0.5598640000000  0.4374530000000 1.0
C      1  0.4904470000000  0.5569830000000  0.5989750000000 1.0
C      1  0.4278460000000  0.6677850000000  0.4931970000000 1.0
C      1  0.5190480000000  0.4575240000000  0.3752100000000 1.0
C      1  0.4975890000000  0.4800540000000  0.4416010000000 1.0
C      1  0.6203080000000  0.5309160000000  0.4885840000000 1.0
C      1  0.5018950000000  0.4915380000000  0.5258880000000 1.0
C      1  0.4668920000000  0.5195510000000  0.4346890000000 1.0
C      1  0.3666330000000  0.4671000000000  0.4993490000000 1.0
C      1  0.4744000000000  0.6115490000000  0.4365880000000 1.0
C      1  0.5222090000000  0.4920340000000  0.4522650000000 1.0
C      1  0.5018260000000  0.3961570000000  0.5768340000000 1.0
C      1  0.5054610000000  0.3859650000000  0.4787870000000 1.0
C      1  0.5022200000000  0.4695210000000  0.5795980000000 1.0
C      1  0.5594320000000  0.3944400000000  0.4750290000000 1.0
C      1  0.4745350000000  0.5143730000000  0.4835750000000 1.0
C      1  0.4538600000000  0.4946030000000  0.5774760000000 1.0
C      1  0.5366400000000  0.3947030000000  0.4323540000000 1.0
C      1  0.4572060000000  0.4649680000000  0.4925160000000 1.0
C      1  0.3771850000000  0.4854590000000  0.5623720000000 1.0
C      1  0.4792050000000  0.3965040000000  0.5312570000000 1.0
C      1  0.5444430000000  0.6217220000000  0.4997560000000 1.0
C      1  0.5180100000000  0.3989460000000  0.5009270000000 1.0
C      1  0.5842280000000  0.5839850000000  0.5078790000000 1.0
C      1  0.6267760000000  0.5076260000000  0.5389110000000 1.0
C      1  0.5653170000000  0.5415730000000  0.5244700000000 1.0
C      1  0.5555800000000  0.5565040000000  0.4668440000000 1.0
C      1  0.4340060000000  0.5874190000000  0.4529650000000 1.0
C      1  0.4383640000000  0.5622380000000  0.5223780000000 1.0
C      1  0.4535220000000  0.4158630000000  0.4557010000000 1.0
C      1  0.4353780000000  0.4497780000000  0.5787060000000 1.0
C      1  0.4261430000000  0.5784210000000  0.5019360000000 1.0
C      1  0.6175510000000  0.5580560000000  0.4475580000000 1.0
C      1  0.6130980000000  0.5091810000000  0.4706120000000 1.0
C      1  0.5223780000000  0.4344270000000  0.3916040000000 1.0
C      1  0.4991180000000  0.4225460000000  0.5872770000000 1.0
C      1  0.5804970000000  0.4076730000000  0.4295420000000 1.0
C      1  0.4923970000000  0.4524760000000  0.4489710000000 1.0
C      1  0.4324250000000  0.4047820000000  0.4736960000000 1.0
C      1  0.6388560000000  0.5460110000000  0.4334170000000 1.0
C      1  0.5614550000000  0.4253540000000  0.5134300000000 1.0
C      1  0.4255280000000  0.4637760000000  0.4229130000000 1.0
C      1  0.5366230000000  0.4571740000000  0.4945770000000 1.0
C      1  0.4901890000000  0.5993590000000  0.5289530000000 1.0
C      1  0.4296640000000  0.6125800000000  0.5389530000000 1.0
C      1  0.4500620000000  0.4486590000000  0.4166660000000 1.0
C      1  0.4106730000000  0.5413470000000  0.5609250000000 1.0
C      1  0.5716240000000  0.4005790000000  0.5893570000000 1.0
C      1  0.4820750000000  0.5430300000000  0.4353140000000 1.0
C      1  0.4969060000000  0.3924930000000  0.4539060000000 1.0
C      1  0.4961140000000  0.6377510000000  0.5035840000000 1.0
C      1  0.3911650000000  0.4695390000000  0.5806870000000 1.0
C      1  0.4033370000000  0.5490730000000  0.4575520000000 1.0
C      1  0.4095130000000  0.4836280000000  0.5978710000000 1.0
C      1  0.5656960000000  0.5520710000000  0.4411910000000 1.0
C      1  0.4712820000000  0.5758830000000  0.5897880000000 1.0
C      1  0.4485780000000  0.6267500000000  0.5219030000000 1.0
C      1  0.4500350000000  0.5650570000000  0.5743150000000 1.0
C      1  0.4111420000000  0.5947830000000  0.5488990000000 1.0
C      1  0.4439060000000  0.4889760000000  0.5315160000000 1.0
C      1  0.4707830000000  0.4959410000000  0.3728080000000 1.0
C      1  0.6459550000000  0.4870850000000  0.5413230000000 1.0
C      1  0.5770030000000  0.4728110000000  0.5827170000000 1.0
C      1  0.5258060000000  0.3818910000000  0.5806700000000 1.0
C      1  0.5218330000000  0.5682460000000  0.3928890000000 1.0
C      1  0.3715660000000  0.4904590000000  0.5148910000000 1.0
C      1  0.4478470000000  0.4017590000000  0.4308780000000 1.0
C      1  0.5244530000000  0.5562430000000  0.4173610000000 1.0
C      1  0.4641510000000  0.5379270000000  0.4924650000000 1.0
C      1  0.5268350000000  0.5786770000000  0.6237170000000 1.0
C      1  0.5920840000000  0.5593660000000  0.4355550000000 1.0
C      1  0.5409540000000  0.5506320000000  0.5138610000000 1.0
C      1  0.5126400000000  0.5748050000000  0.4853010000000 1.0
C      1  0.4030780000000  0.4894070000000  0.3805140000000 1.0
C      1  0.6444380000000  0.5195160000000  0.4341010000000 1.0
C      1  0.4876730000000  0.5313910000000  0.5871140000000 1.0
C      1  0.5006610000000  0.4239040000000  0.4085130000000 1.0
C      1  0.4445890000000  0.5363700000000  0.5128280000000 1.0
C      1  0.5418820000000  0.5057670000000  0.6357050000000 1.0
C      1  0.4732910000000  0.4424090000000  0.4907190000000 1.0
C      1  0.5057290000000  0.4557090000000  0.3513980000000 1.0
C      1  0.5481540000000  0.4938290000000  0.4394560000000 1.0
C      1  0.6008280000000  0.5675530000000  0.5491440000000 1.0
C      1  0.5336300000000  0.5575270000000  0.5795000000000 1.0
C      1  0.6051910000000  0.5788930000000  0.4896870000000 1.0
C      1  0.4268960000000  0.5120780000000  0.5169510000000 1.0
C      1  0.5672940000000  0.5128050000000  0.3722320000000 1.0
C      1  0.4613600000000  0.5004790000000  0.5510340000000 1.0
C      1  0.4691600000000  0.4887160000000  0.4850640000000 1.0
C      1  0.5146580000000  0.6269460000000  0.4614250000000 1.0
C      1  0.5118320000000  0.4107590000000  0.4347760000000 1.0
C      1  0.5157880000000  0.5028950000000  0.5043290000000 1.0
C      1  0.4188780000000  0.5253670000000  0.4615940000000 1.0
C      1  0.5188060000000  0.5486240000000  0.5561190000000 1.0
C      1  0.5335210000000  0.4452690000000  0.4707100000000 1.0
C      1  0.5493390000000  0.5020240000000  0.3907330000000 1.0
C      1  0.4938040000000  0.6033660000000  0.5565590000000 1.0
C      1  0.3657260000000  0.4661920000000  0.4710580000000 1.0
C      1  0.4430850000000  0.5810440000000  0.4787390000000 1.0
C      1  0.4725890000000  0.4357870000000  0.4630180000000 1.0
C      1  0.5876580000000  0.4475630000000  0.5907350000000 1.0
C      1  0.4843950000000  0.3876460000000  0.5570100000000 1.0
C      1  0.6072060000000  0.5076950000000  0.5600630000000 1.0
C      1  0.5859920000000  0.4886740000000  0.5605760000000 1.0
C      1  0.4358570000000  0.4767880000000  0.5899210000000 1.0
END
