TITL C-247202-1916-107 -1.81266663139342e-07 125000 -203.248721540622 0 0 34 (C1) n - 1
REM
REM in /home/nfs/bkarasulu/CARBON/AIRSS/Generating-Clusters/LCBOP/Only-C1/SD-CG/FIRE-HFTN
REM
REM
REM
REM
REM
REM ./C.cell (11c1c37f851c82e70ff6c80c92926a4b)
REM AIRSS Version 0.9.1 bugfix July 2018 build 013d7b7c2542+ Fri, 06 Jul 2018 19:26:36 +0100
REM compiler GCC version 9.2.1 20190827 (Red Hat 9.2.1-1)
REM options -cpp -mtune=generic -march=x86-64 -g -O0 -fpre-include=/usr/include/finclude/math-vector-fortran.h
REM seed -97000308 940123704 1715531648 -1591812360 1340506308 -437000067 -1449012282 136918352 -522787137 -428560983 1641302506 546147718 -1922479605 10348165 1194340312 -306892458 1248643019 99298960 607779972 1660373846 -1392855657 -1047755784 -2133119045 -1839755821 1801334757 329566437 -1419448396 1227557595 -1143157791 243478630 2096023620 268984192 1749802247
REM
CELL 1.54180   50.00000   50.00000   50.00000   90.00000   90.00000   90.00000
LATT -1
SFAC C  
C      1  0.5088890000000  0.5397750000000  0.5036620000000 1.0
C      1  0.5183770000000  0.3948460000000  0.5123580000000 1.0
C      1  0.5246510000000  0.4479960000000  0.5055330000000 1.0
C      1  0.4809410000000  0.5472220000000  0.5036170000000 1.0
C      1  0.4670510000000  0.5516540000000  0.5275070000000 1.0
C      1  0.4816850000000  0.5324510000000  0.4347690000000 1.0
C      1  0.4363750000000  0.4989120000000  0.4818510000000 1.0
C      1  0.4545820000000  0.4882430000000  0.5579840000000 1.0
C      1  0.4489890000000  0.5142780000000  0.5571040000000 1.0
C      1  0.4883360000000  0.4638600000000  0.4434360000000 1.0
C      1  0.5258670000000  0.5497670000000  0.4831940000000 1.0
C      1  0.4975310000000  0.4616030000000  0.5449030000000 1.0
C      1  0.4968400000000  0.4858110000000  0.4572790000000 1.0
C      1  0.5064310000000  0.4660730000000  0.5180550000000 1.0
C      1  0.5216350000000  0.4204380000000  0.5086760000000 1.0
C      1  0.5013810000000  0.4914370000000  0.5058670000000 1.0
C      1  0.5443420000000  0.4998730000000  0.5569300000000 1.0
C      1  0.5181610000000  0.5026690000000  0.4476040000000 1.0
C      1  0.4852260000000  0.4935350000000  0.4822230000000 1.0
C      1  0.5104560000000  0.5289800000000  0.4404690000000 1.0
C      1  0.5176770000000  0.4600080000000  0.5646610000000 1.0
C      1  0.5440070000000  0.4932130000000  0.4529920000000 1.0
C      1  0.5534340000000  0.4750130000000  0.4703000000000 1.0
C      1  0.5378420000000  0.4771390000000  0.5697060000000 1.0
C      1  0.5453180000000  0.4583040000000  0.4894950000000 1.0
C      1  0.5171180000000  0.5535300000000  0.4564840000000 1.0
C      1  0.4614520000000  0.5096170000000  0.4813870000000 1.0
C      1  0.4543410000000  0.5382730000000  0.5467980000000 1.0
C      1  0.5152500000000  0.5148040000000  0.5156650000000 1.0
C      1  0.5344960000000  0.5132370000000  0.5359620000000 1.0
C      1  0.4708790000000  0.5506580000000  0.4550470000000 1.0
C      1  0.4714220000000  0.4683490000000  0.5524200000000 1.0
C      1  0.4927980000000  0.5704680000000  0.4555640000000 1.0
C      1  0.4662200000000  0.5379630000000  0.4804980000000 1.0
END
