TITL C-247198-3593-316 3.21321515761843 125000 -818.991195011131 0 0 134 (C1) n - 1
REM
REM in /home/nfs/bkarasulu/CARBON/AIRSS/Generating-Clusters/LCBOP/Only-C1/SD-CG/FIRE-HFTN
REM
REM
REM
REM
REM
REM ./C.cell (11c1c37f851c82e70ff6c80c92926a4b)
REM AIRSS Version 0.9.1 bugfix July 2018 build 013d7b7c2542+ Fri, 06 Jul 2018 19:26:36 +0100
REM compiler GCC version 9.2.1 20190827 (Red Hat 9.2.1-1)
REM options -cpp -mtune=generic -march=x86-64 -g -O0 -fpre-include=/usr/include/finclude/math-vector-fortran.h
REM seed -2116636655 -668231662 937056195 -254224454 1649469261 1658155268 444850161 671196999 807515000 829826928 -2095116848 204858483 -2112865032 1338838306 954646045 -53220392 1262181044 291388846 1677715965 -901695828 1782148612 -2019731521 1318243467 795794209 -1427749664 -424513165 1443551496 -1666144711 835064315 1354748221 669051270 772591325 673943926
REM
CELL 1.54180   50.00000   50.00000   50.00000   90.00000   90.00000   90.00000
LATT -1
SFAC C  
C      1  0.5568140000000  0.5538980000000  0.5703620000000 1.0
C      1  0.6059930000000  0.5417610000000  0.5137800000000 1.0
C      1  0.4509360000000  0.3916380000000  0.4586010000000 1.0
C      1  0.5134920000000  0.5435180000000  0.5515300000000 1.0
C      1  0.4856860000000  0.5387230000000  0.4882470000000 1.0
C      1  0.4742760000000  0.6572620000000  0.5380840000000 1.0
C      1  0.5385620000000  0.5059670000000  0.5672400000000 1.0
C      1  0.5407930000000  0.4166650000000  0.4801250000000 1.0
C      1  0.4841840000000  0.5736310000000  0.5811320000000 1.0
C      1  0.5045030000000  0.4637620000000  0.5074830000000 1.0
C      1  0.5583340000000  0.4713580000000  0.5146000000000 1.0
C      1  0.4335660000000  0.5896140000000  0.6318460000000 1.0
C      1  0.4934750000000  0.4145830000000  0.4626900000000 1.0
C      1  0.4372160000000  0.4498430000000  0.5413630000000 1.0
C      1  0.5168340000000  0.4250540000000  0.5696280000000 1.0
C      1  0.4105710000000  0.4198360000000  0.4775060000000 1.0
C      1  0.5127900000000  0.4908180000000  0.5671930000000 1.0
C      1  0.4901350000000  0.5088690000000  0.4831340000000 1.0
C      1  0.4595800000000  0.4683290000000  0.4981950000000 1.0
C      1  0.4693400000000  0.5536190000000  0.5036940000000 1.0
C      1  0.5729790000000  0.4485510000000  0.5036190000000 1.0
C      1  0.4080800000000  0.4269140000000  0.5046130000000 1.0
C      1  0.5576560000000  0.4530850000000  0.5596100000000 1.0
C      1  0.5611330000000  0.4834690000000  0.4107630000000 1.0
C      1  0.4271480000000  0.5270040000000  0.4523750000000 1.0
C      1  0.4744860000000  0.4241580000000  0.5500090000000 1.0
C      1  0.5943550000000  0.4364310000000  0.5155280000000 1.0
C      1  0.4723580000000  0.6360590000000  0.5551930000000 1.0
C      1  0.5553000000000  0.4991330000000  0.5056550000000 1.0
C      1  0.6073200000000  0.4933730000000  0.4830440000000 1.0
C      1  0.4656880000000  0.5511690000000  0.5783260000000 1.0
C      1  0.5397750000000  0.4750170000000  0.4585650000000 1.0
C      1  0.4452350000000  0.5471340000000  0.4093180000000 1.0
C      1  0.5765320000000  0.5023850000000  0.4263450000000 1.0
C      1  0.4824060000000  0.4515440000000  0.4941090000000 1.0
C      1  0.4816130000000  0.5323860000000  0.3801890000000 1.0
C      1  0.5218290000000  0.4468850000000  0.5887100000000 1.0
C      1  0.5547430000000  0.4325580000000  0.4197590000000 1.0
C      1  0.4519390000000  0.4685080000000  0.5267400000000 1.0
C      1  0.5217760000000  0.4173450000000  0.4571570000000 1.0
C      1  0.4723630000000  0.4051490000000  0.4457710000000 1.0
C      1  0.5142110000000  0.4764540000000  0.4205200000000 1.0
C      1  0.4623120000000  0.4976380000000  0.4916870000000 1.0
C      1  0.5286060000000  0.4289970000000  0.4310420000000 1.0
C      1  0.5498620000000  0.4513700000000  0.5856010000000 1.0
C      1  0.4113760000000  0.4560430000000  0.4433170000000 1.0
C      1  0.4590310000000  0.4550030000000  0.5853870000000 1.0
C      1  0.5327030000000  0.4041780000000  0.5575910000000 1.0
C      1  0.4363950000000  0.6131540000000  0.6198100000000 1.0
C      1  0.5004560000000  0.4351770000000  0.5485130000000 1.0
C      1  0.5049190000000  0.4710370000000  0.5870230000000 1.0
C      1  0.6061110000000  0.4889730000000  0.5349670000000 1.0
C      1  0.4679530000000  0.5029070000000  0.5989280000000 1.0
C      1  0.4583230000000  0.4925930000000  0.4342330000000 1.0
C      1  0.5893890000000  0.5716930000000  0.4555880000000 1.0
C      1  0.4689730000000  0.4015920000000  0.5337480000000 1.0
C      1  0.5864100000000  0.5225760000000  0.4446000000000 1.0
C      1  0.5334600000000  0.4886360000000  0.4027400000000 1.0
C      1  0.4277640000000  0.3988840000000  0.4699430000000 1.0
C      1  0.5468050000000  0.5625390000000  0.3978450000000 1.0
C      1  0.5102090000000  0.4482410000000  0.4198210000000 1.0
C      1  0.5895390000000  0.4935530000000  0.5555600000000 1.0
C      1  0.5753720000000  0.5640580000000  0.5508920000000 1.0
C      1  0.5119980000000  0.5699030000000  0.5408960000000 1.0
C      1  0.5069070000000  0.4914890000000  0.5021550000000 1.0
C      1  0.4768920000000  0.4754110000000  0.5944380000000 1.0
C      1  0.3712510000000  0.4293320000000  0.4502590000000 1.0
C      1  0.5698910000000  0.6044660000000  0.4901760000000 1.0
C      1  0.4357370000000  0.5169990000000  0.3720200000000 1.0
C      1  0.5460560000000  0.5246250000000  0.4941920000000 1.0
C      1  0.3977580000000  0.4351030000000  0.4570080000000 1.0
C      1  0.4543570000000  0.5328150000000  0.3868540000000 1.0
C      1  0.4346620000000  0.4997660000000  0.4455500000000 1.0
C      1  0.4751120000000  0.4053820000000  0.5067280000000 1.0
C      1  0.5607760000000  0.4375010000000  0.4806430000000 1.0
C      1  0.5378110000000  0.3979600000000  0.5314190000000 1.0
C      1  0.4837180000000  0.4241590000000  0.4877270000000 1.0
C      1  0.4441280000000  0.4335950000000  0.4139720000000 1.0
C      1  0.5172020000000  0.4865570000000  0.4467040000000 1.0
C      1  0.4859800000000  0.6120960000000  0.5501090000000 1.0
C      1  0.4139510000000  0.4815970000000  0.4548850000000 1.0
C      1  0.4905260000000  0.5283620000000  0.5491600000000 1.0
C      1  0.4195780000000  0.4715530000000  0.3972300000000 1.0
C      1  0.5655030000000  0.4971040000000  0.5670330000000 1.0
C      1  0.4566980000000  0.6375650000000  0.5784080000000 1.0
C      1  0.4605180000000  0.5310390000000  0.5991690000000 1.0
C      1  0.4645290000000  0.4185730000000  0.4223860000000 1.0
C      1  0.5249940000000  0.5542830000000  0.3850380000000 1.0
C      1  0.4536520000000  0.4394670000000  0.5621610000000 1.0
C      1  0.3465300000000  0.4241780000000  0.4438260000000 1.0
C      1  0.5155360000000  0.4523910000000  0.5307220000000 1.0
C      1  0.5330740000000  0.5245260000000  0.4686860000000 1.0
C      1  0.4252660000000  0.4933510000000  0.3830270000000 1.0
C      1  0.4279720000000  0.5251020000000  0.3470360000000 1.0
C      1  0.5508040000000  0.5677790000000  0.5942760000000 1.0
C      1  0.6011470000000  0.5175320000000  0.4698080000000 1.0
C      1  0.5429870000000  0.4600040000000  0.5361990000000 1.0
C      1  0.4372190000000  0.5632780000000  0.6330170000000 1.0
C      1  0.4552950000000  0.5115130000000  0.5173610000000 1.0
C      1  0.4469270000000  0.5412090000000  0.6216720000000 1.0
C      1  0.4235700000000  0.4523800000000  0.4174620000000 1.0
C      1  0.3980890000000  0.4979530000000  0.4727180000000 1.0
C      1  0.4163700000000  0.4366700000000  0.5280880000000 1.0
C      1  0.4445860000000  0.6296940000000  0.6006930000000 1.0
C      1  0.5664700000000  0.5580730000000  0.4150640000000 1.0
C      1  0.5587380000000  0.4568860000000  0.4609740000000 1.0
C      1  0.5673190000000  0.4553400000000  0.4112850000000 1.0
C      1  0.6091270000000  0.5404400000000  0.4858240000000 1.0
C      1  0.4588570000000  0.3783280000000  0.5436330000000 1.0
C      1  0.4347780000000  0.5465380000000  0.4339780000000 1.0
C      1  0.5804930000000  0.5507380000000  0.4380750000000 1.0
C      1  0.4079690000000  0.5412330000000  0.4972930000000 1.0
C      1  0.5744070000000  0.5929010000000  0.4663720000000 1.0
C      1  0.5098140000000  0.5099530000000  0.4601680000000 1.0
C      1  0.5016970000000  0.5764350000000  0.6031480000000 1.0
C      1  0.5369880000000  0.5342050000000  0.5633230000000 1.0
C      1  0.4649810000000  0.5418540000000  0.5512500000000 1.0
C      1  0.5707260000000  0.6037810000000  0.5169380000000 1.0
C      1  0.4645390000000  0.4919710000000  0.5378110000000 1.0
C      1  0.5722260000000  0.5900620000000  0.5399460000000 1.0
C      1  0.6119640000000  0.4868660000000  0.5088300000000 1.0
C      1  0.5378740000000  0.4018830000000  0.5045510000000 1.0
C      1  0.5939780000000  0.5480690000000  0.5368740000000 1.0
C      1  0.5234140000000  0.5069000000000  0.3842240000000 1.0
C      1  0.4940870000000  0.5861880000000  0.5563000000000 1.0
C      1  0.4231580000000  0.5477540000000  0.5186780000000 1.0
C      1  0.4898280000000  0.5001590000000  0.5508400000000 1.0
C      1  0.4512450000000  0.5411360000000  0.5244200000000 1.0
C      1  0.4076510000000  0.5255470000000  0.4741580000000 1.0
C      1  0.5428820000000  0.5497500000000  0.5070640000000 1.0
C      1  0.5282810000000  0.5751450000000  0.6070200000000 1.0
C      1  0.6116800000000  0.5641740000000  0.4711630000000 1.0
C      1  0.5277570000000  0.5699250000000  0.5173520000000 1.0
C      1  0.5095360000000  0.5312090000000  0.3813500000000 1.0
END
