TITL C-247202-1916-470 0.952670880918031 125000 -472.61123207601 0 0 77 (C1) n - 1
REM
REM in /home/nfs/bkarasulu/CARBON/AIRSS/Generating-Clusters/LCBOP/Only-C1/SD-CG/FIRE-HFTN
REM
REM
REM
REM
REM
REM ./C.cell (11c1c37f851c82e70ff6c80c92926a4b)
REM AIRSS Version 0.9.1 bugfix July 2018 build 013d7b7c2542+ Fri, 06 Jul 2018 19:26:36 +0100
REM compiler GCC version 9.2.1 20190827 (Red Hat 9.2.1-1)
REM options -cpp -mtune=generic -march=x86-64 -g -O0 -fpre-include=/usr/include/finclude/math-vector-fortran.h
REM seed -1929632302 1301799796 1133112516 872659780 -1936056219 -263303099 -977598480 -14766984 -1976714388 -19535879 -462741869 -476173654 -1605957329 1012088380 -1355495362 -596832159 -567996881 -454611709 -1656672776 1598022716 781290454 2049292472 1409564891 -1219569778 1709093649 -604570156 461270901 1316181970 1353564306 79926045 1583099413 -696547080 411931227
REM
CELL 1.54180   50.00000   50.00000   50.00000   90.00000   90.00000   90.00000
LATT -1
SFAC C  
C      1  0.4145160000000  0.5138610000000  0.5797690000000 1.0
C      1  0.5368090000000  0.5256170000000  0.4527700000000 1.0
C      1  0.4866340000000  0.5791900000000  0.5124180000000 1.0
C      1  0.4294180000000  0.4640310000000  0.4774170000000 1.0
C      1  0.5397220000000  0.4281210000000  0.4968830000000 1.0
C      1  0.4480040000000  0.5259310000000  0.4463630000000 1.0
C      1  0.4884060000000  0.4345970000000  0.4899530000000 1.0
C      1  0.5144740000000  0.4956660000000  0.5395490000000 1.0
C      1  0.5351660000000  0.5033590000000  0.5579670000000 1.0
C      1  0.4582570000000  0.5737670000000  0.5159580000000 1.0
C      1  0.5423670000000  0.6218580000000  0.5285730000000 1.0
C      1  0.4927030000000  0.5806250000000  0.4836040000000 1.0
C      1  0.4857080000000  0.4463210000000  0.4409570000000 1.0
C      1  0.4830820000000  0.4932200000000  0.4486580000000 1.0
C      1  0.4170510000000  0.5389370000000  0.5707890000000 1.0
C      1  0.4454340000000  0.5730100000000  0.4895390000000 1.0
C      1  0.6059050000000  0.4971940000000  0.4947600000000 1.0
C      1  0.4749330000000  0.4715320000000  0.4333210000000 1.0
C      1  0.5647070000000  0.5295040000000  0.4493080000000 1.0
C      1  0.5632880000000  0.4114380000000  0.4284800000000 1.0
C      1  0.4438240000000  0.5665140000000  0.5387920000000 1.0
C      1  0.5120090000000  0.4208280000000  0.5002020000000 1.0
C      1  0.5244400000000  0.6031340000000  0.5312540000000 1.0
C      1  0.4222340000000  0.5498280000000  0.5456230000000 1.0
C      1  0.5879720000000  0.4599310000000  0.4562860000000 1.0
C      1  0.4680120000000  0.4864570000000  0.5974490000000 1.0
C      1  0.5011440000000  0.5507410000000  0.5769620000000 1.0
C      1  0.4749240000000  0.4493480000000  0.5103660000000 1.0
C      1  0.4162020000000  0.5121610000000  0.4817770000000 1.0
C      1  0.4954550000000  0.5300330000000  0.5926030000000 1.0
C      1  0.5014320000000  0.4709950000000  0.5450350000000 1.0
C      1  0.5363820000000  0.5885420000000  0.4632730000000 1.0
C      1  0.5616140000000  0.5040260000000  0.5511720000000 1.0
C      1  0.4451720000000  0.4779960000000  0.5865190000000 1.0
C      1  0.4244860000000  0.5164370000000  0.4551220000000 1.0
C      1  0.4164270000000  0.4790440000000  0.5464830000000 1.0
C      1  0.4189010000000  0.4856260000000  0.4927560000000 1.0
C      1  0.5070580000000  0.4890780000000  0.4652040000000 1.0
C      1  0.5160800000000  0.5716540000000  0.4700330000000 1.0
C      1  0.5065300000000  0.4218240000000  0.5493680000000 1.0
C      1  0.5536590000000  0.4456600000000  0.5167210000000 1.0
C      1  0.5186950000000  0.5051560000000  0.5121950000000 1.0
C      1  0.5443480000000  0.4491870000000  0.5428150000000 1.0
C      1  0.5798620000000  0.4453740000000  0.4788570000000 1.0
C      1  0.4853000000000  0.5065600000000  0.5998750000000 1.0
C      1  0.6044370000000  0.5094710000000  0.4707670000000 1.0
C      1  0.4931270000000  0.5297750000000  0.4744360000000 1.0
C      1  0.4084270000000  0.5384530000000  0.5238160000000 1.0
C      1  0.5066660000000  0.4083290000000  0.5256460000000 1.0
C      1  0.4130190000000  0.5366380000000  0.4963430000000 1.0
C      1  0.5767140000000  0.4585060000000  0.5046300000000 1.0
C      1  0.4202130000000  0.5616310000000  0.4837710000000 1.0
C      1  0.5751480000000  0.4819670000000  0.4440300000000 1.0
C      1  0.5680300000000  0.5023780000000  0.5236230000000 1.0
C      1  0.5175690000000  0.4480180000000  0.5517740000000 1.0
C      1  0.5164640000000  0.5438240000000  0.4640130000000 1.0
C      1  0.5462740000000  0.5115140000000  0.5077100000000 1.0
C      1  0.5472840000000  0.4780820000000  0.4378560000000 1.0
C      1  0.5600180000000  0.4240210000000  0.4765490000000 1.0
C      1  0.4740070000000  0.4367910000000  0.4652070000000 1.0
C      1  0.4235590000000  0.4883440000000  0.5719770000000 1.0
C      1  0.5052010000000  0.5829520000000  0.5332470000000 1.0
C      1  0.5044090000000  0.5669070000000  0.5561720000000 1.0
C      1  0.5377010000000  0.4533660000000  0.4264800000000 1.0
C      1  0.5120560000000  0.4429540000000  0.4323690000000 1.0
C      1  0.5618380000000  0.4064090000000  0.4549290000000 1.0
C      1  0.5555290000000  0.4340640000000  0.4159090000000 1.0
C      1  0.4465070000000  0.4450150000000  0.4688550000000 1.0
C      1  0.5840450000000  0.5086120000000  0.4512310000000 1.0
C      1  0.5026720000000  0.5058660000000  0.4889450000000 1.0
C      1  0.4138240000000  0.4807350000000  0.5200140000000 1.0
C      1  0.5861280000000  0.4847490000000  0.5106710000000 1.0
C      1  0.5301980000000  0.4968770000000  0.4507070000000 1.0
C      1  0.4738550000000  0.5198960000000  0.4542980000000 1.0
C      1  0.4775350000000  0.4650950000000  0.5317200000000 1.0
C      1  0.4664000000000  0.5804160000000  0.4711400000000 1.0
C      1  0.4024020000000  0.5744340000000  0.4673890000000 1.0
END
