TITL C-247195-3186-192 -5264.78033927221 125000 -1227.79867937546 0 0 199 (C1) n - 1
REM
REM in /home/nfs/bkarasulu/CARBON/AIRSS/Generating-Clusters/LCBOP/Only-C1/SD-CG/FIRE-HFTN
REM
REM
REM
REM
REM
REM ./C.cell (11c1c37f851c82e70ff6c80c92926a4b)
REM AIRSS Version 0.9.1 bugfix July 2018 build 013d7b7c2542+ Fri, 06 Jul 2018 19:26:36 +0100
REM compiler GCC version 9.2.1 20190827 (Red Hat 9.2.1-1)
REM options -cpp -mtune=generic -march=x86-64 -g -O0 -fpre-include=/usr/include/finclude/math-vector-fortran.h
REM seed 1140405537 -579753384 1713920861 868089018 -72857105 -9834070 -1769480012 -201871879 723508906 1857548577 1463915091 703523408 61463692 -1493826279 1818742528 2019753505 -1032906124 -149255658 -967608468 506481492 -612348241 -524202196 -1808959989 -51832902 372878041 -1266384814 -1637723241 629842528 942484579 -1492650651 606653207 320257425 559021294
REM
CELL 1.54180   50.00000   50.00000   50.00000   90.00000   90.00000   90.00000
LATT -1
SFAC C  
C      1  0.6465260000000  0.5211880000000  0.3288710000000 1.0
C      1  0.5619460000000  0.5326240000000  0.4391930000000 1.0
C      1  0.5652780000000  0.4120470000000  0.4811170000000 1.0
C      1  0.5419100000000  0.4721890000000  0.3679470000000 1.0
C      1  0.6073990000000  0.4942460000000  0.4843850000000 1.0
C      1  0.4678850000000  0.4875990000000  0.4172550000000 1.0
C      1  0.5635960000000  0.5156070000000  0.6109050000000 1.0
C      1  0.4187070000000  0.4532870000000  0.4215440000000 1.0
C      1  0.5283470000000  0.5660170000000  0.5654430000000 1.0
C      1  0.4246620000000  0.6002160000000  0.6175790000000 1.0
C      1  0.5087110000000  0.4582100000000  0.4528870000000 1.0
C      1  0.4422970000000  0.5316370000000  0.6253440000000 1.0
C      1  0.5605700000000  0.4328530000000  0.4313220000000 1.0
C      1  0.5708050000000  0.3957370000000  0.5976960000000 1.0
C      1  0.5212270000000  0.4670210000000  0.5684410000000 1.0
C      1  0.3798120000000  0.4797950000000  0.5238600000000 1.0
C      1  0.3924450000000  0.4947790000000  0.4116320000000 1.0
C      1  0.4566550000000  0.5047640000000  0.6224630000000 1.0
C      1  0.4432980000000  0.5207060000000  0.5134600000000 1.0
C      1  0.5838510000000  0.5142850000000  0.6299800000000 1.0
C      1  0.4158600000000  0.4730760000000  0.6069040000000 1.0
C      1  0.4050070000000  0.4861290000000  0.5365830000000 1.0
C      1  0.4988400000000  0.3763030000000  0.5275000000000 1.0
C      1  0.5777220000000  0.4562140000000  0.4306350000000 1.0
C      1  0.4035590000000  0.5913540000000  0.4750070000000 1.0
C      1  0.5703180000000  0.4856560000000  0.5712590000000 1.0
C      1  0.4639900000000  0.4732980000000  0.4394430000000 1.0
C      1  0.4403010000000  0.5003750000000  0.5786760000000 1.0
C      1  0.5542050000000  0.3919380000000  0.4996310000000 1.0
C      1  0.6280130000000  0.4869610000000  0.6421350000000 1.0
C      1  0.4716770000000  0.4385680000000  0.4888540000000 1.0
C      1  0.6620570000000  0.4885740000000  0.6844690000000 1.0
C      1  0.4824920000000  0.4611480000000  0.4537600000000 1.0
C      1  0.4232360000000  0.5972340000000  0.5216540000000 1.0
C      1  0.4006410000000  0.5426940000000  0.5944530000000 1.0
C      1  0.4042050000000  0.5811050000000  0.5351130000000 1.0
C      1  0.4224390000000  0.4305930000000  0.5230340000000 1.0
C      1  0.5159630000000  0.5345610000000  0.4585540000000 1.0
C      1  0.5310550000000  0.4973010000000  0.4311960000000 1.0
C      1  0.4658930000000  0.4316360000000  0.4080570000000 1.0
C      1  0.3895910000000  0.5579650000000  0.5425740000000 1.0
C      1  0.3902830000000  0.4849690000000  0.4792560000000 1.0
C      1  0.4499700000000  0.5991540000000  0.5327640000000 1.0
C      1  0.5210340000000  0.4190420000000  0.4066690000000 1.0
C      1  0.4363000000000  0.5451810000000  0.5014140000000 1.0
C      1  0.5262780000000  0.4706320000000  0.4376930000000 1.0
C      1  0.5208970000000  0.5387550000000  0.6421800000000 1.0
C      1  0.4857220000000  0.5974120000000  0.5649750000000 1.0
C      1  0.4269590000000  0.4966420000000  0.5182430000000 1.0
C      1  0.4686870000000  0.5224800000000  0.4591640000000 1.0
C      1  0.4303070000000  0.5777340000000  0.6032630000000 1.0
C      1  0.3756100000000  0.5446150000000  0.5216460000000 1.0
C      1  0.5625600000000  0.4459330000000  0.5140340000000 1.0
C      1  0.5606280000000  0.4863450000000  0.3524650000000 1.0
C      1  0.5731110000000  0.4744260000000  0.4083540000000 1.0
C      1  0.4516290000000  0.4100900000000  0.4569960000000 1.0
C      1  0.5133710000000  0.4389340000000  0.5728060000000 1.0
C      1  0.6356970000000  0.5195810000000  0.3525220000000 1.0
C      1  0.4653990000000  0.5761210000000  0.4730650000000 1.0
C      1  0.4199260000000  0.5710900000000  0.4631890000000 1.0
C      1  0.4958830000000  0.5092430000000  0.5756090000000 1.0
C      1  0.5974800000000  0.5078270000000  0.3809670000000 1.0
C      1  0.4980570000000  0.5990330000000  0.5072840000000 1.0
C      1  0.5099310000000  0.5855450000000  0.5644250000000 1.0
C      1  0.4562370000000  0.4840880000000  0.5622140000000 1.0
C      1  0.6451640000000  0.4873620000000  0.6640940000000 1.0
C      1  0.4543600000000  0.4157710000000  0.4858560000000 1.0
C      1  0.5573210000000  0.5391540000000  0.5960110000000 1.0
C      1  0.6133600000000  0.4607800000000  0.5736050000000 1.0
C      1  0.4258730000000  0.4963410000000  0.4465600000000 1.0
C      1  0.4094220000000  0.4331910000000  0.4392880000000 1.0
C      1  0.3611860000000  0.5357680000000  0.4202720000000 1.0
C      1  0.4984620000000  0.4294740000000  0.4922210000000 1.0
C      1  0.4611960000000  0.5976310000000  0.3963670000000 1.0
C      1  0.3854000000000  0.4641760000000  0.5000440000000 1.0
C      1  0.4789920000000  0.5513560000000  0.5933420000000 1.0
C      1  0.3600990000000  0.5777500000000  0.4513430000000 1.0
C      1  0.5228460000000  0.4087000000000  0.4529240000000 1.0
C      1  0.5127860000000  0.5318690000000  0.6182870000000 1.0
C      1  0.4727970000000  0.6007020000000  0.5160750000000 1.0
C      1  0.4711110000000  0.5731320000000  0.4025270000000 1.0
C      1  0.5201510000000  0.4967760000000  0.5681120000000 1.0
C      1  0.6324210000000  0.4694870000000  0.6206730000000 1.0
C      1  0.5524130000000  0.4598290000000  0.3918580000000 1.0
C      1  0.4963570000000  0.5297290000000  0.5953260000000 1.0
C      1  0.6788580000000  0.4900310000000  0.7043500000000 1.0
C      1  0.5350900000000  0.5874740000000  0.4761510000000 1.0
C      1  0.5965290000000  0.4826150000000  0.5302340000000 1.0
C      1  0.3555800000000  0.5576060000000  0.4344620000000 1.0
C      1  0.4952040000000  0.4556470000000  0.5301190000000 1.0
C      1  0.3669060000000  0.5219340000000  0.5073990000000 1.0
C      1  0.6059080000000  0.5041360000000  0.6407540000000 1.0
C      1  0.4378900000000  0.4906020000000  0.6052450000000 1.0
C      1  0.4179820000000  0.4865290000000  0.4720710000000 1.0
C      1  0.4847370000000  0.4437370000000  0.3903630000000 1.0
C      1  0.4845990000000  0.4277500000000  0.6177110000000 1.0
C      1  0.5569880000000  0.3984230000000  0.5757640000000 1.0
C      1  0.5874550000000  0.5225260000000  0.4285890000000 1.0
C      1  0.5184250000000  0.4866220000000  0.6150080000000 1.0
C      1  0.5622120000000  0.5050430000000  0.5506340000000 1.0
C      1  0.5514570000000  0.4167830000000  0.4543080000000 1.0
C      1  0.5312810000000  0.4972550000000  0.4877780000000 1.0
C      1  0.4990010000000  0.5665410000000  0.4108780000000 1.0
C      1  0.5423530000000  0.4039060000000  0.5525370000000 1.0
C      1  0.5937730000000  0.4732580000000  0.5582690000000 1.0
C      1  0.6054410000000  0.4461970000000  0.4936120000000 1.0
C      1  0.4673590000000  0.4234380000000  0.6367820000000 1.0
C      1  0.5636250000000  0.5474940000000  0.4998390000000 1.0
C      1  0.5140620000000  0.3647320000000  0.5085610000000 1.0
C      1  0.4755370000000  0.4154630000000  0.4311590000000 1.0
C      1  0.4346510000000  0.4800970000000  0.4944590000000 1.0
C      1  0.4570370000000  0.5472910000000  0.4015480000000 1.0
C      1  0.4455430000000  0.4131680000000  0.5146830000000 1.0
C      1  0.5508070000000  0.5079760000000  0.4480360000000 1.0
C      1  0.4924760000000  0.4892780000000  0.4044720000000 1.0
C      1  0.5769070000000  0.5048610000000  0.5259440000000 1.0
C      1  0.4734300000000  0.4430810000000  0.5416910000000 1.0
C      1  0.4412050000000  0.5637540000000  0.4806940000000 1.0
C      1  0.4818000000000  0.5119530000000  0.4829000000000 1.0
C      1  0.5445450000000  0.4350160000000  0.4062260000000 1.0
C      1  0.4776220000000  0.5312430000000  0.3871090000000 1.0
C      1  0.4329050000000  0.6290960000000  0.4850100000000 1.0
C      1  0.4843790000000  0.5702090000000  0.4537950000000 1.0
C      1  0.4708510000000  0.5139060000000  0.5088460000000 1.0
C      1  0.5588550000000  0.5013000000000  0.4766610000000 1.0
C      1  0.4835930000000  0.5181380000000  0.3625380000000 1.0
C      1  0.6240070000000  0.5177810000000  0.3778040000000 1.0
C      1  0.4814310000000  0.6394100000000  0.4684730000000 1.0
C      1  0.3600970000000  0.4996860000000  0.5240040000000 1.0
C      1  0.4247940000000  0.4127620000000  0.4482880000000 1.0
C      1  0.5014920000000  0.5000400000000  0.3525370000000 1.0
C      1  0.4553180000000  0.6393150000000  0.4745040000000 1.0
C      1  0.4269830000000  0.4468830000000  0.5472890000000 1.0
C      1  0.4447130000000  0.5187460000000  0.4432390000000 1.0
C      1  0.5518010000000  0.5708810000000  0.4927650000000 1.0
C      1  0.6270720000000  0.4600910000000  0.5963870000000 1.0
C      1  0.5511410000000  0.4914520000000  0.6014690000000 1.0
C      1  0.4228050000000  0.5504190000000  0.6118050000000 1.0
C      1  0.5398530000000  0.5499950000000  0.4470020000000 1.0
C      1  0.3908450000000  0.5479290000000  0.5694760000000 1.0
C      1  0.6089910000000  0.4735200000000  0.5059690000000 1.0
C      1  0.5006980000000  0.4338110000000  0.5975600000000 1.0
C      1  0.5275640000000  0.4815580000000  0.5098610000000 1.0
C      1  0.4223290000000  0.5607490000000  0.4366790000000 1.0
C      1  0.3767760000000  0.5915660000000  0.4670390000000 1.0
C      1  0.4081460000000  0.4657810000000  0.5569670000000 1.0
C      1  0.4019590000000  0.4658520000000  0.5845670000000 1.0
C      1  0.3764510000000  0.5104590000000  0.4825540000000 1.0
C      1  0.5057310000000  0.5799650000000  0.4361740000000 1.0
C      1  0.5695350000000  0.5194080000000  0.5011540000000 1.0
C      1  0.4897270000000  0.4920030000000  0.6221700000000 1.0
C      1  0.4134140000000  0.4814770000000  0.4247590000000 1.0
C      1  0.5856490000000  0.5014090000000  0.4066930000000 1.0
C      1  0.4010980000000  0.4402840000000  0.5055480000000 1.0
C      1  0.5838820000000  0.4852640000000  0.4699550000000 1.0
C      1  0.5108670000000  0.5140290000000  0.4784570000000 1.0
C      1  0.5800300000000  0.4325000000000  0.4967180000000 1.0
C      1  0.5820380000000  0.5012700000000  0.3583650000000 1.0
C      1  0.6349090000000  0.5284200000000  0.4269020000000 1.0
C      1  0.5365120000000  0.3704480000000  0.4944930000000 1.0
C      1  0.6383620000000  0.5257110000000  0.4005360000000 1.0
C      1  0.6126670000000  0.5236720000000  0.4437430000000 1.0
C      1  0.5030630000000  0.4823190000000  0.5236910000000 1.0
C      1  0.5314140000000  0.5773910000000  0.4490710000000 1.0
C      1  0.5089060000000  0.4090730000000  0.4769690000000 1.0
C      1  0.5057000000000  0.6280570000000  0.4712700000000 1.0
C      1  0.4570320000000  0.4627670000000  0.4929110000000 1.0
C      1  0.5056110000000  0.4110930000000  0.4297430000000 1.0
C      1  0.5156510000000  0.4148170000000  0.5554010000000 1.0
C      1  0.4774100000000  0.5016530000000  0.5558680000000 1.0
C      1  0.6109970000000  0.4473080000000  0.4654760000000 1.0
C      1  0.5370030000000  0.4547600000000  0.5110050000000 1.0
C      1  0.3741810000000  0.5142050000000  0.4115720000000 1.0
C      1  0.4414240000000  0.5277630000000  0.5720290000000 1.0
C      1  0.4528950000000  0.4573820000000  0.5532090000000 1.0
C      1  0.5127200000000  0.4401240000000  0.5133110000000 1.0
C      1  0.4855100000000  0.5026250000000  0.5294750000000 1.0
C      1  0.4931500000000  0.4004360000000  0.5412450000000 1.0
C      1  0.5415990000000  0.5421310000000  0.5722930000000 1.0
C      1  0.4690630000000  0.4154050000000  0.5343340000000 1.0
C      1  0.4393390000000  0.5408900000000  0.4244230000000 1.0
C      1  0.5542720000000  0.3987200000000  0.5274760000000 1.0
C      1  0.5385950000000  0.5168840000000  0.5586960000000 1.0
C      1  0.4830740000000  0.5722820000000  0.6109750000000 1.0
C      1  0.6186720000000  0.5172560000000  0.4717400000000 1.0
C      1  0.5154620000000  0.6058990000000  0.4860820000000 1.0
C      1  0.6351530000000  0.5344060000000  0.4864230000000 1.0
C      1  0.6495350000000  0.5504760000000  0.5010500000000 1.0
C      1  0.5917990000000  0.4639540000000  0.4527480000000 1.0
C      1  0.5028150000000  0.5365480000000  0.4041580000000 1.0
C      1  0.4438830000000  0.5772980000000  0.5776420000000 1.0
C      1  0.5117670000000  0.5095150000000  0.4130750000000 1.0
C      1  0.4884460000000  0.5421780000000  0.4515420000000 1.0
C      1  0.5139790000000  0.4773440000000  0.3648720000000 1.0
C      1  0.4560340000000  0.5511380000000  0.5769110000000 1.0
C      1  0.4573370000000  0.5952260000000  0.5602630000000 1.0
C      1  0.4173650000000  0.6075300000000  0.4948910000000 1.0
C      1  0.4979540000000  0.4681710000000  0.3862530000000 1.0
C      1  0.4399880000000  0.4429870000000  0.4060160000000 1.0
END
