TITL C-247202-1916-335 -36.2570361134438 125000 -630.946535089621 0 0 105 (C1) n - 1
REM
REM in /home/nfs/bkarasulu/CARBON/AIRSS/Generating-Clusters/LCBOP/Only-C1/SD-CG/FIRE-HFTN
REM
REM
REM
REM
REM
REM ./C.cell (11c1c37f851c82e70ff6c80c92926a4b)
REM AIRSS Version 0.9.1 bugfix July 2018 build 013d7b7c2542+ Fri, 06 Jul 2018 19:26:36 +0100
REM compiler GCC version 9.2.1 20190827 (Red Hat 9.2.1-1)
REM options -cpp -mtune=generic -march=x86-64 -g -O0 -fpre-include=/usr/include/finclude/math-vector-fortran.h
REM seed -991839439 755019412 1118917223 -1099031022 -1969314453 -1305401550 -1880001974 -832477368 -118512947 1129819388 1992899541 705548194 -1139885672 831240159 -1688942565 -1431857543 1713947712 -1843810550 -80471764 -551468958 -951598977 731574489 1537349918 923801468 -1880337896 822174266 1465762443 189411507 -999023676 -1791472242 235956794 -1983686739 402488929
REM
CELL 1.54180   50.00000   50.00000   50.00000   90.00000   90.00000   90.00000
LATT -1
SFAC C  
C      1  0.4296960000000  0.5340170000000  0.4775310000000 1.0
C      1  0.5662680000000  0.5615710000000  0.5314530000000 1.0
C      1  0.4512360000000  0.4977080000000  0.4454220000000 1.0
C      1  0.5492880000000  0.5877180000000  0.5283010000000 1.0
C      1  0.5740360000000  0.5520060000000  0.5040470000000 1.0
C      1  0.5247420000000  0.5501360000000  0.5841820000000 1.0
C      1  0.5270840000000  0.5556990000000  0.6100100000000 1.0
C      1  0.5224740000000  0.4963380000000  0.5482330000000 1.0
C      1  0.4414630000000  0.4456240000000  0.4872800000000 1.0
C      1  0.4616700000000  0.4582470000000  0.4715230000000 1.0
C      1  0.4986020000000  0.4314320000000  0.4703240000000 1.0
C      1  0.4604220000000  0.5875840000000  0.4882460000000 1.0
C      1  0.5227450000000  0.5995300000000  0.5384770000000 1.0
C      1  0.5080640000000  0.4442620000000  0.5554520000000 1.0
C      1  0.4517390000000  0.5849600000000  0.5164450000000 1.0
C      1  0.5013270000000  0.4536730000000  0.4873120000000 1.0
C      1  0.5054060000000  0.4861940000000  0.4266360000000 1.0
C      1  0.4770980000000  0.5262550000000  0.4187050000000 1.0
C      1  0.4746580000000  0.5269810000000  0.4963230000000 1.0
C      1  0.4512520000000  0.5074700000000  0.5551200000000 1.0
C      1  0.3522920000000  0.5042670000000  0.5497070000000 1.0
C      1  0.4912720000000  0.3984330000000  0.5019510000000 1.0
C      1  0.5297260000000  0.5004420000000  0.5196870000000 1.0
C      1  0.4772450000000  0.5239400000000  0.5918100000000 1.0
C      1  0.5099690000000  0.5962480000000  0.5640440000000 1.0
C      1  0.4407740000000  0.4812360000000  0.5164800000000 1.0
C      1  0.4970870000000  0.4905260000000  0.5615260000000 1.0
C      1  0.4553700000000  0.5249730000000  0.4372390000000 1.0
C      1  0.5081260000000  0.5975880000000  0.4775440000000 1.0
C      1  0.4710650000000  0.5351160000000  0.6145480000000 1.0
C      1  0.5188270000000  0.4796810000000  0.4511290000000 1.0
C      1  0.5495230000000  0.3859970000000  0.4201210000000 1.0
C      1  0.4698900000000  0.4789790000000  0.5145980000000 1.0
C      1  0.4823890000000  0.5924240000000  0.5627390000000 1.0
C      1  0.5713460000000  0.5750120000000  0.4856870000000 1.0
C      1  0.4689350000000  0.4831800000000  0.4624230000000 1.0
C      1  0.4716720000000  0.4472610000000  0.4287410000000 1.0
C      1  0.4042930000000  0.4989160000000  0.5442610000000 1.0
C      1  0.4239920000000  0.4337310000000  0.4210370000000 1.0
C      1  0.5485260000000  0.4246310000000  0.5357250000000 1.0
C      1  0.6056220000000  0.4267000000000  0.4551180000000 1.0
C      1  0.3781050000000  0.5016130000000  0.5472150000000 1.0
C      1  0.6306280000000  0.4338430000000  0.4533090000000 1.0
C      1  0.5471930000000  0.5242150000000  0.4450900000000 1.0
C      1  0.5268520000000  0.5848940000000  0.4320860000000 1.0
C      1  0.5149960000000  0.5596670000000  0.5091050000000 1.0
C      1  0.4501020000000  0.4384720000000  0.5557090000000 1.0
C      1  0.4313910000000  0.4959920000000  0.5387730000000 1.0
C      1  0.4908720000000  0.4292130000000  0.4427960000000 1.0
C      1  0.5113770000000  0.4096650000000  0.4845740000000 1.0
C      1  0.5691400000000  0.4568560000000  0.5078040000000 1.0
C      1  0.4115590000000  0.5121650000000  0.4745610000000 1.0
C      1  0.5205270000000  0.5292840000000  0.4386540000000 1.0
C      1  0.4756750000000  0.5820740000000  0.4417230000000 1.0
C      1  0.5060870000000  0.5480040000000  0.4540950000000 1.0
C      1  0.5110400000000  0.4968530000000  0.4993170000000 1.0
C      1  0.5608110000000  0.3680000000000  0.4050250000000 1.0
C      1  0.5562730000000  0.5040060000000  0.5093000000000 1.0
C      1  0.4442000000000  0.5462520000000  0.4552870000000 1.0
C      1  0.4870280000000  0.4549500000000  0.5125940000000 1.0
C      1  0.4565030000000  0.5733670000000  0.4616880000000 1.0
C      1  0.4868410000000  0.4679770000000  0.4156540000000 1.0
C      1  0.5530670000000  0.5843920000000  0.4387620000000 1.0
C      1  0.5029870000000  0.5141240000000  0.4222350000000 1.0
C      1  0.4853990000000  0.6038740000000  0.4921240000000 1.0
C      1  0.4458750000000  0.4229010000000  0.5040430000000 1.0
C      1  0.4426400000000  0.4270330000000  0.5323470000000 1.0
C      1  0.4632750000000  0.4015460000000  0.4951740000000 1.0
C      1  0.4841400000000  0.5025090000000  0.5060420000000 1.0
C      1  0.4761290000000  0.5088770000000  0.5683030000000 1.0
C      1  0.5143910000000  0.4772520000000  0.4788920000000 1.0
C      1  0.5380350000000  0.4054930000000  0.4366620000000 1.0
C      1  0.4157350000000  0.4837290000000  0.4706640000000 1.0
C      1  0.4254120000000  0.4689810000000  0.4944810000000 1.0
C      1  0.4652250000000  0.4532060000000  0.5751010000000 1.0
C      1  0.5662890000000  0.5259990000000  0.4938690000000 1.0
C      1  0.5638850000000  0.5231070000000  0.4658920000000 1.0
C      1  0.4474210000000  0.5334670000000  0.4996870000000 1.0
C      1  0.5537650000000  0.4318790000000  0.5085320000000 1.0
C      1  0.4933050000000  0.6058160000000  0.5200640000000 1.0
C      1  0.5344160000000  0.4345920000000  0.5566310000000 1.0
C      1  0.5313560000000  0.5464210000000  0.5573920000000 1.0
C      1  0.5149580000000  0.5497750000000  0.5343280000000 1.0
C      1  0.4949750000000  0.4354830000000  0.5321160000000 1.0
C      1  0.4706110000000  0.5947530000000  0.5365490000000 1.0
C      1  0.5529620000000  0.4137990000000  0.4602430000000 1.0
C      1  0.5745660000000  0.4833370000000  0.5181410000000 1.0
C      1  0.4296680000000  0.4777590000000  0.4440610000000 1.0
C      1  0.5122340000000  0.4154990000000  0.4295330000000 1.0
C      1  0.5024950000000  0.5730670000000  0.4405180000000 1.0
C      1  0.5403760000000  0.4161210000000  0.4863280000000 1.0
C      1  0.5595290000000  0.5416430000000  0.5509660000000 1.0
C      1  0.5502910000000  0.5898130000000  0.4987090000000 1.0
C      1  0.4413050000000  0.4525150000000  0.4311410000000 1.0
C      1  0.5248700000000  0.5797980000000  0.4909710000000 1.0
C      1  0.4917030000000  0.4630610000000  0.5684830000000 1.0
C      1  0.5309300000000  0.5619290000000  0.6350300000000 1.0
C      1  0.5801240000000  0.4199120000000  0.4574830000000 1.0
C      1  0.5679770000000  0.5140850000000  0.5566910000000 1.0
C      1  0.5450050000000  0.4992270000000  0.5656830000000 1.0
C      1  0.5857090000000  0.4961990000000  0.5419230000000 1.0
C      1  0.5714880000000  0.5785690000000  0.4577270000000 1.0
C      1  0.4549890000000  0.4572690000000  0.6001970000000 1.0
C      1  0.4909560000000  0.5396170000000  0.4765380000000 1.0
C      1  0.4951200000000  0.4075230000000  0.5282480000000 1.0
END
