TITL C-247195-3186-351 -8.48586328938741e-07 125000 -984.733051789159 0 0 158 (C1) n - 1
REM
REM in /home/nfs/bkarasulu/CARBON/AIRSS/Generating-Clusters/LCBOP/Only-C1/SD-CG/FIRE-HFTN
REM
REM
REM
REM
REM
REM ./C.cell (11c1c37f851c82e70ff6c80c92926a4b)
REM AIRSS Version 0.9.1 bugfix July 2018 build 013d7b7c2542+ Fri, 06 Jul 2018 19:26:36 +0100
REM compiler GCC version 9.2.1 20190827 (Red Hat 9.2.1-1)
REM options -cpp -mtune=generic -march=x86-64 -g -O0 -fpre-include=/usr/include/finclude/math-vector-fortran.h
REM seed -1508687287 -1056952423 1389484309 -33465482 -1760464853 -157914854 1364472355 -1551320514 -707952023 1361928368 8837038 -1074185555 1483549214 622203882 1090839770 -137073620 1140359967 1616069220 1566034778 -995072882 -713895466 -1270468678 -1905949829 -582861093 -745022319 82493957 -1397526448 -1726025506 973585720 669830578 -1267933936 -1781100922 -715894955
REM
CELL 1.54180   50.00000   50.00000   50.00000   90.00000   90.00000   90.00000
LATT -1
SFAC C  
C      1  0.4344900000000  0.4501760000000  0.5581480000000 1.0
C      1  0.5587510000000  0.5644680000000  0.4445100000000 1.0
C      1  0.4828010000000  0.5159250000000  0.6072210000000 1.0
C      1  0.6057740000000  0.5331650000000  0.5391790000000 1.0
C      1  0.5194480000000  0.4848000000000  0.5958890000000 1.0
C      1  0.5128890000000  0.5873080000000  0.5838750000000 1.0
C      1  0.4105100000000  0.5035180000000  0.4505600000000 1.0
C      1  0.4910010000000  0.5386060000000  0.5905550000000 1.0
C      1  0.5593470000000  0.6037650000000  0.5116880000000 1.0
C      1  0.5011220000000  0.4444990000000  0.4337850000000 1.0
C      1  0.4040940000000  0.5313680000000  0.4560950000000 1.0
C      1  0.5041050000000  0.3839310000000  0.4921570000000 1.0
C      1  0.3971280000000  0.4931340000000  0.5421950000000 1.0
C      1  0.5690870000000  0.5395010000000  0.4856150000000 1.0
C      1  0.5634530000000  0.5661210000000  0.4731630000000 1.0
C      1  0.4389780000000  0.4240170000000  0.5409890000000 1.0
C      1  0.5413240000000  0.3954370000000  0.5313610000000 1.0
C      1  0.3985410000000  0.5216380000000  0.5515970000000 1.0
C      1  0.5976800000000  0.5806840000000  0.5315920000000 1.0
C      1  0.5459470000000  0.5197920000000  0.5641660000000 1.0
C      1  0.4126150000000  0.5262710000000  0.5768700000000 1.0
C      1  0.4754130000000  0.5714140000000  0.5454350000000 1.0
C      1  0.5234920000000  0.4603240000000  0.5346180000000 1.0
C      1  0.5190890000000  0.6067610000000  0.5659400000000 1.0
C      1  0.5646270000000  0.4522520000000  0.4302460000000 1.0
C      1  0.6034660000000  0.4831440000000  0.5414410000000 1.0
C      1  0.4367190000000  0.5373340000000  0.4986010000000 1.0
C      1  0.4708170000000  0.5102220000000  0.4388390000000 1.0
C      1  0.4627400000000  0.5922940000000  0.5567820000000 1.0
C      1  0.4682770000000  0.4584580000000  0.3811410000000 1.0
C      1  0.5021400000000  0.5644880000000  0.5939270000000 1.0
C      1  0.4422090000000  0.4887850000000  0.4901300000000 1.0
C      1  0.3793850000000  0.5084130000000  0.4964300000000 1.0
C      1  0.4921380000000  0.4859690000000  0.4818200000000 1.0
C      1  0.4435400000000  0.5257220000000  0.4013190000000 1.0
C      1  0.3862490000000  0.4876840000000  0.5157930000000 1.0
C      1  0.5884250000000  0.4583530000000  0.5374860000000 1.0
C      1  0.5331490000000  0.4856960000000  0.4172780000000 1.0
C      1  0.5012850000000  0.3807860000000  0.4632470000000 1.0
C      1  0.5387870000000  0.5097800000000  0.4024690000000 1.0
C      1  0.4286580000000  0.5032410000000  0.4067830000000 1.0
C      1  0.5051140000000  0.4991040000000  0.6163970000000 1.0
C      1  0.5383730000000  0.6206600000000  0.5218400000000 1.0
C      1  0.5020290000000  0.5398780000000  0.3873950000000 1.0
C      1  0.6060870000000  0.4901530000000  0.5692190000000 1.0
C      1  0.4368140000000  0.4424610000000  0.4572530000000 1.0
C      1  0.4280110000000  0.4247760000000  0.5076110000000 1.0
C      1  0.4780930000000  0.6190170000000  0.5065430000000 1.0
C      1  0.5370790000000  0.4363740000000  0.4681440000000 1.0
C      1  0.4639810000000  0.5296900000000  0.4578070000000 1.0
C      1  0.5520970000000  0.4483830000000  0.5780880000000 1.0
C      1  0.4571610000000  0.5028410000000  0.5997580000000 1.0
C      1  0.5232390000000  0.5741670000000  0.5245630000000 1.0
C      1  0.5887390000000  0.5211470000000  0.4466500000000 1.0
C      1  0.6112750000000  0.4551180000000  0.4183630000000 1.0
C      1  0.4730490000000  0.4822710000000  0.3932490000000 1.0
C      1  0.4441740000000  0.5651200000000  0.4303530000000 1.0
C      1  0.5247910000000  0.3845670000000  0.5121320000000 1.0
C      1  0.5758580000000  0.4106400000000  0.4532630000000 1.0
C      1  0.5889580000000  0.4675050000000  0.4285450000000 1.0
C      1  0.4828870000000  0.4446230000000  0.5684080000000 1.0
C      1  0.4848490000000  0.4160750000000  0.5661780000000 1.0
C      1  0.4911860000000  0.5285790000000  0.5639550000000 1.0
C      1  0.4937420000000  0.5466920000000  0.5064010000000 1.0
C      1  0.5463640000000  0.5271220000000  0.4240550000000 1.0
C      1  0.5328090000000  0.4267650000000  0.5842230000000 1.0
C      1  0.4656620000000  0.4793950000000  0.4746430000000 1.0
C      1  0.4574460000000  0.4548250000000  0.5770670000000 1.0
C      1  0.4779420000000  0.4144210000000  0.5192260000000 1.0
C      1  0.4635140000000  0.6006390000000  0.4932100000000 1.0
C      1  0.4174350000000  0.4871240000000  0.4279390000000 1.0
C      1  0.4879990000000  0.5550400000000  0.4070410000000 1.0
C      1  0.4656140000000  0.4107750000000  0.5446320000000 1.0
C      1  0.5272690000000  0.5221200000000  0.4458900000000 1.0
C      1  0.4608130000000  0.4011090000000  0.4757650000000 1.0
C      1  0.5055240000000  0.5987850000000  0.4665310000000 1.0
C      1  0.4969400000000  0.5638620000000  0.5293920000000 1.0
C      1  0.5065680000000  0.5226950000000  0.5095680000000 1.0
C      1  0.5565350000000  0.4909720000000  0.5030420000000 1.0
C      1  0.5325620000000  0.5245430000000  0.5183540000000 1.0
C      1  0.4699670000000  0.3973700000000  0.4257720000000 1.0
C      1  0.4867990000000  0.4408110000000  0.5139660000000 1.0
C      1  0.5150760000000  0.4501510000000  0.4580750000000 1.0
C      1  0.4897920000000  0.5897940000000  0.4431120000000 1.0
C      1  0.5627540000000  0.5916600000000  0.4860180000000 1.0
C      1  0.5882140000000  0.5343910000000  0.5618600000000 1.0
C      1  0.5195550000000  0.4412450000000  0.4124560000000 1.0
C      1  0.5757160000000  0.4730790000000  0.4933010000000 1.0
C      1  0.5235360000000  0.4940430000000  0.4441030000000 1.0
C      1  0.6074780000000  0.5118390000000  0.4954510000000 1.0
C      1  0.5602550000000  0.5445840000000  0.5578650000000 1.0
C      1  0.5049970000000  0.5730950000000  0.4245440000000 1.0
C      1  0.4196940000000  0.5527870000000  0.4425540000000 1.0
C      1  0.5152180000000  0.4442610000000  0.5127120000000 1.0
C      1  0.4610900000000  0.5869500000000  0.4394740000000 1.0
C      1  0.5609000000000  0.5014040000000  0.5821090000000 1.0
C      1  0.5925160000000  0.5256740000000  0.4750020000000 1.0
C      1  0.4783540000000  0.3961460000000  0.4987060000000 1.0
C      1  0.5530890000000  0.5201560000000  0.4993940000000 1.0
C      1  0.4569100000000  0.4739040000000  0.5983970000000 1.0
C      1  0.6131170000000  0.5586860000000  0.5299550000000 1.0
C      1  0.4400270000000  0.4984020000000  0.5558430000000 1.0
C      1  0.4174090000000  0.4511560000000  0.5081570000000 1.0
C      1  0.3923490000000  0.5317190000000  0.4839600000000 1.0
C      1  0.5053760000000  0.5569490000000  0.4823400000000 1.0
C      1  0.4947010000000  0.4984430000000  0.5065520000000 1.0
C      1  0.5586200000000  0.4182990000000  0.5361030000000 1.0
C      1  0.4657820000000  0.4111990000000  0.4031890000000 1.0
C      1  0.4386530000000  0.4201150000000  0.4790110000000 1.0
C      1  0.5341400000000  0.5733630000000  0.4302510000000 1.0
C      1  0.5059140000000  0.4589550000000  0.5581310000000 1.0
C      1  0.5619450000000  0.4306210000000  0.5095980000000 1.0
C      1  0.5496670000000  0.5671120000000  0.5401830000000 1.0
C      1  0.5111090000000  0.4109150000000  0.5775620000000 1.0
C      1  0.5692620000000  0.4411030000000  0.5546280000000 1.0
C      1  0.5128190000000  0.4778950000000  0.4643490000000 1.0
C      1  0.4885810000000  0.6243510000000  0.5323350000000 1.0
C      1  0.5698600000000  0.5395210000000  0.4335740000000 1.0
C      1  0.5881590000000  0.5099350000000  0.5784730000000 1.0
C      1  0.4094940000000  0.5435740000000  0.5040690000000 1.0
C      1  0.4003030000000  0.5416450000000  0.5311000000000 1.0
C      1  0.4584970000000  0.5489240000000  0.4104080000000 1.0
C      1  0.4540040000000  0.5056230000000  0.5328920000000 1.0
C      1  0.4795680000000  0.4906460000000  0.5306950000000 1.0
C      1  0.5214460000000  0.5215600000000  0.3838640000000 1.0
C      1  0.4533020000000  0.5486400000000  0.4784340000000 1.0
C      1  0.4185350000000  0.4904340000000  0.4739100000000 1.0
C      1  0.4574470000000  0.5764990000000  0.4830030000000 1.0
C      1  0.4613070000000  0.4581430000000  0.4567450000000 1.0
C      1  0.6073410000000  0.5077720000000  0.5241490000000 1.0
C      1  0.4651990000000  0.4322710000000  0.3865680000000 1.0
C      1  0.4694360000000  0.6182960000000  0.5527370000000 1.0
C      1  0.5162300000000  0.6201300000000  0.5403040000000 1.0
C      1  0.5816440000000  0.4511560000000  0.5098150000000 1.0
C      1  0.4762080000000  0.3918170000000  0.4524880000000 1.0
C      1  0.5912020000000  0.4947090000000  0.4364700000000 1.0
C      1  0.4773360000000  0.4602420000000  0.4339180000000 1.0
C      1  0.3908590000000  0.4607940000000  0.5067620000000 1.0
C      1  0.5368160000000  0.5077110000000  0.5409680000000 1.0
C      1  0.3703490000000  0.4453790000000  0.4973780000000 1.0
C      1  0.4413970000000  0.4665420000000  0.5100330000000 1.0
C      1  0.5161290000000  0.5823020000000  0.4881810000000 1.0
C      1  0.5412950000000  0.4820960000000  0.5280810000000 1.0
C      1  0.4445900000000  0.5124150000000  0.5076990000000 1.0
C      1  0.5054120000000  0.4834620000000  0.5714620000000 1.0
C      1  0.4750430000000  0.4864050000000  0.4213350000000 1.0
C      1  0.5702000000000  0.5862290000000  0.5316170000000 1.0
C      1  0.5370940000000  0.4345300000000  0.4961520000000 1.0
C      1  0.4928530000000  0.5020790000000  0.5553470000000 1.0
C      1  0.5116950000000  0.4972870000000  0.6428600000000 1.0
C      1  0.5598750000000  0.4327540000000  0.4510220000000 1.0
C      1  0.4686560000000  0.4627630000000  0.5211260000000 1.0
C      1  0.4380930000000  0.5132390000000  0.5805780000000 1.0
C      1  0.5137740000000  0.5399390000000  0.4620430000000 1.0
C      1  0.5473410000000  0.4767500000000  0.5896590000000 1.0
C      1  0.4204450000000  0.4767240000000  0.5525480000000 1.0
C      1  0.5417900000000  0.4591200000000  0.4141020000000 1.0
C      1  0.4201270000000  0.4580430000000  0.4367860000000 1.0
END
