TITL C-247198-3593-671 -0.00481845679467525 125000 -430.199523285212 0 0 71 (C1) n - 1
REM
REM in /home/nfs/bkarasulu/CARBON/AIRSS/Generating-Clusters/LCBOP/Only-C1/SD-CG/FIRE-HFTN
REM
REM
REM
REM
REM
REM ./C.cell (11c1c37f851c82e70ff6c80c92926a4b)
REM AIRSS Version 0.9.1 bugfix July 2018 build 013d7b7c2542+ Fri, 06 Jul 2018 19:26:36 +0100
REM compiler GCC version 9.2.1 20190827 (Red Hat 9.2.1-1)
REM options -cpp -mtune=generic -march=x86-64 -g -O0 -fpre-include=/usr/include/finclude/math-vector-fortran.h
REM seed -2113513404 866058346 -1703937361 -613135624 427097379 -86250817 -1737781352 -1677663347 -2147341650 1083773880 1382492443 982758654 577967542 -513449200 -558096176 40310941 -1498615423 -484225745 -760735654 -1930260435 89343583 1984682247 -975477851 2115567828 -1353697844 946792719 1042475905 -1528712867 348366600 -1286387065 -201990716 -474498536 38431156
REM
CELL 1.54180   50.00000   50.00000   50.00000   90.00000   90.00000   90.00000
LATT -1
SFAC C  
C      1  0.5518200000000  0.4961560000000  0.4814160000000 1.0
C      1  0.5382780000000  0.4816680000000  0.5441340000000 1.0
C      1  0.5038970000000  0.5471510000000  0.4283250000000 1.0
C      1  0.4866030000000  0.5601890000000  0.4499130000000 1.0
C      1  0.5196340000000  0.4911760000000  0.4050930000000 1.0
C      1  0.5101820000000  0.4819130000000  0.6074270000000 1.0
C      1  0.4656210000000  0.5521380000000  0.5574120000000 1.0
C      1  0.5365230000000  0.4398100000000  0.5213790000000 1.0
C      1  0.5128730000000  0.4770980000000  0.5312180000000 1.0
C      1  0.4606920000000  0.5258050000000  0.4309850000000 1.0
C      1  0.5148880000000  0.4568140000000  0.5108280000000 1.0
C      1  0.4975380000000  0.4981370000000  0.5907320000000 1.0
C      1  0.5126690000000  0.5474600000000  0.5418040000000 1.0
C      1  0.5055500000000  0.4027830000000  0.5347530000000 1.0
C      1  0.4113880000000  0.4594870000000  0.5940480000000 1.0
C      1  0.5028000000000  0.5663910000000  0.5226690000000 1.0
C      1  0.5420640000000  0.5085180000000  0.5520250000000 1.0
C      1  0.4757010000000  0.4814840000000  0.4246710000000 1.0
C      1  0.4792910000000  0.4071490000000  0.5365500000000 1.0
C      1  0.6213220000000  0.4399520000000  0.5088090000000 1.0
C      1  0.4261740000000  0.4706700000000  0.5757330000000 1.0
C      1  0.4866710000000  0.5265180000000  0.4161020000000 1.0
C      1  0.4931610000000  0.4990060000000  0.4094610000000 1.0
C      1  0.4376540000000  0.4411020000000  0.5290440000000 1.0
C      1  0.4918490000000  0.5391000000000  0.5602220000000 1.0
C      1  0.4593620000000  0.5487740000000  0.4483480000000 1.0
C      1  0.4864510000000  0.5742330000000  0.5005910000000 1.0
C      1  0.4570180000000  0.4215740000000  0.5346580000000 1.0
C      1  0.5613210000000  0.5392960000000  0.5207320000000 1.0
C      1  0.5527220000000  0.5611440000000  0.4419980000000 1.0
C      1  0.4213190000000  0.5048470000000  0.4698390000000 1.0
C      1  0.4734760000000  0.5027450000000  0.5134640000000 1.0
C      1  0.5504720000000  0.5206340000000  0.4661920000000 1.0
C      1  0.4446050000000  0.4687720000000  0.5305390000000 1.0
C      1  0.5419900000000  0.5173480000000  0.4380590000000 1.0
C      1  0.4849680000000  0.4629580000000  0.4701420000000 1.0
C      1  0.4590260000000  0.4733950000000  0.4801270000000 1.0
C      1  0.5291790000000  0.4140090000000  0.5289050000000 1.0
C      1  0.4429500000000  0.4888770000000  0.4611820000000 1.0
C      1  0.4850190000000  0.4608190000000  0.4415440000000 1.0
C      1  0.5777270000000  0.5162250000000  0.5170600000000 1.0
C      1  0.4425410000000  0.4824950000000  0.5561830000000 1.0
C      1  0.4122740000000  0.4337820000000  0.5218530000000 1.0
C      1  0.4979600000000  0.5691410000000  0.4748350000000 1.0
C      1  0.4374540000000  0.5529850000000  0.4661630000000 1.0
C      1  0.5548270000000  0.4598460000000  0.5326880000000 1.0
C      1  0.5644000000000  0.5565620000000  0.4983540000000 1.0
C      1  0.4553850000000  0.5068750000000  0.5634190000000 1.0
C      1  0.5709030000000  0.4929490000000  0.5025980000000 1.0
C      1  0.5995190000000  0.4537740000000  0.5123650000000 1.0
C      1  0.4811640000000  0.5197420000000  0.4930890000000 1.0
C      1  0.4594090000000  0.5812780000000  0.5012860000000 1.0
C      1  0.4984330000000  0.5186070000000  0.4736200000000 1.0
C      1  0.5760880000000  0.4682420000000  0.5157960000000 1.0
C      1  0.5513130000000  0.5518480000000  0.4718460000000 1.0
C      1  0.5110970000000  0.4636410000000  0.4835370000000 1.0
C      1  0.5390060000000  0.5344010000000  0.5392870000000 1.0
C      1  0.5250770000000  0.5645890000000  0.4775710000000 1.0
C      1  0.4561110000000  0.4811990000000  0.5075750000000 1.0
C      1  0.5349840000000  0.4747250000000  0.4707520000000 1.0
C      1  0.4835600000000  0.5127990000000  0.5717170000000 1.0
C      1  0.5233270000000  0.4653720000000  0.6226960000000 1.0
C      1  0.5381200000000  0.4919520000000  0.4262640000000 1.0
C      1  0.4193180000000  0.5317070000000  0.4700250000000 1.0
C      1  0.5326540000000  0.5435410000000  0.4286680000000 1.0
C      1  0.4450750000000  0.5335410000000  0.5581180000000 1.0
C      1  0.4930980000000  0.4958640000000  0.5315480000000 1.0
C      1  0.4550020000000  0.4978880000000  0.4368580000000 1.0
C      1  0.4392760000000  0.5733880000000  0.4853760000000 1.0
C      1  0.5409150000000  0.4691780000000  0.4432730000000 1.0
C      1  0.5492610000000  0.4447670000000  0.4345070000000 1.0
END
