TITL C-247200-3482-565 0.114448178935114 125000 -881.534607969391 0 0 143 (C1) n - 1
REM
REM in /home/nfs/bkarasulu/CARBON/AIRSS/Generating-Clusters/LCBOP/Only-C1/SD-CG/FIRE-HFTN
REM
REM
REM
REM
REM
REM ./C.cell (11c1c37f851c82e70ff6c80c92926a4b)
REM AIRSS Version 0.9.1 bugfix July 2018 build 013d7b7c2542+ Fri, 06 Jul 2018 19:26:36 +0100
REM compiler GCC version 9.2.1 20190827 (Red Hat 9.2.1-1)
REM options -cpp -mtune=generic -march=x86-64 -g -O0 -fpre-include=/usr/include/finclude/math-vector-fortran.h
REM seed -164821188 -749761425 -937059914 -107716365 172703964 -1328732168 1438555717 -2138130049 -1482391775 -1219852777 -1030363412 -1703516380 -987844483 -1217370495 750652833 1749235537 379975475 -1915568699 1266784131 -1206641802 1833218904 -209856277 1491210621 1710985836 -1993423151 -1693720237 -889007404 -914065604 1531602910 548591466 -675269171 379335403 1772037564
REM
CELL 1.54180   50.00000   50.00000   50.00000   90.00000   90.00000   90.00000
LATT -1
SFAC C  
C      1  0.5293790000000  0.4666930000000  0.5922580000000 1.0
C      1  0.4657730000000  0.3974680000000  0.4909560000000 1.0
C      1  0.5072840000000  0.4683180000000  0.4575850000000 1.0
C      1  0.4888150000000  0.4973640000000  0.5146180000000 1.0
C      1  0.5272140000000  0.5428360000000  0.4829550000000 1.0
C      1  0.4905080000000  0.3911800000000  0.4433560000000 1.0
C      1  0.5698410000000  0.5217120000000  0.5070910000000 1.0
C      1  0.4905940000000  0.4500150000000  0.4676510000000 1.0
C      1  0.5385730000000  0.4994720000000  0.5590720000000 1.0
C      1  0.4371400000000  0.6031480000000  0.4481100000000 1.0
C      1  0.4896900000000  0.5836490000000  0.4724930000000 1.0
C      1  0.4799800000000  0.4804430000000  0.4006250000000 1.0
C      1  0.4112320000000  0.4629780000000  0.4356600000000 1.0
C      1  0.5686140000000  0.4203180000000  0.4908630000000 1.0
C      1  0.5651460000000  0.4728000000000  0.5082460000000 1.0
C      1  0.4225790000000  0.4349460000000  0.4954220000000 1.0
C      1  0.6359700000000  0.5563690000000  0.5066100000000 1.0
C      1  0.5146590000000  0.5854200000000  0.5415430000000 1.0
C      1  0.5199340000000  0.4878130000000  0.4731970000000 1.0
C      1  0.4472070000000  0.3949690000000  0.5124780000000 1.0
C      1  0.4995700000000  0.4636570000000  0.5873800000000 1.0
C      1  0.3695470000000  0.4646610000000  0.4821460000000 1.0
C      1  0.5928310000000  0.4601110000000  0.5774890000000 1.0
C      1  0.4526570000000  0.4073150000000  0.4667080000000 1.0
C      1  0.5640580000000  0.4328940000000  0.4397960000000 1.0
C      1  0.4911240000000  0.5638000000000  0.4521730000000 1.0
C      1  0.5543000000000  0.4520510000000  0.3866970000000 1.0
C      1  0.4008530000000  0.4875020000000  0.4346860000000 1.0
C      1  0.4964430000000  0.4781670000000  0.5596190000000 1.0
C      1  0.4149630000000  0.4625780000000  0.4995470000000 1.0
C      1  0.5604940000000  0.4609600000000  0.4333910000000 1.0
C      1  0.5202490000000  0.4590470000000  0.5258260000000 1.0
C      1  0.4108530000000  0.5531980000000  0.5037280000000 1.0
C      1  0.4526180000000  0.4577030000000  0.5973760000000 1.0
C      1  0.5474790000000  0.4465560000000  0.5826620000000 1.0
C      1  0.4565480000000  0.4296120000000  0.5557650000000 1.0
C      1  0.5620050000000  0.4184220000000  0.5194720000000 1.0
C      1  0.5627480000000  0.4265590000000  0.3911900000000 1.0
C      1  0.4063670000000  0.5599510000000  0.4499530000000 1.0
C      1  0.5374990000000  0.4037640000000  0.5237510000000 1.0
C      1  0.4983610000000  0.5991940000000  0.5578960000000 1.0
C      1  0.4478870000000  0.5144790000000  0.5976960000000 1.0
C      1  0.3956260000000  0.5121950000000  0.4432790000000 1.0
C      1  0.6818540000000  0.5596790000000  0.4979890000000 1.0
C      1  0.6571910000000  0.5532610000000  0.4870460000000 1.0
C      1  0.4478020000000  0.5114200000000  0.4753730000000 1.0
C      1  0.5314300000000  0.5441020000000  0.4324870000000 1.0
C      1  0.5623650000000  0.4974210000000  0.4952390000000 1.0
C      1  0.4860470000000  0.6104900000000  0.4639880000000 1.0
C      1  0.5780150000000  0.5567620000000  0.5759510000000 1.0
C      1  0.6115440000000  0.5041430000000  0.5213300000000 1.0
C      1  0.5570450000000  0.4192770000000  0.4644720000000 1.0
C      1  0.4767120000000  0.5670490000000  0.3880510000000 1.0
C      1  0.4951230000000  0.3938280000000  0.4915280000000 1.0
C      1  0.5977220000000  0.5263980000000  0.5102060000000 1.0
C      1  0.4951710000000  0.5537080000000  0.4039530000000 1.0
C      1  0.4317580000000  0.4269490000000  0.4691530000000 1.0
C      1  0.6985700000000  0.5752790000000  0.5431560000000 1.0
C      1  0.4909100000000  0.4348070000000  0.5875840000000 1.0
C      1  0.5503150000000  0.5345090000000  0.5241380000000 1.0
C      1  0.4447240000000  0.3718640000000  0.5268470000000 1.0
C      1  0.5715440000000  0.4432960000000  0.5676130000000 1.0
C      1  0.3911040000000  0.4775900000000  0.4933090000000 1.0
C      1  0.3738360000000  0.5556600000000  0.5388410000000 1.0
C      1  0.5744500000000  0.4379370000000  0.5387080000000 1.0
C      1  0.5137060000000  0.3953300000000  0.5134230000000 1.0
C      1  0.4466920000000  0.5317830000000  0.5757070000000 1.0
C      1  0.4093990000000  0.4389830000000  0.5586310000000 1.0
C      1  0.5574800000000  0.6103000000000  0.4790950000000 1.0
C      1  0.5009560000000  0.5249510000000  0.4034370000000 1.0
C      1  0.5630680000000  0.4811510000000  0.4519690000000 1.0
C      1  0.6792990000000  0.5676410000000  0.5257860000000 1.0
C      1  0.5094100000000  0.6259500000000  0.4653150000000 1.0
C      1  0.4603260000000  0.6155190000000  0.4537260000000 1.0
C      1  0.4454600000000  0.5227840000000  0.5243340000000 1.0
C      1  0.4800120000000  0.5067090000000  0.4098930000000 1.0
C      1  0.5743080000000  0.5305920000000  0.5672480000000 1.0
C      1  0.5362140000000  0.4946730000000  0.5879150000000 1.0
C      1  0.5280680000000  0.5208580000000  0.4141750000000 1.0
C      1  0.3994640000000  0.5344070000000  0.4599830000000 1.0
C      1  0.4221100000000  0.4415630000000  0.4471930000000 1.0
C      1  0.4837900000000  0.5382280000000  0.4618800000000 1.0
C      1  0.4869760000000  0.4442150000000  0.4934180000000 1.0
C      1  0.4366940000000  0.5275810000000  0.4118990000000 1.0
C      1  0.6505390000000  0.5653230000000  0.5303290000000 1.0
C      1  0.5023970000000  0.5288510000000  0.4805630000000 1.0
C      1  0.4258720000000  0.4967460000000  0.6015700000000 1.0
C      1  0.3633920000000  0.5308260000000  0.5384840000000 1.0
C      1  0.4874870000000  0.5766100000000  0.5006130000000 1.0
C      1  0.4602470000000  0.5776190000000  0.5114820000000 1.0
C      1  0.4622310000000  0.5220150000000  0.4538850000000 1.0
C      1  0.3882070000000  0.5058970000000  0.5005050000000 1.0
C      1  0.5682670000000  0.4172360000000  0.4161860000000 1.0
C      1  0.4718880000000  0.6030280000000  0.5546000000000 1.0
C      1  0.4370690000000  0.5644970000000  0.5012600000000 1.0
C      1  0.5342960000000  0.4024080000000  0.4624150000000 1.0
C      1  0.5848340000000  0.4622790000000  0.5252660000000 1.0
C      1  0.5078320000000  0.3938540000000  0.4653960000000 1.0
C      1  0.4328260000000  0.5471370000000  0.3939010000000 1.0
C      1  0.5919390000000  0.5728660000000  0.4949110000000 1.0
C      1  0.5077160000000  0.5620150000000  0.4287760000000 1.0
C      1  0.5418750000000  0.5451110000000  0.4588130000000 1.0
C      1  0.5115910000000  0.5710010000000  0.5174950000000 1.0
C      1  0.4303600000000  0.4180240000000  0.5174650000000 1.0
C      1  0.6005340000000  0.4842990000000  0.5648280000000 1.0
C      1  0.3937560000000  0.5646450000000  0.5231840000000 1.0
C      1  0.5808700000000  0.5819870000000  0.5818340000000 1.0
C      1  0.4436450000000  0.5052310000000  0.5024880000000 1.0
C      1  0.5925020000000  0.5098250000000  0.5737640000000 1.0
C      1  0.4481670000000  0.3941350000000  0.4195380000000 1.0
C      1  0.4566530000000  0.5937410000000  0.5345010000000 1.0
C      1  0.4971890000000  0.5178770000000  0.6105730000000 1.0
C      1  0.4754520000000  0.4757310000000  0.6025510000000 1.0
C      1  0.4503530000000  0.5646750000000  0.3834440000000 1.0
C      1  0.5225950000000  0.4791490000000  0.5462520000000 1.0
C      1  0.4000070000000  0.5303890000000  0.4884560000000 1.0
C      1  0.5353870000000  0.6232090000000  0.4714080000000 1.0
C      1  0.4455460000000  0.5325770000000  0.5491060000000 1.0
C      1  0.4802370000000  0.4904800000000  0.5397540000000 1.0
C      1  0.6085560000000  0.5518550000000  0.5037880000000 1.0
C      1  0.4358790000000  0.4790500000000  0.5080820000000 1.0
C      1  0.5028910000000  0.5028720000000  0.4907160000000 1.0
C      1  0.5517880000000  0.4709290000000  0.4076140000000 1.0
C      1  0.4630990000000  0.3976750000000  0.4420270000000 1.0
C      1  0.5413020000000  0.4580650000000  0.5080550000000 1.0
C      1  0.3703810000000  0.5106910000000  0.5221450000000 1.0
C      1  0.4265800000000  0.4691050000000  0.5955390000000 1.0
C      1  0.5516830000000  0.5233870000000  0.5507080000000 1.0
C      1  0.4077250000000  0.4556190000000  0.5796970000000 1.0
C      1  0.4958810000000  0.4447510000000  0.5200280000000 1.0
C      1  0.5478820000000  0.4933940000000  0.4715550000000 1.0
C      1  0.4731070000000  0.5039400000000  0.6062590000000 1.0
C      1  0.5759040000000  0.5927000000000  0.4870690000000 1.0
C      1  0.5314540000000  0.5513940000000  0.5097950000000 1.0
C      1  0.4800460000000  0.4552380000000  0.3939980000000 1.0
C      1  0.4622770000000  0.4340830000000  0.5830530000000 1.0
C      1  0.4583810000000  0.5165910000000  0.4261500000000 1.0
C      1  0.5230850000000  0.5137010000000  0.6041800000000 1.0
C      1  0.6031720000000  0.4814910000000  0.5363490000000 1.0
C      1  0.4788790000000  0.4326590000000  0.5386750000000 1.0
C      1  0.4193850000000  0.5831410000000  0.4468090000000 1.0
C      1  0.5423780000000  0.4977090000000  0.4069360000000 1.0
C      1  0.4306520000000  0.4277360000000  0.5441700000000 1.0
END
