TITL C-247195-3186-407 -4.8642201397861e-06 125000 -1170.78333991485 0 0 190 (C1) n - 1
REM
REM in /home/nfs/bkarasulu/CARBON/AIRSS/Generating-Clusters/LCBOP/Only-C1/SD-CG/FIRE-HFTN
REM
REM
REM
REM
REM
REM ./C.cell (11c1c37f851c82e70ff6c80c92926a4b)
REM AIRSS Version 0.9.1 bugfix July 2018 build 013d7b7c2542+ Fri, 06 Jul 2018 19:26:36 +0100
REM compiler GCC version 9.2.1 20190827 (Red Hat 9.2.1-1)
REM options -cpp -mtune=generic -march=x86-64 -g -O0 -fpre-include=/usr/include/finclude/math-vector-fortran.h
REM seed 1418624406 1898170106 180059933 -1586316947 -889188871 -1713623683 -1472859259 1003517159 -1927195666 -1284908808 2044536433 -1685467958 2132140321 2116214754 -674099294 -519618265 -718620238 -328462903 2028056660 -720276346 1114812095 361134753 -1977374077 -661370370 -818032212 -746522846 1230151022 -804337370 -878748307 -685217429 -553987097 -1629408971 273304119
REM
CELL 1.54180   50.00000   50.00000   50.00000   90.00000   90.00000   90.00000
LATT -1
SFAC C  
C      1  0.5711230000000  0.5315550000000  0.5512620000000 1.0
C      1  0.4506290000000  0.5634170000000  0.4938910000000 1.0
C      1  0.5016240000000  0.4114020000000  0.5016660000000 1.0
C      1  0.3795370000000  0.4197350000000  0.5395510000000 1.0
C      1  0.4516110000000  0.4608420000000  0.3635370000000 1.0
C      1  0.5566880000000  0.4829290000000  0.4945160000000 1.0
C      1  0.4185910000000  0.4470580000000  0.5809710000000 1.0
C      1  0.5324810000000  0.5610110000000  0.3665820000000 1.0
C      1  0.4645790000000  0.4092530000000  0.4365920000000 1.0
C      1  0.4404640000000  0.4046660000000  0.5233100000000 1.0
C      1  0.4356930000000  0.5792480000000  0.4284520000000 1.0
C      1  0.4980640000000  0.5176510000000  0.3688630000000 1.0
C      1  0.4960280000000  0.3946500000000  0.5684610000000 1.0
C      1  0.4600550000000  0.5366790000000  0.5528850000000 1.0
C      1  0.5593590000000  0.3778250000000  0.4464520000000 1.0
C      1  0.4936310000000  0.4340890000000  0.3778860000000 1.0
C      1  0.5634810000000  0.4846950000000  0.5369150000000 1.0
C      1  0.4032200000000  0.4422150000000  0.4643610000000 1.0
C      1  0.3951640000000  0.5269680000000  0.5779980000000 1.0
C      1  0.3984360000000  0.4622200000000  0.5246180000000 1.0
C      1  0.4521760000000  0.5019870000000  0.4622480000000 1.0
C      1  0.5097020000000  0.5494960000000  0.4799380000000 1.0
C      1  0.5379980000000  0.5040800000000  0.6401950000000 1.0
C      1  0.5560860000000  0.4141200000000  0.4777030000000 1.0
C      1  0.4453780000000  0.4099250000000  0.5528630000000 1.0
C      1  0.4597460000000  0.4548630000000  0.4185960000000 1.0
C      1  0.5122810000000  0.4067250000000  0.5264470000000 1.0
C      1  0.4726750000000  0.5449890000000  0.4174660000000 1.0
C      1  0.4941520000000  0.3727160000000  0.4775110000000 1.0
C      1  0.5812980000000  0.4853390000000  0.3879870000000 1.0
C      1  0.6591590000000  0.5782980000000  0.5572680000000 1.0
C      1  0.5209870000000  0.4032310000000  0.5813240000000 1.0
C      1  0.3990470000000  0.4334980000000  0.5260470000000 1.0
C      1  0.5814590000000  0.5087180000000  0.4505070000000 1.0
C      1  0.5192170000000  0.4570210000000  0.5406680000000 1.0
C      1  0.6350220000000  0.5763100000000  0.5668900000000 1.0
C      1  0.5840700000000  0.4456690000000  0.5491120000000 1.0
C      1  0.4259100000000  0.4997430000000  0.4734040000000 1.0
C      1  0.4585640000000  0.5224330000000  0.6296290000000 1.0
C      1  0.4132720000000  0.4241830000000  0.4820450000000 1.0
C      1  0.5225590000000  0.5341880000000  0.3664770000000 1.0
C      1  0.4154610000000  0.4654950000000  0.6263040000000 1.0
C      1  0.5749780000000  0.5404830000000  0.6387390000000 1.0
C      1  0.5511660000000  0.5108800000000  0.4917090000000 1.0
C      1  0.6009930000000  0.4632740000000  0.4617210000000 1.0
C      1  0.5795030000000  0.5086380000000  0.4035880000000 1.0
C      1  0.4968400000000  0.4885220000000  0.4625390000000 1.0
C      1  0.4653730000000  0.6204410000000  0.5014280000000 1.0
C      1  0.4194860000000  0.5145870000000  0.5741690000000 1.0
C      1  0.6090430000000  0.5740380000000  0.5767550000000 1.0
C      1  0.4477800000000  0.5358700000000  0.4924200000000 1.0
C      1  0.4339850000000  0.4785580000000  0.3733560000000 1.0
C      1  0.5240610000000  0.4785710000000  0.5970940000000 1.0
C      1  0.5002510000000  0.4846170000000  0.4076850000000 1.0
C      1  0.5743740000000  0.4378980000000  0.4318260000000 1.0
C      1  0.4993450000000  0.5574470000000  0.4568790000000 1.0
C      1  0.5170590000000  0.4690770000000  0.4619620000000 1.0
C      1  0.5173800000000  0.5787470000000  0.5337380000000 1.0
C      1  0.4224400000000  0.5192660000000  0.4974990000000 1.0
C      1  0.5582700000000  0.4703890000000  0.3781880000000 1.0
C      1  0.5671200000000  0.4266060000000  0.5635340000000 1.0
C      1  0.4189310000000  0.4690470000000  0.5978720000000 1.0
C      1  0.5260020000000  0.4872270000000  0.6234480000000 1.0
C      1  0.5432620000000  0.5244030000000  0.5431570000000 1.0
C      1  0.4724100000000  0.4900000000000  0.4468170000000 1.0
C      1  0.4808570000000  0.5157590000000  0.5516730000000 1.0
C      1  0.3976880000000  0.5202290000000  0.4445210000000 1.0
C      1  0.3903360000000  0.5538530000000  0.5136220000000 1.0
C      1  0.5461790000000  0.5396550000000  0.4484710000000 1.0
C      1  0.4618590000000  0.5701070000000  0.5966710000000 1.0
C      1  0.6042690000000  0.5649970000000  0.6028240000000 1.0
C      1  0.3915530000000  0.5412530000000  0.4651880000000 1.0
C      1  0.5137040000000  0.5416950000000  0.5065300000000 1.0
C      1  0.5027150000000  0.4846040000000  0.5797650000000 1.0
C      1  0.4491840000000  0.4566100000000  0.4853650000000 1.0
C      1  0.3976660000000  0.4668460000000  0.4544270000000 1.0
C      1  0.4335740000000  0.5204910000000  0.5493080000000 1.0
C      1  0.4572260000000  0.5328430000000  0.3975970000000 1.0
C      1  0.5179010000000  0.5817970000000  0.3565060000000 1.0
C      1  0.4873720000000  0.6169030000000  0.5171240000000 1.0
C      1  0.5264650000000  0.3978650000000  0.6075630000000 1.0
C      1  0.5358040000000  0.6204980000000  0.5342210000000 1.0
C      1  0.3978380000000  0.5362940000000  0.4928300000000 1.0
C      1  0.5355180000000  0.4875630000000  0.3724760000000 1.0
C      1  0.5524930000000  0.6077880000000  0.4870880000000 1.0
C      1  0.4699930000000  0.4419110000000  0.4809190000000 1.0
C      1  0.5428110000000  0.5157560000000  0.3753200000000 1.0
C      1  0.4778220000000  0.3734620000000  0.5279670000000 1.0
C      1  0.5482800000000  0.6142820000000  0.5599330000000 1.0
C      1  0.5736600000000  0.4720080000000  0.5900790000000 1.0
C      1  0.4268100000000  0.4898270000000  0.6683750000000 1.0
C      1  0.5278170000000  0.5517150000000  0.5816180000000 1.0
C      1  0.4286830000000  0.4968780000000  0.5946820000000 1.0
C      1  0.3743200000000  0.4751490000000  0.5189280000000 1.0
C      1  0.5700290000000  0.4292450000000  0.4053920000000 1.0
C      1  0.5600050000000  0.4427510000000  0.3840230000000 1.0
C      1  0.5247020000000  0.5284130000000  0.5655700000000 1.0
C      1  0.5852190000000  0.4185540000000  0.4767570000000 1.0
C      1  0.5364880000000  0.5248920000000  0.5138120000000 1.0
C      1  0.5106070000000  0.6065630000000  0.5299690000000 1.0
C      1  0.5558200000000  0.5231990000000  0.6450520000000 1.0
C      1  0.5568850000000  0.5666630000000  0.4521820000000 1.0
C      1  0.5598750000000  0.4630760000000  0.4380510000000 1.0
C      1  0.5586920000000  0.5652640000000  0.3780170000000 1.0
C      1  0.4279340000000  0.5805580000000  0.5325450000000 1.0
C      1  0.5249240000000  0.4274140000000  0.5411330000000 1.0
C      1  0.4799490000000  0.5666470000000  0.6179120000000 1.0
C      1  0.5802730000000  0.5603560000000  0.3938920000000 1.0
C      1  0.4743200000000  0.4303540000000  0.4210970000000 1.0
C      1  0.4785060000000  0.5613780000000  0.4390570000000 1.0
C      1  0.4719650000000  0.5266090000000  0.3741990000000 1.0
C      1  0.4955020000000  0.4329750000000  0.4859750000000 1.0
C      1  0.4245950000000  0.5061640000000  0.5253190000000 1.0
C      1  0.5537090000000  0.5209550000000  0.4007680000000 1.0
C      1  0.5453510000000  0.5711790000000  0.5373010000000 1.0
C      1  0.5959980000000  0.4235670000000  0.5031420000000 1.0
C      1  0.5618760000000  0.4558570000000  0.5025650000000 1.0
C      1  0.5134170000000  0.5094350000000  0.4221720000000 1.0
C      1  0.5200960000000  0.3783620000000  0.4730510000000 1.0
C      1  0.5329060000000  0.6014420000000  0.5805450000000 1.0
C      1  0.4952150000000  0.4642810000000  0.5596880000000 1.0
C      1  0.5873730000000  0.4900370000000  0.5242150000000 1.0
C      1  0.4552110000000  0.5534280000000  0.5770790000000 1.0
C      1  0.5467340000000  0.4718690000000  0.5820070000000 1.0
C      1  0.4043850000000  0.4942920000000  0.4555420000000 1.0
C      1  0.5704040000000  0.5607890000000  0.5483990000000 1.0
C      1  0.4675280000000  0.3830190000000  0.4817690000000 1.0
C      1  0.4128020000000  0.5341160000000  0.4226510000000 1.0
C      1  0.5234820000000  0.5775330000000  0.5927620000000 1.0
C      1  0.5496460000000  0.5875840000000  0.4696240000000 1.0
C      1  0.4176790000000  0.6111580000000  0.4783690000000 1.0
C      1  0.4589530000000  0.3857630000000  0.5097920000000 1.0
C      1  0.5432090000000  0.4722390000000  0.5528460000000 1.0
C      1  0.5395020000000  0.4181650000000  0.5641650000000 1.0
C      1  0.5126610000000  0.4677670000000  0.5123920000000 1.0
C      1  0.4741110000000  0.5439030000000  0.6333030000000 1.0
C      1  0.5064520000000  0.4903930000000  0.3782870000000 1.0
C      1  0.5053020000000  0.5781160000000  0.6143640000000 1.0
C      1  0.4535690000000  0.5831750000000  0.4741040000000 1.0
C      1  0.5598970000000  0.5211230000000  0.4659450000000 1.0
C      1  0.4996150000000  0.3860920000000  0.5411620000000 1.0
C      1  0.6144200000000  0.4738380000000  0.4839850000000 1.0
C      1  0.5914860000000  0.4760820000000  0.5688930000000 1.0
C      1  0.4908340000000  0.5035030000000  0.4862840000000 1.0
C      1  0.5931490000000  0.4354800000000  0.4547480000000 1.0
C      1  0.4385140000000  0.5048140000000  0.6215760000000 1.0
C      1  0.4573160000000  0.5782740000000  0.4466700000000 1.0
C      1  0.4999270000000  0.5579650000000  0.5259900000000 1.0
C      1  0.4722610000000  0.5574580000000  0.5342040000000 1.0
C      1  0.4446950000000  0.4643130000000  0.5397590000000 1.0
C      1  0.4573330000000  0.3954350000000  0.4585080000000 1.0
C      1  0.4129500000000  0.5627870000000  0.4300700000000 1.0
C      1  0.4183050000000  0.4192140000000  0.5098570000000 1.0
C      1  0.4459070000000  0.6092130000000  0.4837360000000 1.0
C      1  0.5315230000000  0.4622930000000  0.4383810000000 1.0
C      1  0.3524550000000  0.4876650000000  0.5122740000000 1.0
C      1  0.5364700000000  0.5262120000000  0.4236300000000 1.0
C      1  0.4247750000000  0.4988840000000  0.3883460000000 1.0
C      1  0.5826010000000  0.4430440000000  0.5198090000000 1.0
C      1  0.4988970000000  0.4351270000000  0.4059800000000 1.0
C      1  0.5440530000000  0.4375710000000  0.4889890000000 1.0
C      1  0.5828390000000  0.5686430000000  0.4406450000000 1.0
C      1  0.5806400000000  0.4802720000000  0.4495940000000 1.0
C      1  0.4520980000000  0.5720010000000  0.5208330000000 1.0
C      1  0.4220280000000  0.4774390000000  0.5289480000000 1.0
C      1  0.5447980000000  0.3904290000000  0.4661790000000 1.0
C      1  0.5505180000000  0.6220980000000  0.5098980000000 1.0
C      1  0.4684780000000  0.4028290000000  0.5689110000000 1.0
C      1  0.4267700000000  0.4256270000000  0.5674160000000 1.0
C      1  0.4269460000000  0.4868410000000  0.6414480000000 1.0
C      1  0.5903860000000  0.5514020000000  0.4196220000000 1.0
C      1  0.3971820000000  0.5677580000000  0.4543720000000 1.0
C      1  0.6076610000000  0.4861640000000  0.5069510000000 1.0
C      1  0.5920300000000  0.5543090000000  0.6238050000000 1.0
C      1  0.4025930000000  0.5720580000000  0.5291670000000 1.0
C      1  0.4789050000000  0.4953320000000  0.5324910000000 1.0
C      1  0.5868500000000  0.5806150000000  0.5605470000000 1.0
C      1  0.4672200000000  0.5186130000000  0.4816550000000 1.0
C      1  0.4305760000000  0.5226250000000  0.4028180000000 1.0
C      1  0.5144230000000  0.4581520000000  0.4155510000000 1.0
C      1  0.4959120000000  0.4911760000000  0.5106660000000 1.0
C      1  0.4733250000000  0.4449810000000  0.3636370000000 1.0
C      1  0.5757990000000  0.6068660000000  0.5602780000000 1.0
C      1  0.4730020000000  0.4799000000000  0.4208030000000 1.0
C      1  0.4002720000000  0.5927810000000  0.4677910000000 1.0
C      1  0.5885670000000  0.5102830000000  0.5625640000000 1.0
C      1  0.4710790000000  0.4705650000000  0.5450000000000 1.0
C      1  0.5020450000000  0.5116700000000  0.5695720000000 1.0
C      1  0.5178810000000  0.4518810000000  0.4861440000000 1.0
C      1  0.5908090000000  0.5224440000000  0.4259370000000 1.0
END
