TITL C-247195-3186-273 0.603006389242934 125000 -214.345286361962 0 0 38 (C1) n - 1
REM
REM in /home/nfs/bkarasulu/CARBON/AIRSS/Generating-Clusters/LCBOP/Only-C1/SD-CG/FIRE-HFTN
REM
REM
REM
REM
REM
REM ./C.cell (11c1c37f851c82e70ff6c80c92926a4b)
REM AIRSS Version 0.9.1 bugfix July 2018 build 013d7b7c2542+ Fri, 06 Jul 2018 19:26:36 +0100
REM compiler GCC version 9.2.1 20190827 (Red Hat 9.2.1-1)
REM options -cpp -mtune=generic -march=x86-64 -g -O0 -fpre-include=/usr/include/finclude/math-vector-fortran.h
REM seed -554720304 -1399459226 -1715891761 -98338175 -746671289 814670003 1016100292 -755334583 1510105931 1245499814 -41504197 -1175672962 -1136435977 437191271 1312585662 330745355 203152062 -1684358013 -1382270828 630067274 1260140588 1334972066 -109810803 181778695 418579576 -1664731406 1071027848 1253879262 -267237780 -1368152955 140968340 -1852023035 -957678020
REM
CELL 1.54180   50.00000   50.00000   50.00000   90.00000   90.00000   90.00000
LATT -1
SFAC C  
C      1  0.5258960000000  0.5100410000000  0.4551960000000 1.0
C      1  0.5259720000000  0.4730830000000  0.5935150000000 1.0
C      1  0.4995670000000  0.4834720000000  0.5441400000000 1.0
C      1  0.5009320000000  0.5010570000000  0.4082600000000 1.0
C      1  0.5072280000000  0.4564730000000  0.5506740000000 1.0
C      1  0.5451950000000  0.4584110000000  0.4897470000000 1.0
C      1  0.4623740000000  0.4814740000000  0.5106940000000 1.0
C      1  0.5217800000000  0.5201340000000  0.6069740000000 1.0
C      1  0.5176480000000  0.4998740000000  0.5893460000000 1.0
C      1  0.4454740000000  0.4937190000000  0.4654140000000 1.0
C      1  0.4579800000000  0.4756240000000  0.4829500000000 1.0
C      1  0.4735330000000  0.4547130000000  0.4722830000000 1.0
C      1  0.5025080000000  0.5110790000000  0.5015960000000 1.0
C      1  0.5007560000000  0.4344390000000  0.5350170000000 1.0
C      1  0.4945880000000  0.4120010000000  0.5232810000000 1.0
C      1  0.5864310000000  0.4403070000000  0.5168060000000 1.0
C      1  0.4798750000000  0.5311290000000  0.4952580000000 1.0
C      1  0.4421810000000  0.4777130000000  0.5288370000000 1.0
C      1  0.4909970000000  0.5748780000000  0.4384540000000 1.0
C      1  0.5203190000000  0.5700030000000  0.4829700000000 1.0
C      1  0.5119950000000  0.5068900000000  0.4311260000000 1.0
C      1  0.5663850000000  0.4492790000000  0.5027620000000 1.0
C      1  0.5044650000000  0.5028320000000  0.5644050000000 1.0
C      1  0.5001780000000  0.4517310000000  0.4716930000000 1.0
C      1  0.5297300000000  0.5547850000000  0.5032540000000 1.0
C      1  0.4801330000000  0.5451620000000  0.4711520000000 1.0
C      1  0.4471980000000  0.5160480000000  0.4506660000000 1.0
C      1  0.4455450000000  0.5468210000000  0.5339640000000 1.0
C      1  0.4623850000000  0.5393180000000  0.4486370000000 1.0
C      1  0.5234830000000  0.5301840000000  0.5128630000000 1.0
C      1  0.5210590000000  0.4535880000000  0.5753210000000 1.0
C      1  0.4699510000000  0.5592630000000  0.4291720000000 1.0
C      1  0.4615600000000  0.5382070000000  0.5152980000000 1.0
C      1  0.5211840000000  0.4684610000000  0.4799250000000 1.0
C      1  0.4882620000000  0.4909390000000  0.5193430000000 1.0
C      1  0.4991820000000  0.5666990000000  0.4649040000000 1.0
C      1  0.5163330000000  0.4967010000000  0.4784970000000 1.0
C      1  0.5497390000000  0.5234670000000  0.4556070000000 1.0
END
