TITL C-247196-3112-623 4.00623059234632e-06 125000 -1087.18152933173 0 0 178 (C1) n - 1
REM
REM in /home/nfs/bkarasulu/CARBON/AIRSS/Generating-Clusters/LCBOP/Only-C1/SD-CG/FIRE-HFTN
REM
REM
REM
REM
REM
REM ./C.cell (11c1c37f851c82e70ff6c80c92926a4b)
REM AIRSS Version 0.9.1 bugfix July 2018 build 013d7b7c2542+ Fri, 06 Jul 2018 19:26:36 +0100
REM compiler GCC version 9.2.1 20190827 (Red Hat 9.2.1-1)
REM options -cpp -mtune=generic -march=x86-64 -g -O0 -fpre-include=/usr/include/finclude/math-vector-fortran.h
REM seed 1098030092 512447842 1453527732 1462628047 1574504153 2091741221 -1381659868 68133701 -921094403 -1187142185 -2105055783 -1307846328 -1465618481 1742522479 -850779703 1457547178 429814677 563760225 -1208934866 1977722413 2111369311 -58600491 622971888 951244351 1677314415 889795767 1438112223 -595045410 -523809303 589370579 -1789595570 -1475858720 -1969113661
REM
CELL 1.54180   50.00000   50.00000   50.00000   90.00000   90.00000   90.00000
LATT -1
SFAC C  
C      1  0.4647890000000  0.4550060000000  0.5437050000000 1.0
C      1  0.5559710000000  0.4516980000000  0.5257800000000 1.0
C      1  0.4274370000000  0.4206070000000  0.5235890000000 1.0
C      1  0.5367680000000  0.4870460000000  0.4293820000000 1.0
C      1  0.5465910000000  0.4950860000000  0.4808680000000 1.0
C      1  0.5447740000000  0.5141670000000  0.4369310000000 1.0
C      1  0.4403870000000  0.5225600000000  0.4828560000000 1.0
C      1  0.5750920000000  0.4429990000000  0.5661510000000 1.0
C      1  0.4665740000000  0.4839450000000  0.4872230000000 1.0
C      1  0.6255740000000  0.5947970000000  0.4810240000000 1.0
C      1  0.5558870000000  0.4039310000000  0.5310340000000 1.0
C      1  0.5385630000000  0.4578790000000  0.5951260000000 1.0
C      1  0.4356710000000  0.6226700000000  0.4194770000000 1.0
C      1  0.4670560000000  0.4826200000000  0.5427870000000 1.0
C      1  0.5054220000000  0.5899010000000  0.5169640000000 1.0
C      1  0.4105180000000  0.5544850000000  0.4675860000000 1.0
C      1  0.4034870000000  0.5617350000000  0.4197240000000 1.0
C      1  0.4384630000000  0.5473570000000  0.4700550000000 1.0
C      1  0.5562000000000  0.5399210000000  0.5137240000000 1.0
C      1  0.5946470000000  0.4899750000000  0.5623860000000 1.0
C      1  0.5070500000000  0.6594640000000  0.5702950000000 1.0
C      1  0.5451740000000  0.5468050000000  0.6073420000000 1.0
C      1  0.6262360000000  0.5433350000000  0.5400250000000 1.0
C      1  0.3762030000000  0.5241610000000  0.4931110000000 1.0
C      1  0.4670500000000  0.5243340000000  0.5620450000000 1.0
C      1  0.5338370000000  0.4123870000000  0.4238990000000 1.0
C      1  0.4236480000000  0.5116230000000  0.5032020000000 1.0
C      1  0.5877030000000  0.3899330000000  0.4678000000000 1.0
C      1  0.4356770000000  0.4944210000000  0.5960140000000 1.0
C      1  0.5787050000000  0.4246480000000  0.4311990000000 1.0
C      1  0.5038490000000  0.5311470000000  0.3979800000000 1.0
C      1  0.5764070000000  0.3919750000000  0.5158810000000 1.0
C      1  0.4831630000000  0.3972700000000  0.4372910000000 1.0
C      1  0.3693480000000  0.4548320000000  0.4998700000000 1.0
C      1  0.4459950000000  0.6566780000000  0.4524920000000 1.0
C      1  0.4332340000000  0.4061870000000  0.5477780000000 1.0
C      1  0.5687000000000  0.5506550000000  0.5945360000000 1.0
C      1  0.4915510000000  0.4612680000000  0.4306740000000 1.0
C      1  0.4079950000000  0.5691630000000  0.5309530000000 1.0
C      1  0.4653670000000  0.4907800000000  0.5984930000000 1.0
C      1  0.4139320000000  0.5463150000000  0.5488550000000 1.0
C      1  0.4025340000000  0.5713630000000  0.4465740000000 1.0
C      1  0.5393750000000  0.5229870000000  0.4660760000000 1.0
C      1  0.5701270000000  0.5190850000000  0.5274130000000 1.0
C      1  0.5117300000000  0.3955730000000  0.5473400000000 1.0
C      1  0.4663590000000  0.4357280000000  0.3972100000000 1.0
C      1  0.6472990000000  0.5065710000000  0.5156700000000 1.0
C      1  0.5764210000000  0.5564330000000  0.4747290000000 1.0
C      1  0.4171050000000  0.4937080000000  0.5767720000000 1.0
C      1  0.4544250000000  0.5271470000000  0.5363970000000 1.0
C      1  0.4642200000000  0.5554780000000  0.4588390000000 1.0
C      1  0.5791930000000  0.5815640000000  0.4618840000000 1.0
C      1  0.5310120000000  0.4889260000000  0.5053250000000 1.0
C      1  0.4127740000000  0.4942470000000  0.5489290000000 1.0
C      1  0.4624530000000  0.5071350000000  0.3915670000000 1.0
C      1  0.4386230000000  0.4934260000000  0.3856770000000 1.0
C      1  0.4353180000000  0.6116610000000  0.5176270000000 1.0
C      1  0.5162830000000  0.6013580000000  0.4672270000000 1.0
C      1  0.4890840000000  0.3846700000000  0.4621350000000 1.0
C      1  0.5828720000000  0.4619410000000  0.5240040000000 1.0
C      1  0.4468720000000  0.5786940000000  0.5537380000000 1.0
C      1  0.4357340000000  0.3961450000000  0.4518070000000 1.0
C      1  0.4157090000000  0.5794590000000  0.4015120000000 1.0
C      1  0.5997660000000  0.5424780000000  0.4788660000000 1.0
C      1  0.5543490000000  0.5423060000000  0.4848090000000 1.0
C      1  0.4655000000000  0.5141270000000  0.4201730000000 1.0
C      1  0.4518340000000  0.4997210000000  0.4408670000000 1.0
C      1  0.4804180000000  0.6223850000000  0.5417620000000 1.0
C      1  0.5893530000000  0.5138120000000  0.5476230000000 1.0
C      1  0.4761950000000  0.4959270000000  0.5688450000000 1.0
C      1  0.5200150000000  0.5414820000000  0.6158490000000 1.0
C      1  0.5500950000000  0.3904100000000  0.4346750000000 1.0
C      1  0.5002690000000  0.4144820000000  0.5650310000000 1.0
C      1  0.4861270000000  0.5176460000000  0.3791510000000 1.0
C      1  0.6035600000000  0.5373740000000  0.5563290000000 1.0
C      1  0.5967900000000  0.4894020000000  0.5907440000000 1.0
C      1  0.5568450000000  0.5629480000000  0.4219830000000 1.0
C      1  0.4777930000000  0.3712980000000  0.6196920000000 1.0
C      1  0.4203730000000  0.4884500000000  0.4073200000000 1.0
C      1  0.5761400000000  0.3987200000000  0.4440380000000 1.0
C      1  0.3908440000000  0.5481080000000  0.4880460000000 1.0
C      1  0.5902840000000  0.5501410000000  0.5781030000000 1.0
C      1  0.5559330000000  0.4352380000000  0.4779230000000 1.0
C      1  0.4515550000000  0.4152970000000  0.5674660000000 1.0
C      1  0.4715270000000  0.4630440000000  0.6090610000000 1.0
C      1  0.5755350000000  0.4557580000000  0.4789430000000 1.0
C      1  0.4344880000000  0.4783630000000  0.4304260000000 1.0
C      1  0.5103740000000  0.5366830000000  0.5545530000000 1.0
C      1  0.4765480000000  0.5528790000000  0.5966220000000 1.0
C      1  0.5952710000000  0.4580130000000  0.4994190000000 1.0
C      1  0.5873750000000  0.4927330000000  0.4507420000000 1.0
C      1  0.4876850000000  0.5325910000000  0.4226890000000 1.0
C      1  0.5096660000000  0.4503520000000  0.5328240000000 1.0
C      1  0.5935130000000  0.3841800000000  0.4948240000000 1.0
C      1  0.5092950000000  0.5315760000000  0.4650910000000 1.0
C      1  0.4002540000000  0.4710570000000  0.5357490000000 1.0
C      1  0.3755960000000  0.4764790000000  0.5186920000000 1.0
C      1  0.4155550000000  0.4859910000000  0.4933090000000 1.0
C      1  0.3906230000000  0.5663730000000  0.5095480000000 1.0
C      1  0.5689000000000  0.4813170000000  0.4688070000000 1.0
C      1  0.5102760000000  0.4808030000000  0.4356270000000 1.0
C      1  0.4563610000000  0.6274600000000  0.5279640000000 1.0
C      1  0.4165300000000  0.4485370000000  0.5225630000000 1.0
C      1  0.3909890000000  0.4434400000000  0.4844730000000 1.0
C      1  0.5059990000000  0.4075760000000  0.4236050000000 1.0
C      1  0.6421910000000  0.5480940000000  0.4918970000000 1.0
C      1  0.6221690000000  0.4652370000000  0.4971670000000 1.0
C      1  0.5319740000000  0.5326790000000  0.3959970000000 1.0
C      1  0.3979770000000  0.4181230000000  0.4745220000000 1.0
C      1  0.3969240000000  0.5350090000000  0.4136900000000 1.0
C      1  0.5659850000000  0.4522670000000  0.5919510000000 1.0
C      1  0.4340890000000  0.6330750000000  0.4456840000000 1.0
C      1  0.5313930000000  0.4641050000000  0.5203770000000 1.0
C      1  0.4245990000000  0.5202470000000  0.5339610000000 1.0
C      1  0.5179910000000  0.4021210000000  0.4984470000000 1.0
C      1  0.4490270000000  0.4289760000000  0.4188400000000 1.0
C      1  0.4191960000000  0.6176170000000  0.4646030000000 1.0
C      1  0.6009390000000  0.5117350000000  0.4345650000000 1.0
C      1  0.6010650000000  0.5973770000000  0.4701540000000 1.0
C      1  0.4798210000000  0.5106600000000  0.6167900000000 1.0
C      1  0.5522240000000  0.5635980000000  0.5284080000000 1.0
C      1  0.4471210000000  0.5548600000000  0.5950050000000 1.0
C      1  0.5530510000000  0.4356980000000  0.4218140000000 1.0
C      1  0.4760550000000  0.4051690000000  0.5778210000000 1.0
C      1  0.5119470000000  0.5097300000000  0.5098570000000 1.0
C      1  0.4140620000000  0.4580370000000  0.4946950000000 1.0
C      1  0.4854100000000  0.5489570000000  0.5676580000000 1.0
C      1  0.5598380000000  0.4290220000000  0.5444630000000 1.0
C      1  0.4325500000000  0.5586040000000  0.5703220000000 1.0
C      1  0.4285790000000  0.6029730000000  0.4027950000000 1.0
C      1  0.5553190000000  0.5335940000000  0.4156940000000 1.0
C      1  0.6258840000000  0.5360130000000  0.4710750000000 1.0
C      1  0.4753910000000  0.5379730000000  0.5202180000000 1.0
C      1  0.5098220000000  0.4419940000000  0.5608410000000 1.0
C      1  0.5906750000000  0.4641350000000  0.5512350000000 1.0
C      1  0.6431350000000  0.5763760000000  0.4900590000000 1.0
C      1  0.4875850000000  0.4514960000000  0.4040360000000 1.0
C      1  0.4728170000000  0.4580950000000  0.4778220000000 1.0
C      1  0.5504590000000  0.4638900000000  0.4198150000000 1.0
C      1  0.4007520000000  0.5085700000000  0.4109330000000 1.0
C      1  0.4900200000000  0.5954080000000  0.5395960000000 1.0
C      1  0.5842090000000  0.4699050000000  0.6049830000000 1.0
C      1  0.3701430000000  0.5029130000000  0.5088240000000 1.0
C      1  0.4524650000000  0.4431970000000  0.5653140000000 1.0
C      1  0.5130620000000  0.5932060000000  0.4917740000000 1.0
C      1  0.4552660000000  0.4047290000000  0.4331670000000 1.0
C      1  0.5217660000000  0.5140810000000  0.5680850000000 1.0
C      1  0.4452280000000  0.4523650000000  0.4360440000000 1.0
C      1  0.4919740000000  0.5362630000000  0.6140020000000 1.0
C      1  0.5349530000000  0.4190950000000  0.4828060000000 1.0
C      1  0.6404800000000  0.4827240000000  0.5057400000000 1.0
C      1  0.4911720000000  0.3955820000000  0.4881480000000 1.0
C      1  0.4015100000000  0.5985500000000  0.4536260000000 1.0
C      1  0.4247190000000  0.6172410000000  0.4922010000000 1.0
C      1  0.4768500000000  0.3876230000000  0.5994020000000 1.0
C      1  0.4756370000000  0.5753550000000  0.5537380000000 1.0
C      1  0.4834290000000  0.4459460000000  0.5239190000000 1.0
C      1  0.4761460000000  0.4388620000000  0.4980730000000 1.0
C      1  0.4549900000000  0.5025380000000  0.4690510000000 1.0
C      1  0.4896430000000  0.5443470000000  0.4484100000000 1.0
C      1  0.6165890000000  0.3706470000000  0.5008250000000 1.0
C      1  0.4231670000000  0.4047640000000  0.4755690000000 1.0
C      1  0.4712460000000  0.4547700000000  0.4498620000000 1.0
C      1  0.4292130000000  0.5885990000000  0.5329320000000 1.0
C      1  0.4395710000000  0.4089470000000  0.4990370000000 1.0
C      1  0.4938770000000  0.6417600000000  0.5564320000000 1.0
C      1  0.5065210000000  0.4902630000000  0.5728600000000 1.0
C      1  0.4985220000000  0.5159470000000  0.4855720000000 1.0
C      1  0.5028980000000  0.5305390000000  0.5271210000000 1.0
C      1  0.5660730000000  0.5828760000000  0.4372250000000 1.0
C      1  0.4675130000000  0.4900470000000  0.5151270000000 1.0
C      1  0.5845950000000  0.5240160000000  0.4142350000000 1.0
C      1  0.5284210000000  0.3968690000000  0.5249450000000 1.0
C      1  0.4683740000000  0.4118580000000  0.4955690000000 1.0
C      1  0.5166480000000  0.4634700000000  0.5784570000000 1.0
C      1  0.6250950000000  0.5224970000000  0.4461240000000 1.0
C      1  0.5561480000000  0.5859160000000  0.5413370000000 1.0
C      1  0.6412320000000  0.5341540000000  0.5172670000000 1.0
END
