TITL C-247202-1916-424 1.33974761506582e-06 125000 -919.087885311825 0 0 152 (C1) n - 1
REM
REM in /home/nfs/bkarasulu/CARBON/AIRSS/Generating-Clusters/LCBOP/Only-C1/SD-CG/FIRE-HFTN
REM
REM
REM
REM
REM
REM ./C.cell (11c1c37f851c82e70ff6c80c92926a4b)
REM AIRSS Version 0.9.1 bugfix July 2018 build 013d7b7c2542+ Fri, 06 Jul 2018 19:26:36 +0100
REM compiler GCC version 9.2.1 20190827 (Red Hat 9.2.1-1)
REM options -cpp -mtune=generic -march=x86-64 -g -O0 -fpre-include=/usr/include/finclude/math-vector-fortran.h
REM seed 430017954 -1580378972 -606444312 1972413952 1933465232 959371142 -1696318003 -849334929 1063830967 -1537884620 -293413893 -1557959656 -1229499817 -387993052 -294538456 -884222092 -202814545 -2076203257 2141987568 -26763125 -1579256242 -1272360850 2123877375 -356737149 -1010552914 1717216951 -594932555 176246850 -945957559 900213422 -199639795 712976843 1102528940
REM
CELL 1.54180   50.00000   50.00000   50.00000   90.00000   90.00000   90.00000
LATT -1
SFAC C  
C      1  0.4720340000000  0.5489750000000  0.4090770000000 1.0
C      1  0.5877130000000  0.5583460000000  0.5939770000000 1.0
C      1  0.4580990000000  0.4124020000000  0.4315180000000 1.0
C      1  0.3963950000000  0.5451250000000  0.5132080000000 1.0
C      1  0.4044660000000  0.4967130000000  0.4407540000000 1.0
C      1  0.5757510000000  0.5325200000000  0.5171860000000 1.0
C      1  0.4342800000000  0.4281630000000  0.4433910000000 1.0
C      1  0.3981330000000  0.5178190000000  0.4251390000000 1.0
C      1  0.5495610000000  0.5205630000000  0.5227340000000 1.0
C      1  0.4748880000000  0.6084570000000  0.4913920000000 1.0
C      1  0.5716360000000  0.5786990000000  0.4518540000000 1.0
C      1  0.4906230000000  0.3837450000000  0.5092010000000 1.0
C      1  0.5144760000000  0.5613480000000  0.5849840000000 1.0
C      1  0.5394910000000  0.5866670000000  0.4956300000000 1.0
C      1  0.5805390000000  0.5606640000000  0.5183760000000 1.0
C      1  0.5678340000000  0.5789920000000  0.4999190000000 1.0
C      1  0.5534800000000  0.5220540000000  0.4666790000000 1.0
C      1  0.4253120000000  0.4723730000000  0.5465260000000 1.0
C      1  0.4057600000000  0.4683530000000  0.5253080000000 1.0
C      1  0.5509670000000  0.4562780000000  0.5269390000000 1.0
C      1  0.4997080000000  0.6162990000000  0.5032870000000 1.0
C      1  0.4629520000000  0.5036200000000  0.4904040000000 1.0
C      1  0.5627240000000  0.5017700000000  0.5846740000000 1.0
C      1  0.4827420000000  0.5355140000000  0.6117320000000 1.0
C      1  0.4850500000000  0.4961860000000  0.3918310000000 1.0
C      1  0.5576160000000  0.4352340000000  0.5453780000000 1.0
C      1  0.4446330000000  0.4942230000000  0.5438390000000 1.0
C      1  0.5047230000000  0.3925380000000  0.4589110000000 1.0
C      1  0.5373850000000  0.4566630000000  0.4276600000000 1.0
C      1  0.5303930000000  0.5274190000000  0.6159150000000 1.0
C      1  0.6022850000000  0.5648700000000  0.5363310000000 1.0
C      1  0.4495240000000  0.5073290000000  0.4195700000000 1.0
C      1  0.4738890000000  0.4864720000000  0.5431500000000 1.0
C      1  0.4358750000000  0.4487560000000  0.5588510000000 1.0
C      1  0.5498570000000  0.5109080000000  0.6081320000000 1.0
C      1  0.4996130000000  0.5762930000000  0.4640000000000 1.0
C      1  0.4397580000000  0.4067130000000  0.4986720000000 1.0
C      1  0.4366730000000  0.5421300000000  0.5578670000000 1.0
C      1  0.5956690000000  0.5381540000000  0.5765560000000 1.0
C      1  0.4595710000000  0.4613830000000  0.4681390000000 1.0
C      1  0.5456030000000  0.5674270000000  0.4514560000000 1.0
C      1  0.4254880000000  0.4214680000000  0.5188470000000 1.0
C      1  0.4435030000000  0.5349270000000  0.5843830000000 1.0
C      1  0.4156680000000  0.5870790000000  0.4785090000000 1.0
C      1  0.5117430000000  0.5155560000000  0.4962840000000 1.0
C      1  0.4851400000000  0.4641550000000  0.5232790000000 1.0
C      1  0.5829460000000  0.4877730000000  0.4968120000000 1.0
C      1  0.5241810000000  0.5515840000000  0.5605070000000 1.0
C      1  0.3978510000000  0.4937620000000  0.5138640000000 1.0
C      1  0.6605900000000  0.4927590000000  0.5677660000000 1.0
C      1  0.4881400000000  0.5311400000000  0.3906630000000 1.0
C      1  0.6282910000000  0.4833980000000  0.5074890000000 1.0
C      1  0.5545250000000  0.4084170000000  0.5444510000000 1.0
C      1  0.5650330000000  0.4445210000000  0.4273320000000 1.0
C      1  0.5514990000000  0.4130570000000  0.4598220000000 1.0
C      1  0.4848370000000  0.5513970000000  0.4679210000000 1.0
C      1  0.4456430000000  0.4516320000000  0.5849670000000 1.0
C      1  0.5446180000000  0.3912060000000  0.5261210000000 1.0
C      1  0.5102340000000  0.5880930000000  0.5887370000000 1.0
C      1  0.4081150000000  0.5200590000000  0.5227350000000 1.0
C      1  0.5940210000000  0.5131350000000  0.5083530000000 1.0
C      1  0.5357590000000  0.4778390000000  0.4515070000000 1.0
C      1  0.4615110000000  0.4145790000000  0.4840970000000 1.0
C      1  0.4800670000000  0.5333950000000  0.5271900000000 1.0
C      1  0.4988270000000  0.4412140000000  0.4557390000000 1.0
C      1  0.4702890000000  0.4390670000000  0.5935260000000 1.0
C      1  0.5348400000000  0.3961780000000  0.5001070000000 1.0
C      1  0.4443130000000  0.4342790000000  0.5361220000000 1.0
C      1  0.5331620000000  0.5366220000000  0.5404460000000 1.0
C      1  0.4879460000000  0.3951260000000  0.5336430000000 1.0
C      1  0.6117530000000  0.5437250000000  0.5531660000000 1.0
C      1  0.4542370000000  0.6032880000000  0.5108070000000 1.0
C      1  0.6272150000000  0.5208250000000  0.5435020000000 1.0
C      1  0.4996520000000  0.4421940000000  0.5378750000000 1.0
C      1  0.5091250000000  0.5426930000000  0.6059050000000 1.0
C      1  0.6123300000000  0.4937880000000  0.5794020000000 1.0
C      1  0.4306350000000  0.5799360000000  0.4545660000000 1.0
C      1  0.3927660000000  0.4918970000000  0.4864760000000 1.0
C      1  0.4370680000000  0.5094250000000  0.4773150000000 1.0
C      1  0.4452460000000  0.4603080000000  0.4939520000000 1.0
C      1  0.4790770000000  0.4792050000000  0.6216010000000 1.0
C      1  0.4667150000000  0.5772960000000  0.4168420000000 1.0
C      1  0.5010800000000  0.4717700000000  0.4944290000000 1.0
C      1  0.4626810000000  0.5305020000000  0.4288580000000 1.0
C      1  0.4828190000000  0.4201790000000  0.5768260000000 1.0
C      1  0.4374590000000  0.5691220000000  0.5481930000000 1.0
C      1  0.4780910000000  0.3944960000000  0.4448310000000 1.0
C      1  0.5619990000000  0.4972730000000  0.4505260000000 1.0
C      1  0.5165560000000  0.4339320000000  0.4327280000000 1.0
C      1  0.4108150000000  0.4267210000000  0.4595460000000 1.0
C      1  0.4758970000000  0.4356670000000  0.4710560000000 1.0
C      1  0.5269560000000  0.4075850000000  0.4452230000000 1.0
C      1  0.4432620000000  0.5901990000000  0.5320150000000 1.0
C      1  0.5177530000000  0.4900330000000  0.5710070000000 1.0
C      1  0.5508970000000  0.4853410000000  0.5374010000000 1.0
C      1  0.5414910000000  0.5136950000000  0.4940500000000 1.0
C      1  0.3703570000000  0.5498630000000  0.5212300000000 1.0
C      1  0.4839960000000  0.4534420000000  0.6140000000000 1.0
C      1  0.4722900000000  0.5569760000000  0.5173340000000 1.0
C      1  0.4058830000000  0.5435370000000  0.4281640000000 1.0
C      1  0.3988230000000  0.4364640000000  0.4821770000000 1.0
C      1  0.4595960000000  0.5217850000000  0.6035650000000 1.0
C      1  0.4083250000000  0.5657010000000  0.4968560000000 1.0
C      1  0.4311130000000  0.5198950000000  0.5404140000000 1.0
C      1  0.5333820000000  0.4749740000000  0.4023580000000 1.0
C      1  0.4331130000000  0.5352740000000  0.4668660000000 1.0
C      1  0.4453930000000  0.4558610000000  0.4423800000000 1.0
C      1  0.6063500000000  0.4708860000000  0.4958810000000 1.0
C      1  0.5081460000000  0.4798470000000  0.3898510000000 1.0
C      1  0.4793110000000  0.5287210000000  0.4516110000000 1.0
C      1  0.4687930000000  0.5574750000000  0.4907340000000 1.0
C      1  0.5429660000000  0.4444470000000  0.4993500000000 1.0
C      1  0.5466430000000  0.4185670000000  0.4872730000000 1.0
C      1  0.4708140000000  0.5964910000000  0.3973730000000 1.0
C      1  0.5239890000000  0.6060060000000  0.5091060000000 1.0
C      1  0.5266510000000  0.5243790000000  0.4305290000000 1.0
C      1  0.5158890000000  0.5349730000000  0.3857500000000 1.0
C      1  0.5830210000000  0.5841100000000  0.4760160000000 1.0
C      1  0.6346860000000  0.5017920000000  0.5638240000000 1.0
C      1  0.4570040000000  0.5878760000000  0.4443290000000 1.0
C      1  0.5156110000000  0.4999160000000  0.4426910000000 1.0
C      1  0.4919380000000  0.4177280000000  0.5502370000000 1.0
C      1  0.5509120000000  0.4987280000000  0.4024080000000 1.0
C      1  0.5719020000000  0.4246930000000  0.4444490000000 1.0
C      1  0.4986180000000  0.4297790000000  0.4092310000000 1.0
C      1  0.5894510000000  0.5103490000000  0.5811490000000 1.0
C      1  0.5711630000000  0.4986940000000  0.4231670000000 1.0
C      1  0.5272470000000  0.5787870000000  0.4700240000000 1.0
C      1  0.4587680000000  0.4510140000000  0.5170640000000 1.0
C      1  0.4793520000000  0.4835600000000  0.4734890000000 1.0
C      1  0.4628490000000  0.4860340000000  0.4066280000000 1.0
C      1  0.6211420000000  0.5094280000000  0.5182700000000 1.0
C      1  0.4052360000000  0.4413800000000  0.5099800000000 1.0
C      1  0.4132940000000  0.4948190000000  0.4675950000000 1.0
C      1  0.4573800000000  0.4940950000000  0.6102980000000 1.0
C      1  0.5545240000000  0.4869270000000  0.4935470000000 1.0
C      1  0.4907690000000  0.5026190000000  0.4541560000000 1.0
C      1  0.4387330000000  0.4760220000000  0.5986010000000 1.0
C      1  0.4232640000000  0.5534450000000  0.4478460000000 1.0
C      1  0.5095780000000  0.3875490000000  0.4883120000000 1.0
C      1  0.4592530000000  0.4596610000000  0.4169170000000 1.0
C      1  0.5336890000000  0.4679110000000  0.4826300000000 1.0
C      1  0.5418140000000  0.5402230000000  0.4481860000000 1.0
C      1  0.4775400000000  0.5960630000000  0.4644520000000 1.0
C      1  0.5802420000000  0.5778640000000  0.6095450000000 1.0
C      1  0.4061590000000  0.6125310000000  0.4820280000000 1.0
C      1  0.4850320000000  0.5148100000000  0.5068420000000 1.0
C      1  0.6850100000000  0.4841790000000  0.5707910000000 1.0
C      1  0.4704940000000  0.4325640000000  0.4123360000000 1.0
C      1  0.4925410000000  0.4932230000000  0.5630390000000 1.0
C      1  0.5453170000000  0.4904740000000  0.5647120000000 1.0
C      1  0.5346130000000  0.5229180000000  0.4029440000000 1.0
END
