TITL C-247198-3593-75 -5.88515722997476e-07 125000 -725.045673889384 0 0 119 (C1) n - 1
REM
REM in /home/nfs/bkarasulu/CARBON/AIRSS/Generating-Clusters/LCBOP/Only-C1/SD-CG/FIRE-HFTN
REM
REM
REM
REM
REM
REM ./C.cell (11c1c37f851c82e70ff6c80c92926a4b)
REM AIRSS Version 0.9.1 bugfix July 2018 build 013d7b7c2542+ Fri, 06 Jul 2018 19:26:36 +0100
REM compiler GCC version 9.2.1 20190827 (Red Hat 9.2.1-1)
REM options -cpp -mtune=generic -march=x86-64 -g -O0 -fpre-include=/usr/include/finclude/math-vector-fortran.h
REM seed 616777590 -522134058 -1545403659 -2015962728 661349661 1868767127 -1178140893 774845356 1645866694 -458760056 -1619350239 125521940 569647528 1094590008 1038985429 -785360876 -1704841350 -563969589 -1032568367 1471235680 -1972056479 -130523026 312108452 966152171 -1741829266 1574484022 1093765136 -1211661609 1250834290 -1778327601 1556878474 2073944512 1017008632
REM
CELL 1.54180   50.00000   50.00000   50.00000   90.00000   90.00000   90.00000
LATT -1
SFAC C  
C      1  0.4424810000000  0.4756380000000  0.4307320000000 1.0
C      1  0.4562180000000  0.5111110000000  0.4889900000000 1.0
C      1  0.4280060000000  0.4772880000000  0.5400370000000 1.0
C      1  0.5057200000000  0.5432870000000  0.5905880000000 1.0
C      1  0.5175840000000  0.5138940000000  0.5918250000000 1.0
C      1  0.4852750000000  0.4157120000000  0.4369700000000 1.0
C      1  0.4857470000000  0.4371020000000  0.4968650000000 1.0
C      1  0.4871670000000  0.3949610000000  0.5157040000000 1.0
C      1  0.4330290000000  0.5331830000000  0.4052470000000 1.0
C      1  0.4585800000000  0.5117080000000  0.5642500000000 1.0
C      1  0.5601790000000  0.5106900000000  0.5310360000000 1.0
C      1  0.4586090000000  0.4423750000000  0.4919320000000 1.0
C      1  0.5323550000000  0.4869750000000  0.4670330000000 1.0
C      1  0.5112760000000  0.4278250000000  0.4369970000000 1.0
C      1  0.5162560000000  0.4607800000000  0.5531290000000 1.0
C      1  0.5060630000000  0.5293610000000  0.5118210000000 1.0
C      1  0.5003460000000  0.4566550000000  0.5097750000000 1.0
C      1  0.5696930000000  0.4365990000000  0.4997750000000 1.0
C      1  0.5127360000000  0.4710280000000  0.4551900000000 1.0
C      1  0.5542420000000  0.5452290000000  0.5907680000000 1.0
C      1  0.4581020000000  0.5533180000000  0.5152110000000 1.0
C      1  0.4041350000000  0.5468430000000  0.5223170000000 1.0
C      1  0.5618940000000  0.5710430000000  0.4772570000000 1.0
C      1  0.5001400000000  0.5272800000000  0.4825740000000 1.0
C      1  0.5661010000000  0.5630030000000  0.5492730000000 1.0
C      1  0.4693400000000  0.5039130000000  0.5374290000000 1.0
C      1  0.4551920000000  0.4771170000000  0.5355840000000 1.0
C      1  0.5655360000000  0.4472770000000  0.4519520000000 1.0
C      1  0.4720320000000  0.6065980000000  0.4985770000000 1.0
C      1  0.5017990000000  0.4848580000000  0.5038530000000 1.0
C      1  0.4435150000000  0.5454290000000  0.4284140000000 1.0
C      1  0.4994880000000  0.5837000000000  0.5556340000000 1.0
C      1  0.4637750000000  0.5602190000000  0.4876060000000 1.0
C      1  0.5478640000000  0.5738370000000  0.4518000000000 1.0
C      1  0.4723030000000  0.4749100000000  0.5987240000000 1.0
C      1  0.5780760000000  0.4613960000000  0.5512570000000 1.0
C      1  0.4882570000000  0.5605420000000  0.5724960000000 1.0
C      1  0.5200660000000  0.4836260000000  0.5982760000000 1.0
C      1  0.4979770000000  0.4643060000000  0.5946000000000 1.0
C      1  0.5206380000000  0.4573230000000  0.4294050000000 1.0
C      1  0.4145360000000  0.4770880000000  0.4349710000000 1.0
C      1  0.5663400000000  0.4638720000000  0.5759310000000 1.0
C      1  0.4369310000000  0.4883320000000  0.4888730000000 1.0
C      1  0.5772370000000  0.4519000000000  0.4766880000000 1.0
C      1  0.5220200000000  0.5852470000000  0.4530140000000 1.0
C      1  0.4321310000000  0.5429320000000  0.4546260000000 1.0
C      1  0.4733160000000  0.6140790000000  0.5242900000000 1.0
C      1  0.5298950000000  0.5579990000000  0.6001830000000 1.0
C      1  0.4971070000000  0.5867780000000  0.4623580000000 1.0
C      1  0.4860860000000  0.4969440000000  0.4253330000000 1.0
C      1  0.5278570000000  0.4155390000000  0.4575040000000 1.0
C      1  0.5506760000000  0.5418420000000  0.4089410000000 1.0
C      1  0.5518820000000  0.4575450000000  0.4290760000000 1.0
C      1  0.5354140000000  0.4247830000000  0.5297220000000 1.0
C      1  0.4849450000000  0.4831640000000  0.4546660000000 1.0
C      1  0.5353530000000  0.5993530000000  0.5169120000000 1.0
C      1  0.4764480000000  0.5847200000000  0.4811990000000 1.0
C      1  0.4589920000000  0.5556730000000  0.5703320000000 1.0
C      1  0.4930100000000  0.5261830000000  0.4334710000000 1.0
C      1  0.5245970000000  0.5856480000000  0.5404270000000 1.0
C      1  0.5118490000000  0.5289120000000  0.4556390000000 1.0
C      1  0.5267490000000  0.4124530000000  0.4856120000000 1.0
C      1  0.5188540000000  0.4479860000000  0.5288530000000 1.0
C      1  0.4630730000000  0.3828060000000  0.5029860000000 1.0
C      1  0.5094140000000  0.4806060000000  0.4105340000000 1.0
C      1  0.4440610000000  0.5100100000000  0.3963880000000 1.0
C      1  0.4071790000000  0.5457850000000  0.4682760000000 1.0
C      1  0.5471350000000  0.4717620000000  0.5940990000000 1.0
C      1  0.4410420000000  0.5338130000000  0.5616950000000 1.0
C      1  0.3911930000000  0.4884250000000  0.4793960000000 1.0
C      1  0.5369290000000  0.5151880000000  0.4596620000000 1.0
C      1  0.5262770000000  0.4974940000000  0.3952720000000 1.0
C      1  0.5473910000000  0.4203290000000  0.5045570000000 1.0
C      1  0.5526870000000  0.5895910000000  0.4976620000000 1.0
C      1  0.4613220000000  0.3866090000000  0.4747850000000 1.0
C      1  0.5832150000000  0.4612850000000  0.5237640000000 1.0
C      1  0.4154540000000  0.5716970000000  0.5299510000000 1.0
C      1  0.5503360000000  0.5071540000000  0.5050880000000 1.0
C      1  0.5898270000000  0.4750290000000  0.4909800000000 1.0
C      1  0.4145250000000  0.5252910000000  0.5389750000000 1.0
C      1  0.4106900000000  0.4927090000000  0.4994020000000 1.0
C      1  0.4581610000000  0.4921080000000  0.4130260000000 1.0
C      1  0.5688320000000  0.4752650000000  0.4148640000000 1.0
C      1  0.4819410000000  0.4020950000000  0.5452510000000 1.0
C      1  0.5280640000000  0.4092170000000  0.5522990000000 1.0
C      1  0.4968770000000  0.5049820000000  0.5260730000000 1.0
C      1  0.4813890000000  0.6044000000000  0.5480560000000 1.0
C      1  0.6015320000000  0.4952440000000  0.4482870000000 1.0
C      1  0.4424450000000  0.5725520000000  0.5287310000000 1.0
C      1  0.5732190000000  0.5444840000000  0.4818720000000 1.0
C      1  0.4448350000000  0.3805450000000  0.5252850000000 1.0
C      1  0.4843520000000  0.4999280000000  0.4812400000000 1.0
C      1  0.5021440000000  0.4448190000000  0.5729770000000 1.0
C      1  0.4526910000000  0.5373770000000  0.4732150000000 1.0
C      1  0.4119700000000  0.4979100000000  0.5280570000000 1.0
C      1  0.5284220000000  0.4854130000000  0.5539400000000 1.0
C      1  0.4550190000000  0.3915980000000  0.5486810000000 1.0
C      1  0.4725690000000  0.5455520000000  0.4281910000000 1.0
C      1  0.5266570000000  0.5431860000000  0.5238780000000 1.0
C      1  0.5402440000000  0.5204350000000  0.3966400000000 1.0
C      1  0.5475800000000  0.5059670000000  0.5555910000000 1.0
C      1  0.5969910000000  0.5275420000000  0.4838010000000 1.0
C      1  0.3982870000000  0.5448390000000  0.4941430000000 1.0
C      1  0.5730390000000  0.5585640000000  0.5749640000000 1.0
C      1  0.5528720000000  0.5247960000000  0.4820650000000 1.0
C      1  0.4470490000000  0.4638450000000  0.4782180000000 1.0
C      1  0.5012820000000  0.4161990000000  0.5624490000000 1.0
C      1  0.4598220000000  0.4953060000000  0.5867810000000 1.0
C      1  0.5000080000000  0.4123580000000  0.4973950000000 1.0
C      1  0.3953220000000  0.4820850000000  0.4532930000000 1.0
C      1  0.4570230000000  0.5239690000000  0.5174180000000 1.0
C      1  0.5549150000000  0.5599500000000  0.4282430000000 1.0
C      1  0.5313720000000  0.4876420000000  0.4958120000000 1.0
C      1  0.4695350000000  0.3995060000000  0.4522600000000 1.0
C      1  0.4587000000000  0.4681460000000  0.4528660000000 1.0
C      1  0.5897580000000  0.4891290000000  0.4249310000000 1.0
C      1  0.5397520000000  0.5616490000000  0.5395150000000 1.0
C      1  0.5449930000000  0.5198910000000  0.5801800000000 1.0
C      1  0.5985750000000  0.4990150000000  0.4765180000000 1.0
END
