TITL C-247195-3186-428 0.00312851496376762 125000 -296.194507082874 0 0 51 (C1) n - 1
REM
REM in /home/nfs/bkarasulu/CARBON/AIRSS/Generating-Clusters/LCBOP/Only-C1/SD-CG/FIRE-HFTN
REM
REM
REM
REM
REM
REM ./C.cell (11c1c37f851c82e70ff6c80c92926a4b)
REM AIRSS Version 0.9.1 bugfix July 2018 build 013d7b7c2542+ Fri, 06 Jul 2018 19:26:36 +0100
REM compiler GCC version 9.2.1 20190827 (Red Hat 9.2.1-1)
REM options -cpp -mtune=generic -march=x86-64 -g -O0 -fpre-include=/usr/include/finclude/math-vector-fortran.h
REM seed -11180465 94526755 277757845 1042045132 1720151935 132204579 -1894355282 -1738085062 -1838710959 2101144839 144758208 -286347852 2117738854 1187102863 2117246655 -1059550726 -126975652 485093001 -1297878800 1770681243 -1850895238 633374815 1248780644 -1193760968 -54498924 301313262 169932774 -1458665990 -990451626 1052518099 1620995695 -1064319769 1235859149
REM
CELL 1.54180   50.00000   50.00000   50.00000   90.00000   90.00000   90.00000
LATT -1
SFAC C  
C      1  0.5164800000000  0.4324470000000  0.4424480000000 1.0
C      1  0.4707240000000  0.4473700000000  0.4333490000000 1.0
C      1  0.4662830000000  0.5594550000000  0.4574760000000 1.0
C      1  0.4499370000000  0.3806940000000  0.5289090000000 1.0
C      1  0.4932580000000  0.5146710000000  0.4863610000000 1.0
C      1  0.4786200000000  0.5173120000000  0.5447110000000 1.0
C      1  0.5090170000000  0.4484310000000  0.4905630000000 1.0
C      1  0.5374770000000  0.4642860000000  0.5974910000000 1.0
C      1  0.5521920000000  0.5492060000000  0.4852090000000 1.0
C      1  0.6239610000000  0.5832310000000  0.4156770000000 1.0
C      1  0.4945200000000  0.4362460000000  0.4273610000000 1.0
C      1  0.4805920000000  0.5624110000000  0.5288000000000 1.0
C      1  0.5478950000000  0.5385380000000  0.5755840000000 1.0
C      1  0.4681220000000  0.5241740000000  0.3928740000000 1.0
C      1  0.4615090000000  0.4596140000000  0.4570960000000 1.0
C      1  0.4759380000000  0.5704320000000  0.6265320000000 1.0
C      1  0.4775660000000  0.4949400000000  0.5276970000000 1.0
C      1  0.4747990000000  0.5540700000000  0.5766000000000 1.0
C      1  0.4701200000000  0.5339560000000  0.4462590000000 1.0
C      1  0.4690340000000  0.5301260000000  0.4186670000000 1.0
C      1  0.4672470000000  0.5175030000000  0.3672360000000 1.0
C      1  0.4626060000000  0.4875550000000  0.4593020000000 1.0
C      1  0.4953840000000  0.4932640000000  0.5053300000000 1.0
C      1  0.4816630000000  0.4244660000000  0.5232900000000 1.0
C      1  0.4332950000000  0.4655450000000  0.5354790000000 1.0
C      1  0.5527860000000  0.5549010000000  0.5952690000000 1.0
C      1  0.5221860000000  0.4376440000000  0.4681750000000 1.0
C      1  0.5326980000000  0.5399130000000  0.5028440000000 1.0
C      1  0.4757040000000  0.5120660000000  0.4638360000000 1.0
C      1  0.5054470000000  0.5391090000000  0.4949070000000 1.0
C      1  0.4658470000000  0.4017280000000  0.5263970000000 1.0
C      1  0.5110300000000  0.4514170000000  0.5596700000000 1.0
C      1  0.4776780000000  0.5447790000000  0.5505330000000 1.0
C      1  0.5158680000000  0.4737120000000  0.5015250000000 1.0
C      1  0.5396420000000  0.5311140000000  0.5285770000000 1.0
C      1  0.4625530000000  0.4439620000000  0.4807230000000 1.0
C      1  0.4749700000000  0.5623800000000  0.6017560000000 1.0
C      1  0.5422240000000  0.4791460000000  0.5064930000000 1.0
C      1  0.4877920000000  0.5605760000000  0.5018200000000 1.0
C      1  0.6062480000000  0.5748380000000  0.4328650000000 1.0
C      1  0.4559910000000  0.4774520000000  0.5306920000000 1.0
C      1  0.4837530000000  0.4374100000000  0.4981700000000 1.0
C      1  0.4732700000000  0.5714530000000  0.4804500000000 1.0
C      1  0.5404030000000  0.5213460000000  0.5548400000000 1.0
C      1  0.4341940000000  0.3600560000000  0.5313300000000 1.0
C      1  0.5272850000000  0.4701770000000  0.5727590000000 1.0
C      1  0.4960890000000  0.4350520000000  0.5449760000000 1.0
C      1  0.5702320000000  0.5577710000000  0.4678110000000 1.0
C      1  0.5332370000000  0.4949080000000  0.5608920000000 1.0
C      1  0.4663960000000  0.5108420000000  0.3420460000000 1.0
C      1  0.5882380000000  0.5663040000000  0.4503410000000 1.0
END
