TITL C-247199-3331-242 -4.05798215863548e-08 125000 -342.678965787613 0 0 57 (C1) n - 1
REM
REM in /home/nfs/bkarasulu/CARBON/AIRSS/Generating-Clusters/LCBOP/Only-C1/SD-CG/FIRE-HFTN
REM
REM
REM
REM
REM
REM ./C.cell (11c1c37f851c82e70ff6c80c92926a4b)
REM AIRSS Version 0.9.1 bugfix July 2018 build 013d7b7c2542+ Fri, 06 Jul 2018 19:26:36 +0100
REM compiler GCC version 9.2.1 20190827 (Red Hat 9.2.1-1)
REM options -cpp -mtune=generic -march=x86-64 -g -O0 -fpre-include=/usr/include/finclude/math-vector-fortran.h
REM seed -1542069849 506833546 921480009 -117075056 1688853936 1163122753 181595300 1570547465 339677407 522884314 1796645093 -1265218804 -1524179751 1587093319 -1729644274 1082423681 1768178116 1215356006 -1589780280 -513028755 -868311127 -1245874325 1322997843 1951974056 1996632574 -650022004 -1866192547 1050840746 559852448 -1625459340 1668622641 1133475141 -673417203
REM
CELL 1.54180   50.00000   50.00000   50.00000   90.00000   90.00000   90.00000
LATT -1
SFAC C  
C      1  0.5014870000000  0.4611630000000  0.4162540000000 1.0
C      1  0.5290300000000  0.4967030000000  0.4768740000000 1.0
C      1  0.5525550000000  0.5532340000000  0.5229040000000 1.0
C      1  0.5126970000000  0.5104150000000  0.4336850000000 1.0
C      1  0.5270280000000  0.4778730000000  0.4980980000000 1.0
C      1  0.5588640000000  0.5103270000000  0.5539670000000 1.0
C      1  0.4465710000000  0.4524410000000  0.4867810000000 1.0
C      1  0.5084440000000  0.4713250000000  0.5879000000000 1.0
C      1  0.4499190000000  0.4969500000000  0.5432220000000 1.0
C      1  0.5165730000000  0.4624440000000  0.4407590000000 1.0
C      1  0.5100210000000  0.4864100000000  0.5433750000000 1.0
C      1  0.5630480000000  0.5306300000000  0.5356850000000 1.0
C      1  0.5100410000000  0.5430670000000  0.5007710000000 1.0
C      1  0.5238490000000  0.5237990000000  0.4848610000000 1.0
C      1  0.5061810000000  0.4123860000000  0.4964420000000 1.0
C      1  0.5384070000000  0.4402130000000  0.5267040000000 1.0
C      1  0.4953840000000  0.5686490000000  0.5913080000000 1.0
C      1  0.4455940000000  0.4719580000000  0.5333180000000 1.0
C      1  0.4287340000000  0.5376590000000  0.4799010000000 1.0
C      1  0.4609440000000  0.5234570000000  0.5408610000000 1.0
C      1  0.4516190000000  0.4503350000000  0.5152640000000 1.0
C      1  0.5228680000000  0.4890780000000  0.4499400000000 1.0
C      1  0.5352400000000  0.4506780000000  0.5000350000000 1.0
C      1  0.4576930000000  0.4967170000000  0.4916310000000 1.0
C      1  0.5340480000000  0.4837890000000  0.5856990000000 1.0
C      1  0.5241490000000  0.5549660000000  0.5224810000000 1.0
C      1  0.4617040000000  0.5347220000000  0.5144700000000 1.0
C      1  0.4847010000000  0.5490660000000  0.4475510000000 1.0
C      1  0.5106150000000  0.5625770000000  0.5457880000000 1.0
C      1  0.4430720000000  0.5584540000000  0.4696050000000 1.0
C      1  0.4809870000000  0.4359510000000  0.4582570000000 1.0
C      1  0.4809850000000  0.4880210000000  0.5021320000000 1.0
C      1  0.4697670000000  0.4300120000000  0.5238240000000 1.0
C      1  0.4652400000000  0.5023840000000  0.4432170000000 1.0
C      1  0.5343200000000  0.4950220000000  0.5571810000000 1.0
C      1  0.5294720000000  0.5472330000000  0.4032530000000 1.0
C      1  0.4819320000000  0.5479480000000  0.4976460000000 1.0
C      1  0.5176090000000  0.4270000000000  0.5389470000000 1.0
C      1  0.5595250000000  0.4910920000000  0.5964830000000 1.0
C      1  0.4593160000000  0.4543170000000  0.4611430000000 1.0
C      1  0.4866830000000  0.5210600000000  0.4408560000000 1.0
C      1  0.4731350000000  0.5376890000000  0.5615060000000 1.0
C      1  0.4956930000000  0.4187990000000  0.5223880000000 1.0
C      1  0.5740370000000  0.5059170000000  0.5782060000000 1.0
C      1  0.4433090000000  0.5204240000000  0.4966540000000 1.0
C      1  0.4606380000000  0.4744630000000  0.4397970000000 1.0
C      1  0.5214700000000  0.4323500000000  0.4822920000000 1.0
C      1  0.4958890000000  0.5683630000000  0.4303960000000 1.0
C      1  0.4945620000000  0.4730850000000  0.5641030000000 1.0
C      1  0.5148340000000  0.5684290000000  0.4112870000000 1.0
C      1  0.4715770000000  0.5565780000000  0.4715720000000 1.0
C      1  0.5053510000000  0.4845720000000  0.5157710000000 1.0
C      1  0.5089520000000  0.4417250000000  0.4589310000000 1.0
C      1  0.4930810000000  0.5566990000000  0.5669060000000 1.0
C      1  0.4743360000000  0.4647190000000  0.4162520000000 1.0
C      1  0.5278460000000  0.5222660000000  0.4131990000000 1.0
C      1  0.5683700000000  0.5723960000000  0.5116640000000 1.0
END
