TITL C-247199-3331-236 -1.11729359158623e-07 125000 -185.05817300043 0 0 31 (C1) n - 1
REM
REM in /home/nfs/bkarasulu/CARBON/AIRSS/Generating-Clusters/LCBOP/Only-C1/SD-CG/FIRE-HFTN
REM
REM
REM
REM
REM
REM ./C.cell (11c1c37f851c82e70ff6c80c92926a4b)
REM AIRSS Version 0.9.1 bugfix July 2018 build 013d7b7c2542+ Fri, 06 Jul 2018 19:26:36 +0100
REM compiler GCC version 9.2.1 20190827 (Red Hat 9.2.1-1)
REM options -cpp -mtune=generic -march=x86-64 -g -O0 -fpre-include=/usr/include/finclude/math-vector-fortran.h
REM seed -1291672643 -865711759 1956923938 492895256 635071694 726531644 -1573423797 -1291404812 271470492 -228359797 -2082720828 829543980 1093956053 1677225423 -194160361 1869445199 519584475 370590614 1086458842 -871742902 987467174 -916008792 1208646591 1322741076 1833647213 -2034870644 316795209 1026030630 -41599215 -1594582347 1351623538 213204205 -143856190
REM
CELL 1.54180   50.00000   50.00000   50.00000   90.00000   90.00000   90.00000
LATT -1
SFAC C  
C      1  0.4623680000000  0.5001090000000  0.4568850000000 1.0
C      1  0.5258950000000  0.5002160000000  0.4917500000000 1.0
C      1  0.4639130000000  0.5662590000000  0.4721200000000 1.0
C      1  0.5083570000000  0.4979580000000  0.4691100000000 1.0
C      1  0.5495250000000  0.4585920000000  0.4794710000000 1.0
C      1  0.4871900000000  0.4368950000000  0.4403840000000 1.0
C      1  0.4846850000000  0.5716020000000  0.4880120000000 1.0
C      1  0.5297400000000  0.4411560000000  0.4695900000000 1.0
C      1  0.4654580000000  0.5045470000000  0.5288810000000 1.0
C      1  0.5226100000000  0.5462960000000  0.5468070000000 1.0
C      1  0.5437880000000  0.4749020000000  0.5517740000000 1.0
C      1  0.4609110000000  0.5001250000000  0.5562770000000 1.0
C      1  0.4727110000000  0.4575990000000  0.4309750000000 1.0
C      1  0.5149500000000  0.5430120000000  0.5200620000000 1.0
C      1  0.4832060000000  0.5012210000000  0.5733970000000 1.0
C      1  0.4358790000000  0.4949830000000  0.5658720000000 1.0
C      1  0.5107180000000  0.5063740000000  0.5753040000000 1.0
C      1  0.4802980000000  0.5012800000000  0.4795880000000 1.0
C      1  0.5088310000000  0.4323890000000  0.4555140000000 1.0
C      1  0.5104370000000  0.5166210000000  0.5105990000000 1.0
C      1  0.4822340000000  0.5085590000000  0.5071790000000 1.0
C      1  0.5040340000000  0.5638970000000  0.5047290000000 1.0
C      1  0.4461690000000  0.5225740000000  0.4528830000000 1.0
C      1  0.5427560000000  0.4785440000000  0.4988040000000 1.0
C      1  0.4485880000000  0.5485320000000  0.4592550000000 1.0
C      1  0.5196470000000  0.5324960000000  0.5695930000000 1.0
C      1  0.5291880000000  0.4856080000000  0.5713750000000 1.0
C      1  0.4767470000000  0.4849060000000  0.4361690000000 1.0
C      1  0.5752890000000  0.4566830000000  0.4703880000000 1.0
C      1  0.5047020000000  0.4919380000000  0.4415230000000 1.0
C      1  0.5491740000000  0.4741280000000  0.5257290000000 1.0
END
