TITL C-247199-3331-58 0.0200249313835373 125000 -712.360174500403 0 0 115 (C1) n - 1
REM
REM in /home/nfs/bkarasulu/CARBON/AIRSS/Generating-Clusters/LCBOP/Only-C1/SD-CG/FIRE-HFTN
REM
REM
REM
REM
REM
REM ./C.cell (11c1c37f851c82e70ff6c80c92926a4b)
REM AIRSS Version 0.9.1 bugfix July 2018 build 013d7b7c2542+ Fri, 06 Jul 2018 19:26:36 +0100
REM compiler GCC version 9.2.1 20190827 (Red Hat 9.2.1-1)
REM options -cpp -mtune=generic -march=x86-64 -g -O0 -fpre-include=/usr/include/finclude/math-vector-fortran.h
REM seed 582283928 102986807 -2052755354 1056208478 1151134633 1377302615 242580061 -1580625745 24530103 -246119267 1174941275 1018885262 985344765 -2008559852 -1118597696 -588753445 1465894869 1899606902 711327971 -1142065186 -398082097 1977625903 671125841 -718598676 -955723893 -428269472 -1171470296 -1409346514 -2118965987 794303378 242211222 1452820106 792113423
REM
CELL 1.54180   50.00000   50.00000   50.00000   90.00000   90.00000   90.00000
LATT -1
SFAC C  
C      1  0.4750220000000  0.5093810000000  0.5625910000000 1.0
C      1  0.5344560000000  0.5531700000000  0.4772460000000 1.0
C      1  0.4988040000000  0.4781120000000  0.5925730000000 1.0
C      1  0.4744410000000  0.5502770000000  0.4916600000000 1.0
C      1  0.4116720000000  0.5440760000000  0.4960720000000 1.0
C      1  0.4881110000000  0.4690660000000  0.4781870000000 1.0
C      1  0.5576470000000  0.5949530000000  0.4931620000000 1.0
C      1  0.6777930000000  0.4607300000000  0.3854200000000 1.0
C      1  0.4488810000000  0.5264970000000  0.5290270000000 1.0
C      1  0.4718510000000  0.4070810000000  0.5801570000000 1.0
C      1  0.4818170000000  0.4279350000000  0.5945330000000 1.0
C      1  0.5940600000000  0.5576260000000  0.6108560000000 1.0
C      1  0.4593800000000  0.4097780000000  0.4816260000000 1.0
C      1  0.4752390000000  0.4842180000000  0.5237880000000 1.0
C      1  0.5133680000000  0.5088910000000  0.4603000000000 1.0
C      1  0.5136340000000  0.4814730000000  0.4721780000000 1.0
C      1  0.3808980000000  0.5031230000000  0.5369550000000 1.0
C      1  0.4696870000000  0.4708690000000  0.4155910000000 1.0
C      1  0.6457890000000  0.4811670000000  0.4482420000000 1.0
C      1  0.4711820000000  0.4588340000000  0.5384110000000 1.0
C      1  0.4283590000000  0.4590630000000  0.5646860000000 1.0
C      1  0.5003280000000  0.4148590000000  0.5104740000000 1.0
C      1  0.4811590000000  0.5954970000000  0.5286210000000 1.0
C      1  0.4155240000000  0.4606460000000  0.4462640000000 1.0
C      1  0.4290830000000  0.4523030000000  0.5167670000000 1.0
C      1  0.5938410000000  0.4774510000000  0.4627590000000 1.0
C      1  0.4733050000000  0.4067780000000  0.5065970000000 1.0
C      1  0.5553600000000  0.4513140000000  0.4747010000000 1.0
C      1  0.4171050000000  0.4269560000000  0.5135310000000 1.0
C      1  0.4910520000000  0.4505130000000  0.5555170000000 1.0
C      1  0.4647660000000  0.3977340000000  0.5558710000000 1.0
C      1  0.5723030000000  0.5435060000000  0.6082450000000 1.0
C      1  0.4916520000000  0.4521460000000  0.5836610000000 1.0
C      1  0.5910700000000  0.4419710000000  0.3830420000000 1.0
C      1  0.5470880000000  0.4557240000000  0.5505740000000 1.0
C      1  0.4662510000000  0.6115190000000  0.4646890000000 1.0
C      1  0.4070500000000  0.4742070000000  0.5703810000000 1.0
C      1  0.4205510000000  0.5682550000000  0.5101390000000 1.0
C      1  0.5233550000000  0.4271880000000  0.5173050000000 1.0
C      1  0.5459280000000  0.5742550000000  0.5402930000000 1.0
C      1  0.6208710000000  0.4800760000000  0.4572410000000 1.0
C      1  0.5268890000000  0.4871310000000  0.5898360000000 1.0
C      1  0.4594150000000  0.5508030000000  0.5740540000000 1.0
C      1  0.5789150000000  0.4960910000000  0.4788660000000 1.0
C      1  0.4588040000000  0.5292550000000  0.5016720000000 1.0
C      1  0.5363430000000  0.5274320000000  0.4637400000000 1.0
C      1  0.6668210000000  0.4785460000000  0.4322490000000 1.0
C      1  0.5622590000000  0.5152780000000  0.4659460000000 1.0
C      1  0.5548470000000  0.5942710000000  0.5219030000000 1.0
C      1  0.4177390000000  0.4919920000000  0.4844130000000 1.0
C      1  0.3896930000000  0.4908560000000  0.5588510000000 1.0
C      1  0.5796080000000  0.6060310000000  0.4812050000000 1.0
C      1  0.4935470000000  0.6124030000000  0.4653850000000 1.0
C      1  0.6790680000000  0.4713990000000  0.4097650000000 1.0
C      1  0.5375930000000  0.4638710000000  0.4322910000000 1.0
C      1  0.5275050000000  0.4944090000000  0.5225340000000 1.0
C      1  0.5040720000000  0.5729840000000  0.5729920000000 1.0
C      1  0.4885170000000  0.5761650000000  0.5487630000000 1.0
C      1  0.4506710000000  0.5900350000000  0.4750380000000 1.0
C      1  0.4417520000000  0.4203430000000  0.4638250000000 1.0
C      1  0.4812100000000  0.4507650000000  0.4579660000000 1.0
C      1  0.4429270000000  0.5473980000000  0.5490940000000 1.0
C      1  0.6119880000000  0.4393940000000  0.3668930000000 1.0
C      1  0.5271340000000  0.5156750000000  0.5973920000000 1.0
C      1  0.5764760000000  0.4479670000000  0.4043540000000 1.0
C      1  0.5606170000000  0.5269460000000  0.5305920000000 1.0
C      1  0.4434530000000  0.4538240000000  0.5416840000000 1.0
C      1  0.3796940000000  0.5099060000000  0.5097890000000 1.0
C      1  0.5441710000000  0.5491610000000  0.5265570000000 1.0
C      1  0.5443830000000  0.4455360000000  0.5237700000000 1.0
C      1  0.3557470000000  0.5109670000000  0.4965940000000 1.0
C      1  0.4980110000000  0.5570910000000  0.5079400000000 1.0
C      1  0.5326340000000  0.4632480000000  0.4611240000000 1.0
C      1  0.5361090000000  0.5832550000000  0.4772780000000 1.0
C      1  0.5771870000000  0.4555430000000  0.4547760000000 1.0
C      1  0.5592990000000  0.4578220000000  0.5020880000000 1.0
C      1  0.4620950000000  0.5083530000000  0.4828750000000 1.0
C      1  0.4544790000000  0.6022380000000  0.5213760000000 1.0
C      1  0.4561100000000  0.3999790000000  0.5290070000000 1.0
C      1  0.4284120000000  0.4041540000000  0.5232340000000 1.0
C      1  0.6376400000000  0.4418530000000  0.3603690000000 1.0
C      1  0.5546020000000  0.5013340000000  0.5213650000000 1.0
C      1  0.5317750000000  0.5766460000000  0.5655130000000 1.0
C      1  0.3907710000000  0.4528560000000  0.4375390000000 1.0
C      1  0.4566500000000  0.5023370000000  0.5414560000000 1.0
C      1  0.4981530000000  0.5879510000000  0.5059860000000 1.0
C      1  0.5649510000000  0.4556210000000  0.4282730000000 1.0
C      1  0.4041200000000  0.5156540000000  0.4957510000000 1.0
C      1  0.4228950000000  0.5646350000000  0.5387470000000 1.0
C      1  0.4928460000000  0.4873110000000  0.4210930000000 1.0
C      1  0.5260150000000  0.5485050000000  0.5042940000000 1.0
C      1  0.4878470000000  0.5521120000000  0.5868830000000 1.0
C      1  0.5106680000000  0.5970100000000  0.4818270000000 1.0
C      1  0.4355900000000  0.4732720000000  0.4985300000000 1.0
C      1  0.4375870000000  0.5051470000000  0.4413660000000 1.0
C      1  0.4377500000000  0.4423820000000  0.4458510000000 1.0
C      1  0.5694410000000  0.4850820000000  0.5040460000000 1.0
C      1  0.4358070000000  0.5037380000000  0.4131360000000 1.0
C      1  0.5499650000000  0.5298000000000  0.6043790000000 1.0
C      1  0.6622410000000  0.4496420000000  0.3668720000000 1.0
C      1  0.4495620000000  0.4839450000000  0.4005660000000 1.0
C      1  0.4897810000000  0.5076790000000  0.4421250000000 1.0
C      1  0.5430420000000  0.4716990000000  0.5721580000000 1.0
C      1  0.4631020000000  0.5106120000000  0.4542870000000 1.0
C      1  0.4838280000000  0.5029700000000  0.5886220000000 1.0
C      1  0.4629340000000  0.4523040000000  0.4364370000000 1.0
C      1  0.4632590000000  0.5650610000000  0.4706240000000 1.0
C      1  0.4955700000000  0.5225720000000  0.5453750000000 1.0
C      1  0.5012960000000  0.5002600000000  0.5273950000000 1.0
C      1  0.4660100000000  0.4814350000000  0.4954250000000 1.0
C      1  0.4376400000000  0.5903850000000  0.5008550000000 1.0
C      1  0.4997700000000  0.5269820000000  0.5965720000000 1.0
C      1  0.4198170000000  0.4876610000000  0.4560630000000 1.0
C      1  0.5184470000000  0.4763510000000  0.4161990000000 1.0
C      1  0.4927030000000  0.5494590000000  0.5363790000000 1.0
END
