TITL C-247197-3123-198 1.12764891571549 125000 -954.220590342488 0 0 158 (C1) n - 1
REM
REM in /home/nfs/bkarasulu/CARBON/AIRSS/Generating-Clusters/LCBOP/Only-C1/SD-CG/FIRE-HFTN
REM
REM
REM
REM
REM
REM ./C.cell (11c1c37f851c82e70ff6c80c92926a4b)
REM AIRSS Version 0.9.1 bugfix July 2018 build 013d7b7c2542+ Fri, 06 Jul 2018 19:26:36 +0100
REM compiler GCC version 9.2.1 20190827 (Red Hat 9.2.1-1)
REM options -cpp -mtune=generic -march=x86-64 -g -O0 -fpre-include=/usr/include/finclude/math-vector-fortran.h
REM seed -785625291 -1879133575 563089637 878358038 2103409358 -728975731 -252157477 369003138 -232836859 408694093 215956501 509390137 80928868 -840739153 1243412611 -126767697 -1684465646 -1815380125 -237507073 -782559052 -75393673 534275841 -492080751 499258435 163390509 -584339149 -762928957 1298908291 1586193245 16998594 1068602236 1512404343 -99634976
REM
CELL 1.54180   50.00000   50.00000   50.00000   90.00000   90.00000   90.00000
LATT -1
SFAC C  
C      1  0.5320440000000  0.5193330000000  0.6457510000000 1.0
C      1  0.5096450000000  0.4493510000000  0.4578180000000 1.0
C      1  0.4445400000000  0.4230420000000  0.5773560000000 1.0
C      1  0.4790900000000  0.3778720000000  0.5332630000000 1.0
C      1  0.4739830000000  0.3873880000000  0.4852730000000 1.0
C      1  0.5787950000000  0.5013090000000  0.5211880000000 1.0
C      1  0.5310450000000  0.5882860000000  0.4890020000000 1.0
C      1  0.5454670000000  0.4402640000000  0.6092400000000 1.0
C      1  0.4393300000000  0.5512550000000  0.4246630000000 1.0
C      1  0.4424790000000  0.5427740000000  0.5963700000000 1.0
C      1  0.4744720000000  0.5972150000000  0.6114120000000 1.0
C      1  0.4286590000000  0.5243130000000  0.4218490000000 1.0
C      1  0.4534000000000  0.4509660000000  0.4927400000000 1.0
C      1  0.4049100000000  0.5354860000000  0.5656930000000 1.0
C      1  0.5272840000000  0.3972310000000  0.4745760000000 1.0
C      1  0.6060840000000  0.4591370000000  0.4684960000000 1.0
C      1  0.4783130000000  0.3972230000000  0.5520180000000 1.0
C      1  0.4836100000000  0.5337610000000  0.5731480000000 1.0
C      1  0.5072850000000  0.5196080000000  0.4470890000000 1.0
C      1  0.5912650000000  0.4908220000000  0.4355430000000 1.0
C      1  0.5026580000000  0.4932590000000  0.4375080000000 1.0
C      1  0.6099200000000  0.5229820000000  0.4929670000000 1.0
C      1  0.5314320000000  0.4397890000000  0.3958190000000 1.0
C      1  0.5342470000000  0.5458300000000  0.5071200000000 1.0
C      1  0.4290400000000  0.4166330000000  0.4745470000000 1.0
C      1  0.4439730000000  0.4946210000000  0.4791250000000 1.0
C      1  0.4871610000000  0.4574110000000  0.4063810000000 1.0
C      1  0.4032060000000  0.4674620000000  0.5237590000000 1.0
C      1  0.5487490000000  0.4757020000000  0.4426530000000 1.0
C      1  0.5095830000000  0.4582260000000  0.3882090000000 1.0
C      1  0.5369210000000  0.5542390000000  0.6161130000000 1.0
C      1  0.4623260000000  0.4438040000000  0.5387800000000 1.0
C      1  0.4275030000000  0.4935340000000  0.5950690000000 1.0
C      1  0.4731360000000  0.4546580000000  0.5952410000000 1.0
C      1  0.6568380000000  0.4145860000000  0.2998000000000 1.0
C      1  0.4479510000000  0.5139990000000  0.5979520000000 1.0
C      1  0.4853230000000  0.4998720000000  0.3718670000000 1.0
C      1  0.6361150000000  0.4184850000000  0.3151300000000 1.0
C      1  0.5684760000000  0.4533300000000  0.6120520000000 1.0
C      1  0.4852370000000  0.5807470000000  0.5921980000000 1.0
C      1  0.4924940000000  0.5614090000000  0.4964750000000 1.0
C      1  0.5729200000000  0.4303760000000  0.3618850000000 1.0
C      1  0.4252040000000  0.4689040000000  0.5793420000000 1.0
C      1  0.5735400000000  0.5871770000000  0.5025940000000 1.0
C      1  0.4591740000000  0.4103540000000  0.4757600000000 1.0
C      1  0.5067970000000  0.4296670000000  0.4365930000000 1.0
C      1  0.4680730000000  0.5343440000000  0.4665310000000 1.0
C      1  0.4459400000000  0.5497940000000  0.4749790000000 1.0
C      1  0.4289420000000  0.5393240000000  0.5257770000000 1.0
C      1  0.4006240000000  0.4639480000000  0.4917220000000 1.0
C      1  0.4995630000000  0.6076660000000  0.5215430000000 1.0
C      1  0.4386360000000  0.4332240000000  0.4341610000000 1.0
C      1  0.4366190000000  0.3895320000000  0.5158720000000 1.0
C      1  0.4834130000000  0.4816440000000  0.4208020000000 1.0
C      1  0.5337850000000  0.5869220000000  0.4422510000000 1.0
C      1  0.5646400000000  0.4999300000000  0.4411150000000 1.0
C      1  0.4801060000000  0.4683850000000  0.5442090000000 1.0
C      1  0.5206570000000  0.4414730000000  0.5056270000000 1.0
C      1  0.5347140000000  0.5496570000000  0.5581460000000 1.0
C      1  0.5210890000000  0.4736960000000  0.4482660000000 1.0
C      1  0.4431440000000  0.4674480000000  0.4721890000000 1.0
C      1  0.4872720000000  0.4894460000000  0.5224080000000 1.0
C      1  0.4843190000000  0.4328870000000  0.4200890000000 1.0
C      1  0.5531260000000  0.4279830000000  0.4430290000000 1.0
C      1  0.4565570000000  0.5970460000000  0.4884080000000 1.0
C      1  0.4089900000000  0.4362980000000  0.4807950000000 1.0
C      1  0.5038210000000  0.4538350000000  0.5553640000000 1.0
C      1  0.6030270000000  0.5678030000000  0.4697500000000 1.0
C      1  0.4653590000000  0.4880820000000  0.5628760000000 1.0
C      1  0.4711010000000  0.5086630000000  0.5815660000000 1.0
C      1  0.4789660000000  0.6111310000000  0.5406980000000 1.0
C      1  0.5192260000000  0.5632760000000  0.4920360000000 1.0
C      1  0.4556940000000  0.5343390000000  0.5175750000000 1.0
C      1  0.5695220000000  0.5257710000000  0.5307210000000 1.0
C      1  0.5582870000000  0.5395210000000  0.5750850000000 1.0
C      1  0.4627250000000  0.3785520000000  0.5102740000000 1.0
C      1  0.4430040000000  0.5970230000000  0.5138390000000 1.0
C      1  0.5481030000000  0.4389140000000  0.4934190000000 1.0
C      1  0.4011810000000  0.5586370000000  0.4715760000000 1.0
C      1  0.5344860000000  0.4177310000000  0.5454260000000 1.0
C      1  0.5676760000000  0.4591020000000  0.5017650000000 1.0
C      1  0.4154870000000  0.5471020000000  0.5893190000000 1.0
C      1  0.4008190000000  0.4927760000000  0.4694610000000 1.0
C      1  0.4996930000000  0.4498380000000  0.5840780000000 1.0
C      1  0.5985860000000  0.4980410000000  0.5007650000000 1.0
C      1  0.5926960000000  0.5679060000000  0.5137700000000 1.0
C      1  0.5148830000000  0.4947310000000  0.5167950000000 1.0
C      1  0.5189900000000  0.4384150000000  0.5351620000000 1.0
C      1  0.3907600000000  0.5530230000000  0.5475540000000 1.0
C      1  0.5318230000000  0.4268200000000  0.4226770000000 1.0
C      1  0.4109660000000  0.4670660000000  0.5514570000000 1.0
C      1  0.5580680000000  0.5754570000000  0.4521030000000 1.0
C      1  0.4674970000000  0.5079670000000  0.4746520000000 1.0
C      1  0.4242930000000  0.5200400000000  0.5485850000000 1.0
C      1  0.5452820000000  0.5403960000000  0.5315370000000 1.0
C      1  0.4441630000000  0.4406820000000  0.5176160000000 1.0
C      1  0.4740290000000  0.4342260000000  0.4835210000000 1.0
C      1  0.5050890000000  0.4809040000000  0.3712000000000 1.0
C      1  0.5287790000000  0.5187080000000  0.4663190000000 1.0
C      1  0.5472320000000  0.5958330000000  0.5116030000000 1.0
C      1  0.4196150000000  0.5097970000000  0.4826000000000 1.0
C      1  0.5940920000000  0.4627600000000  0.4433260000000 1.0
C      1  0.5320950000000  0.5800770000000  0.6058010000000 1.0
C      1  0.4296560000000  0.4157100000000  0.5194790000000 1.0
C      1  0.4659360000000  0.5585670000000  0.5802450000000 1.0
C      1  0.5939800000000  0.4264110000000  0.3462990000000 1.0
C      1  0.4630050000000  0.4203120000000  0.5561540000000 1.0
C      1  0.5006750000000  0.4427100000000  0.4840700000000 1.0
C      1  0.5937620000000  0.4701930000000  0.4912640000000 1.0
C      1  0.5229180000000  0.5056440000000  0.4912880000000 1.0
C      1  0.5799030000000  0.4772100000000  0.6091220000000 1.0
C      1  0.5749100000000  0.5237680000000  0.6241970000000 1.0
C      1  0.4744580000000  0.5535540000000  0.5136160000000 1.0
C      1  0.5538970000000  0.5225980000000  0.4532580000000 1.0
C      1  0.4527290000000  0.5748100000000  0.5580500000000 1.0
C      1  0.4290710000000  0.4815010000000  0.4024670000000 1.0
C      1  0.4456820000000  0.5006560000000  0.5451340000000 1.0
C      1  0.4594250000000  0.4211810000000  0.4225940000000 1.0
C      1  0.5132830000000  0.5847830000000  0.5842200000000 1.0
C      1  0.4968180000000  0.6079960000000  0.4647950000000 1.0
C      1  0.4638900000000  0.5075850000000  0.5226660000000 1.0
C      1  0.5427520000000  0.4948060000000  0.5627000000000 1.0
C      1  0.5467780000000  0.4188640000000  0.4707210000000 1.0
C      1  0.4335640000000  0.4582550000000  0.4458330000000 1.0
C      1  0.5259400000000  0.5970560000000  0.5326850000000 1.0
C      1  0.4085490000000  0.4986360000000  0.4407830000000 1.0
C      1  0.4061150000000  0.5565790000000  0.5249720000000 1.0
C      1  0.4141860000000  0.5821730000000  0.4643510000000 1.0
C      1  0.5023250000000  0.3867730000000  0.4789470000000 1.0
C      1  0.5739930000000  0.5039100000000  0.6036450000000 1.0
C      1  0.5128150000000  0.5157610000000  0.6260260000000 1.0
C      1  0.5520600000000  0.4344640000000  0.3776820000000 1.0
C      1  0.5250660000000  0.5797560000000  0.5572200000000 1.0
C      1  0.4399410000000  0.5079100000000  0.3997680000000 1.0
C      1  0.4450960000000  0.4490070000000  0.5886120000000 1.0
C      1  0.5668220000000  0.4526540000000  0.4414530000000 1.0
C      1  0.4889700000000  0.5411240000000  0.4484740000000 1.0
C      1  0.5596530000000  0.5110520000000  0.5799730000000 1.0
C      1  0.4627970000000  0.5103700000000  0.3829390000000 1.0
C      1  0.4857720000000  0.5682260000000  0.4384270000000 1.0
C      1  0.6207370000000  0.5698470000000  0.4492050000000 1.0
C      1  0.5602250000000  0.4793800000000  0.5215430000000 1.0
C      1  0.5365570000000  0.4871370000000  0.5353330000000 1.0
C      1  0.6061900000000  0.5512390000000  0.4935420000000 1.0
C      1  0.4562490000000  0.5733050000000  0.4369930000000 1.0
C      1  0.5112180000000  0.5366310000000  0.5766230000000 1.0
C      1  0.4445780000000  0.5794660000000  0.4655920000000 1.0
C      1  0.5179410000000  0.5341820000000  0.6044150000000 1.0
C      1  0.6150450000000  0.4224480000000  0.3307170000000 1.0
C      1  0.5205360000000  0.4404780000000  0.6000970000000 1.0
C      1  0.4840430000000  0.6068610000000  0.4898750000000 1.0
C      1  0.5053160000000  0.5888970000000  0.4451940000000 1.0
C      1  0.4195690000000  0.5376520000000  0.4786230000000 1.0
C      1  0.4549530000000  0.5960330000000  0.5396530000000 1.0
C      1  0.5776480000000  0.5830740000000  0.4723050000000 1.0
C      1  0.5608770000000  0.5482160000000  0.4452710000000 1.0
C      1  0.5525880000000  0.5374670000000  0.6351990000000 1.0
C      1  0.4195950000000  0.4758370000000  0.4284720000000 1.0
END
