TITL C-247202-1916-493 0.00508602681707284 125000 -893.899435876242 0 0 145 (C1) n - 1
REM
REM in /home/nfs/bkarasulu/CARBON/AIRSS/Generating-Clusters/LCBOP/Only-C1/SD-CG/FIRE-HFTN
REM
REM
REM
REM
REM
REM ./C.cell (11c1c37f851c82e70ff6c80c92926a4b)
REM AIRSS Version 0.9.1 bugfix July 2018 build 013d7b7c2542+ Fri, 06 Jul 2018 19:26:36 +0100
REM compiler GCC version 9.2.1 20190827 (Red Hat 9.2.1-1)
REM options -cpp -mtune=generic -march=x86-64 -g -O0 -fpre-include=/usr/include/finclude/math-vector-fortran.h
REM seed -72277634 444588045 -1327411475 -434436854 -440364707 1009987862 -1033535445 1116084745 -1375520162 69732116 -1833737150 1983482387 -1708139413 -907908740 -901307490 -818818264 642682813 1627489192 -926590401 746205649 -1917066179 1761791401 1606113462 2044054539 -225126859 2027700659 -1103569048 253165609 -86487740 -1300470382 2143336959 -1096103994 1532297036
REM
CELL 1.54180   50.00000   50.00000   50.00000   90.00000   90.00000   90.00000
LATT -1
SFAC C  
C      1  0.4070170000000  0.5521270000000  0.4764590000000 1.0
C      1  0.4757620000000  0.6607180000000  0.4715470000000 1.0
C      1  0.4760930000000  0.5240900000000  0.5758590000000 1.0
C      1  0.5304560000000  0.4606270000000  0.5117930000000 1.0
C      1  0.4712750000000  0.4568990000000  0.5512030000000 1.0
C      1  0.5157600000000  0.5935630000000  0.4265220000000 1.0
C      1  0.4882840000000  0.3867700000000  0.4675040000000 1.0
C      1  0.4838840000000  0.4649990000000  0.5269660000000 1.0
C      1  0.5682930000000  0.5243550000000  0.4172050000000 1.0
C      1  0.4690660000000  0.4670400000000  0.5031800000000 1.0
C      1  0.4949190000000  0.5035860000000  0.4295890000000 1.0
C      1  0.4228650000000  0.5414470000000  0.5973420000000 1.0
C      1  0.4620600000000  0.5201630000000  0.3783470000000 1.0
C      1  0.4461170000000  0.5062940000000  0.5307110000000 1.0
C      1  0.5398730000000  0.4996180000000  0.6272170000000 1.0
C      1  0.4137620000000  0.4536900000000  0.4694930000000 1.0
C      1  0.5324140000000  0.5547850000000  0.4860850000000 1.0
C      1  0.5917170000000  0.4183820000000  0.4441050000000 1.0
C      1  0.5208070000000  0.4396420000000  0.4959540000000 1.0
C      1  0.5239640000000  0.3896850000000  0.5055900000000 1.0
C      1  0.4975870000000  0.3892770000000  0.4948970000000 1.0
C      1  0.5421110000000  0.4956310000000  0.4805430000000 1.0
C      1  0.5149980000000  0.4348330000000  0.4705300000000 1.0
C      1  0.4747380000000  0.5843690000000  0.4480380000000 1.0
C      1  0.4623490000000  0.4910720000000  0.4616980000000 1.0
C      1  0.5750470000000  0.4549430000000  0.4897400000000 1.0
C      1  0.4360160000000  0.5740710000000  0.5111200000000 1.0
C      1  0.5216320000000  0.4434680000000  0.4464280000000 1.0
C      1  0.5446610000000  0.4264640000000  0.5677440000000 1.0
C      1  0.5291930000000  0.4723220000000  0.5883820000000 1.0
C      1  0.4875420000000  0.4487400000000  0.4058030000000 1.0
C      1  0.5002390000000  0.4359210000000  0.5837970000000 1.0
C      1  0.5209340000000  0.5278310000000  0.6678730000000 1.0
C      1  0.4313680000000  0.5452900000000  0.5709470000000 1.0
C      1  0.5926980000000  0.5729800000000  0.5036120000000 1.0
C      1  0.4620620000000  0.6178600000000  0.5157210000000 1.0
C      1  0.4123030000000  0.5444330000000  0.5501710000000 1.0
C      1  0.4248150000000  0.4084980000000  0.5785090000000 1.0
C      1  0.4275100000000  0.5347870000000  0.4343720000000 1.0
C      1  0.5349840000000  0.4049900000000  0.5511010000000 1.0
C      1  0.5642170000000  0.5227430000000  0.5150060000000 1.0
C      1  0.4944070000000  0.4213750000000  0.4064590000000 1.0
C      1  0.5744900000000  0.4871360000000  0.5956190000000 1.0
C      1  0.4514810000000  0.4437230000000  0.4402910000000 1.0
C      1  0.3963240000000  0.5128890000000  0.5161770000000 1.0
C      1  0.4947070000000  0.4089680000000  0.5776300000000 1.0
C      1  0.5801880000000  0.4122330000000  0.4675370000000 1.0
C      1  0.4181090000000  0.5229990000000  0.6159270000000 1.0
C      1  0.5200380000000  0.6026620000000  0.4802020000000 1.0
C      1  0.4240760000000  0.5203120000000  0.4098230000000 1.0
C      1  0.3999320000000  0.4651140000000  0.4475390000000 1.0
C      1  0.4409880000000  0.4278390000000  0.5272160000000 1.0
C      1  0.4406920000000  0.6017010000000  0.5129590000000 1.0
C      1  0.5429610000000  0.4010590000000  0.5237770000000 1.0
C      1  0.4872640000000  0.6373600000000  0.4790050000000 1.0
C      1  0.4365550000000  0.5293100000000  0.3858130000000 1.0
C      1  0.4078990000000  0.4966020000000  0.4103240000000 1.0
C      1  0.6129620000000  0.4794570000000  0.5072020000000 1.0
C      1  0.5371800000000  0.4608920000000  0.4339700000000 1.0
C      1  0.6094440000000  0.5482600000000  0.5443990000000 1.0
C      1  0.4283680000000  0.4532260000000  0.5947900000000 1.0
C      1  0.5952200000000  0.4407890000000  0.4297530000000 1.0
C      1  0.5105040000000  0.5250420000000  0.4280600000000 1.0
C      1  0.5114320000000  0.5419600000000  0.6876150000000 1.0
C      1  0.5007030000000  0.4664900000000  0.3882270000000 1.0
C      1  0.6018260000000  0.4648940000000  0.4871200000000 1.0
C      1  0.5018910000000  0.3995160000000  0.4199890000000 1.0
C      1  0.5103180000000  0.4756500000000  0.5248370000000 1.0
C      1  0.4866420000000  0.4597810000000  0.5746490000000 1.0
C      1  0.5575530000000  0.4990590000000  0.4561220000000 1.0
C      1  0.4862220000000  0.5097550000000  0.3741050000000 1.0
C      1  0.4039580000000  0.4810950000000  0.3881860000000 1.0
C      1  0.4075660000000  0.4659250000000  0.4942590000000 1.0
C      1  0.5902430000000  0.5622580000000  0.5311250000000 1.0
C      1  0.4661550000000  0.5380570000000  0.5005280000000 1.0
C      1  0.5573580000000  0.5957830000000  0.5274610000000 1.0
C      1  0.4527130000000  0.4135750000000  0.5064360000000 1.0
C      1  0.5478570000000  0.4864910000000  0.6039330000000 1.0
C      1  0.5137730000000  0.5193510000000  0.5455940000000 1.0
C      1  0.4606640000000  0.3942930000000  0.4643460000000 1.0
C      1  0.5709360000000  0.5223680000000  0.4456190000000 1.0
C      1  0.5545210000000  0.5151210000000  0.3958970000000 1.0
C      1  0.5464520000000  0.5565780000000  0.5580670000000 1.0
C      1  0.5864280000000  0.4210300000000  0.5356410000000 1.0
C      1  0.4527470000000  0.5434080000000  0.4418340000000 1.0
C      1  0.5952180000000  0.5575140000000  0.4800680000000 1.0
C      1  0.4045880000000  0.5389950000000  0.5235450000000 1.0
C      1  0.4838130000000  0.5443560000000  0.4791470000000 1.0
C      1  0.5108330000000  0.5361720000000  0.4835990000000 1.0
C      1  0.5647510000000  0.5718270000000  0.5424410000000 1.0
C      1  0.5972010000000  0.4698040000000  0.5522400000000 1.0
C      1  0.5289310000000  0.4436390000000  0.5839520000000 1.0
C      1  0.5027140000000  0.3864020000000  0.4434230000000 1.0
C      1  0.5310690000000  0.5780880000000  0.4698680000000 1.0
C      1  0.5841980000000  0.4652730000000  0.4296400000000 1.0
C      1  0.5926780000000  0.4809770000000  0.5773150000000 1.0
C      1  0.4986480000000  0.5087400000000  0.5681960000000 1.0
C      1  0.4587720000000  0.5585540000000  0.5185090000000 1.0
C      1  0.4182190000000  0.4968990000000  0.6210330000000 1.0
C      1  0.4936540000000  0.6041520000000  0.4408790000000 1.0
C      1  0.3959890000000  0.4901070000000  0.4355210000000 1.0
C      1  0.4708120000000  0.4592960000000  0.4266500000000 1.0
C      1  0.4711620000000  0.5595790000000  0.5439420000000 1.0
C      1  0.5675370000000  0.4137720000000  0.5157950000000 1.0
C      1  0.4612430000000  0.4900180000000  0.4892160000000 1.0
C      1  0.4134460000000  0.5578290000000  0.5033950000000 1.0
C      1  0.4066040000000  0.5350590000000  0.4540590000000 1.0
C      1  0.5763780000000  0.5970530000000  0.5054540000000 1.0
C      1  0.5700450000000  0.4952500000000  0.5192770000000 1.0
C      1  0.5322520000000  0.6078280000000  0.5267640000000 1.0
C      1  0.4593370000000  0.5444040000000  0.5652550000000 1.0
C      1  0.4989530000000  0.5646060000000  0.5455960000000 1.0
C      1  0.5971460000000  0.4418150000000  0.5486660000000 1.0
C      1  0.5037710000000  0.4831480000000  0.5789470000000 1.0
C      1  0.5599570000000  0.4761650000000  0.4388730000000 1.0
C      1  0.5249290000000  0.5471140000000  0.4315950000000 1.0
C      1  0.5719020000000  0.4262260000000  0.4904510000000 1.0
C      1  0.5025140000000  0.6191840000000  0.4630290000000 1.0
C      1  0.4474420000000  0.4411750000000  0.5511070000000 1.0
C      1  0.4757880000000  0.4850890000000  0.4379540000000 1.0
C      1  0.5548610000000  0.4751980000000  0.5010000000000 1.0
C      1  0.4564800000000  0.5121450000000  0.5059820000000 1.0
C      1  0.5863820000000  0.5403630000000  0.4611610000000 1.0
C      1  0.5955450000000  0.4857430000000  0.5287950000000 1.0
C      1  0.3991980000000  0.4875030000000  0.5079140000000 1.0
C      1  0.5078180000000  0.4926190000000  0.3800990000000 1.0
C      1  0.4765410000000  0.3987150000000  0.5119200000000 1.0
C      1  0.4223520000000  0.4721560000000  0.6123290000000 1.0
C      1  0.4872180000000  0.6252580000000  0.5056990000000 1.0
C      1  0.5339990000000  0.5029370000000  0.3834840000000 1.0
C      1  0.4333280000000  0.4343150000000  0.5748530000000 1.0
C      1  0.4716970000000  0.5576410000000  0.4565070000000 1.0
C      1  0.3894950000000  0.5126500000000  0.4515770000000 1.0
C      1  0.5293760000000  0.5731490000000  0.4410030000000 1.0
C      1  0.5194560000000  0.5105220000000  0.4932470000000 1.0
C      1  0.5124730000000  0.6105760000000  0.5073410000000 1.0
C      1  0.5529990000000  0.5437490000000  0.5021370000000 1.0
C      1  0.5211940000000  0.5471750000000  0.5480680000000 1.0
C      1  0.4362570000000  0.4367320000000  0.4634970000000 1.0
C      1  0.4462350000000  0.4144990000000  0.4785470000000 1.0
C      1  0.5305800000000  0.5135160000000  0.6477590000000 1.0
C      1  0.5107900000000  0.3940990000000  0.5614800000000 1.0
C      1  0.4234020000000  0.5472820000000  0.3698380000000 1.0
C      1  0.5529390000000  0.5511680000000  0.5842040000000 1.0
C      1  0.5137550000000  0.5037950000000  0.5213930000000 1.0
END
