TITL C-247201-3759-69 7.11697739812369e-07 125000 -546.054540138777 0 0 90 (C1) n - 1
REM
REM in /home/nfs/bkarasulu/CARBON/AIRSS/Generating-Clusters/LCBOP/Only-C1/SD-CG/FIRE-HFTN
REM
REM
REM
REM
REM
REM ./C.cell (11c1c37f851c82e70ff6c80c92926a4b)
REM AIRSS Version 0.9.1 bugfix July 2018 build 013d7b7c2542+ Fri, 06 Jul 2018 19:26:36 +0100
REM compiler GCC version 9.2.1 20190827 (Red Hat 9.2.1-1)
REM options -cpp -mtune=generic -march=x86-64 -g -O0 -fpre-include=/usr/include/finclude/math-vector-fortran.h
REM seed -1678287059 1739787025 859625689 -355719956 353048046 -630821325 623560551 -1745883797 -1458713375 -957367274 -1747095725 486709065 469233635 -1057760789 -1383089748 -1427560428 1393055716 804797170 -1567424257 -1823430585 1231531310 2006000005 -1009885212 -322674154 1360026232 694592227 -1720734245 -731683916 -1318370635 963979688 -1583388521 675491249 1645659765
REM
CELL 1.54180   50.00000   50.00000   50.00000   90.00000   90.00000   90.00000
LATT -1
SFAC C  
C      1  0.5269740000000  0.5595190000000  0.4561290000000 1.0
C      1  0.4470240000000  0.4674370000000  0.5406840000000 1.0
C      1  0.4847530000000  0.4760010000000  0.4976920000000 1.0
C      1  0.5751950000000  0.4593800000000  0.4994620000000 1.0
C      1  0.5229190000000  0.4538150000000  0.5604710000000 1.0
C      1  0.4352660000000  0.4493690000000  0.4978570000000 1.0
C      1  0.5818600000000  0.4603530000000  0.4703330000000 1.0
C      1  0.5049460000000  0.4231810000000  0.5249310000000 1.0
C      1  0.4284080000000  0.4869290000000  0.5268920000000 1.0
C      1  0.4799400000000  0.4902900000000  0.5780770000000 1.0
C      1  0.5624480000000  0.5726170000000  0.5030950000000 1.0
C      1  0.4788770000000  0.4292570000000  0.5140920000000 1.0
C      1  0.4798500000000  0.5439470000000  0.5568230000000 1.0
C      1  0.5231800000000  0.5341990000000  0.5496120000000 1.0
C      1  0.5804250000000  0.5266210000000  0.4942340000000 1.0
C      1  0.5669080000000  0.4401830000000  0.4568280000000 1.0
C      1  0.5444790000000  0.5816690000000  0.4560020000000 1.0
C      1  0.4262460000000  0.5451310000000  0.4821190000000 1.0
C      1  0.3710700000000  0.4244110000000  0.4404710000000 1.0
C      1  0.5679430000000  0.4178560000000  0.4389520000000 1.0
C      1  0.4696980000000  0.5312200000000  0.4735340000000 1.0
C      1  0.4214040000000  0.4425000000000  0.4499860000000 1.0
C      1  0.4332310000000  0.4794900000000  0.4968130000000 1.0
C      1  0.4381120000000  0.5707710000000  0.4719010000000 1.0
C      1  0.5107290000000  0.5509730000000  0.4770480000000 1.0
C      1  0.4238450000000  0.5157090000000  0.5288240000000 1.0
C      1  0.4929200000000  0.5052840000000  0.4254300000000 1.0
C      1  0.3957250000000  0.4330720000000  0.4448280000000 1.0
C      1  0.4818810000000  0.5573480000000  0.4802710000000 1.0
C      1  0.3968010000000  0.5384060000000  0.5694360000000 1.0
C      1  0.4615520000000  0.4904900000000  0.4956810000000 1.0
C      1  0.4343630000000  0.4603050000000  0.4323950000000 1.0
C      1  0.5776810000000  0.4853270000000  0.5433460000000 1.0
C      1  0.5211240000000  0.6051590000000  0.5073770000000 1.0
C      1  0.5424750000000  0.5898140000000  0.5144570000000 1.0
C      1  0.4938960000000  0.6069470000000  0.4985400000000 1.0
C      1  0.5660990000000  0.5046010000000  0.4515310000000 1.0
C      1  0.5959740000000  0.5047140000000  0.5036650000000 1.0
C      1  0.5197110000000  0.5049230000000  0.4250770000000 1.0
C      1  0.3467870000000  0.4159170000000  0.4362450000000 1.0
C      1  0.5515740000000  0.5077660000000  0.5784580000000 1.0
C      1  0.5403830000000  0.4381390000000  0.4734730000000 1.0
C      1  0.5216890000000  0.4616860000000  0.4741310000000 1.0
C      1  0.5733910000000  0.4618920000000  0.5581140000000 1.0
C      1  0.5093310000000  0.4458330000000  0.5839940000000 1.0
C      1  0.4505460000000  0.4805410000000  0.4260620000000 1.0
C      1  0.5047400000000  0.6114520000000  0.4514310000000 1.0
C      1  0.5727530000000  0.5470300000000  0.5136050000000 1.0
C      1  0.5679360000000  0.5104020000000  0.5547050000000 1.0
C      1  0.5505920000000  0.4485340000000  0.5614990000000 1.0
C      1  0.5125700000000  0.5377650000000  0.5235130000000 1.0
C      1  0.5310300000000  0.6053300000000  0.4479840000000 1.0
C      1  0.4355760000000  0.4346300000000  0.4732810000000 1.0
C      1  0.4857330000000  0.5477670000000  0.5293220000000 1.0
C      1  0.5317930000000  0.4269840000000  0.5198580000000 1.0
C      1  0.4537010000000  0.4440100000000  0.5221650000000 1.0
C      1  0.4661670000000  0.5806380000000  0.4674440000000 1.0
C      1  0.5282460000000  0.4997910000000  0.5933550000000 1.0
C      1  0.4265820000000  0.5212810000000  0.4627670000000 1.0
C      1  0.5296660000000  0.4118200000000  0.4627050000000 1.0
C      1  0.4934360000000  0.4557700000000  0.4781680000000 1.0
C      1  0.4186570000000  0.4958970000000  0.4752720000000 1.0
C      1  0.5518420000000  0.4394960000000  0.5028170000000 1.0
C      1  0.5021460000000  0.5075100000000  0.5834900000000 1.0
C      1  0.5023580000000  0.5318730000000  0.5698550000000 1.0
C      1  0.4360600000000  0.5310750000000  0.5075130000000 1.0
C      1  0.4541640000000  0.5215620000000  0.4511260000000 1.0
C      1  0.5711320000000  0.5353100000000  0.5400920000000 1.0
C      1  0.4852010000000  0.6036860000000  0.4705290000000 1.0
C      1  0.5847660000000  0.4815010000000  0.5159170000000 1.0
C      1  0.5456350000000  0.5047530000000  0.4320400000000 1.0
C      1  0.5205180000000  0.5332520000000  0.4970810000000 1.0
C      1  0.4622860000000  0.4764230000000  0.5630090000000 1.0
C      1  0.4093670000000  0.5272920000000  0.5494950000000 1.0
C      1  0.5154100000000  0.4552870000000  0.6086960000000 1.0
C      1  0.4608360000000  0.5184700000000  0.4972810000000 1.0
C      1  0.5359420000000  0.5114470000000  0.4881340000000 1.0
C      1  0.5132920000000  0.4710070000000  0.5397630000000 1.0
C      1  0.4816190000000  0.4307500000000  0.4846610000000 1.0
C      1  0.5080940000000  0.4811100000000  0.5140100000000 1.0
C      1  0.4599760000000  0.4206530000000  0.4699200000000 1.0
C      1  0.5605300000000  0.5180350000000  0.4758550000000 1.0
C      1  0.4655950000000  0.5034490000000  0.4325110000000 1.0
C      1  0.5277210000000  0.4791300000000  0.6126550000000 1.0
C      1  0.4760230000000  0.5927690000000  0.5154340000000 1.0
C      1  0.5850110000000  0.4838120000000  0.4548820000000 1.0
C      1  0.5279130000000  0.4848500000000  0.4924870000000 1.0
C      1  0.4760330000000  0.5649870000000  0.5104200000000 1.0
C      1  0.5655890000000  0.5790270000000  0.4750310000000 1.0
C      1  0.5461290000000  0.4013940000000  0.4428460000000 1.0
END
