TITL C-247201-3759-166 5.3597638324721e-05 125000 -140.196710390926 0 0 24 (C1) n - 1
REM
REM in /home/nfs/bkarasulu/CARBON/AIRSS/Generating-Clusters/LCBOP/Only-C1/SD-CG/FIRE-HFTN
REM
REM
REM
REM
REM
REM ./C.cell (11c1c37f851c82e70ff6c80c92926a4b)
REM AIRSS Version 0.9.1 bugfix July 2018 build 013d7b7c2542+ Fri, 06 Jul 2018 19:26:36 +0100
REM compiler GCC version 9.2.1 20190827 (Red Hat 9.2.1-1)
REM options -cpp -mtune=generic -march=x86-64 -g -O0 -fpre-include=/usr/include/finclude/math-vector-fortran.h
REM seed 616334183 766160766 868213380 -437566652 -1616888319 -1480979608 844715840 -664467811 519652883 -322984777 360995969 -1906607606 -2012038433 194411221 1738015946 -1156963016 998701137 41643958 535743648 773211228 172501184 441057559 -1479116293 1241410230 -835684622 1506470235 -935205662 227087554 883515412 416857512 1272781557 -1989656351 -979137403
REM
CELL 1.54180   50.00000   50.00000   50.00000   90.00000   90.00000   90.00000
LATT -1
SFAC C  
C      1  0.4961010000000  0.4595100000000  0.5041410000000 1.0
C      1  0.5572110000000  0.5082740000000  0.4413230000000 1.0
C      1  0.4714960000000  0.5260260000000  0.5449040000000 1.0
C      1  0.5152270000000  0.4981910000000  0.4742160000000 1.0
C      1  0.5982420000000  0.5188120000000  0.4094640000000 1.0
C      1  0.4539510000000  0.4848140000000  0.5675830000000 1.0
C      1  0.5777240000000  0.5135410000000  0.4253950000000 1.0
C      1  0.4530000000000  0.4970390000000  0.4950220000000 1.0
C      1  0.4740780000000  0.4613650000000  0.5215130000000 1.0
C      1  0.4596150000000  0.4582580000000  0.5669900000000 1.0
C      1  0.4694440000000  0.4444560000000  0.5441620000000 1.0
C      1  0.5143330000000  0.5312020000000  0.5226770000000 1.0
C      1  0.5003060000000  0.5251080000000  0.5454770000000 1.0
C      1  0.4587730000000  0.4859050000000  0.5201790000000 1.0
C      1  0.4953470000000  0.5180110000000  0.4795130000000 1.0
C      1  0.4579490000000  0.5011120000000  0.5448040000000 1.0
C      1  0.4766120000000  0.5545140000000  0.5060880000000 1.0
C      1  0.4995480000000  0.5384610000000  0.4990980000000 1.0
C      1  0.4737750000000  0.4175610000000  0.5438420000000 1.0
C      1  0.6184230000000  0.5239950000000  0.3937950000000 1.0
C      1  0.4683350000000  0.5096340000000  0.4767650000000 1.0
C      1  0.5115440000000  0.4734130000000  0.4872480000000 1.0
C      1  0.5367120000000  0.5030610000000  0.4572650000000 1.0
C      1  0.4622530000000  0.5477380000000  0.5285390000000 1.0
END
