TITL C-247197-3123-283 3.25645764983099e-07 125000 -681.582383614364 0 0 110 (C1) n - 1
REM
REM in /home/nfs/bkarasulu/CARBON/AIRSS/Generating-Clusters/LCBOP/Only-C1/SD-CG/FIRE-HFTN
REM
REM
REM
REM
REM
REM ./C.cell (11c1c37f851c82e70ff6c80c92926a4b)
REM AIRSS Version 0.9.1 bugfix July 2018 build 013d7b7c2542+ Fri, 06 Jul 2018 19:26:36 +0100
REM compiler GCC version 9.2.1 20190827 (Red Hat 9.2.1-1)
REM options -cpp -mtune=generic -march=x86-64 -g -O0 -fpre-include=/usr/include/finclude/math-vector-fortran.h
REM seed -24501891 1603016215 1978772526 -639924209 -2042038260 1526357172 -1841581904 -1474916150 -709585811 -1492877075 -1240120081 1188906518 2087077199 1632726298 1544854902 -1126135820 928394095 900267649 -1663393265 975006656 970901464 879300761 -395338572 1912299795 17115425 -1801679606 775557304 1015292982 990867664 -1063154492 -1640438240 -488491791 1711163641
REM
CELL 1.54180   50.00000   50.00000   50.00000   90.00000   90.00000   90.00000
LATT -1
SFAC C  
C      1  0.4511560000000  0.5550350000000  0.4548180000000 1.0
C      1  0.5824380000000  0.5162360000000  0.5667540000000 1.0
C      1  0.5393310000000  0.5286280000000  0.4293680000000 1.0
C      1  0.5878330000000  0.4511450000000  0.5379690000000 1.0
C      1  0.4957140000000  0.5485110000000  0.4775360000000 1.0
C      1  0.5022590000000  0.4502370000000  0.5729660000000 1.0
C      1  0.5067210000000  0.6230610000000  0.5903600000000 1.0
C      1  0.4114440000000  0.5026580000000  0.5532810000000 1.0
C      1  0.4593200000000  0.4876580000000  0.5183000000000 1.0
C      1  0.4114770000000  0.5307640000000  0.5551940000000 1.0
C      1  0.5610400000000  0.4658600000000  0.4007140000000 1.0
C      1  0.5447710000000  0.5428300000000  0.5497550000000 1.0
C      1  0.4866430000000  0.5864670000000  0.5305010000000 1.0
C      1  0.5016030000000  0.5117700000000  0.5122330000000 1.0
C      1  0.5173790000000  0.5394400000000  0.5514300000000 1.0
C      1  0.4777460000000  0.5142680000000  0.5543740000000 1.0
C      1  0.4954200000000  0.5814650000000  0.5578980000000 1.0
C      1  0.4148350000000  0.5083720000000  0.4758620000000 1.0
C      1  0.4407250000000  0.4460720000000  0.4867080000000 1.0
C      1  0.5415160000000  0.5558160000000  0.5018560000000 1.0
C      1  0.5843020000000  0.4424730000000  0.4888430000000 1.0
C      1  0.4367240000000  0.4651780000000  0.5757690000000 1.0
C      1  0.4495780000000  0.4628120000000  0.5085540000000 1.0
C      1  0.5464820000000  0.4729940000000  0.4837790000000 1.0
C      1  0.3929880000000  0.4814450000000  0.5097590000000 1.0
C      1  0.4803070000000  0.4666770000000  0.6532880000000 1.0
C      1  0.4063130000000  0.4715190000000  0.4274120000000 1.0
C      1  0.5876590000000  0.5057730000000  0.5406750000000 1.0
C      1  0.4203600000000  0.5548890000000  0.5479590000000 1.0
C      1  0.5086430000000  0.5729880000000  0.3898250000000 1.0
C      1  0.4101410000000  0.4531350000000  0.4468010000000 1.0
C      1  0.5546870000000  0.4937950000000  0.3976810000000 1.0
C      1  0.4852270000000  0.5173720000000  0.6011720000000 1.0
C      1  0.5602890000000  0.4525270000000  0.4261370000000 1.0
C      1  0.4354930000000  0.4195930000000  0.5926840000000 1.0
C      1  0.5165670000000  0.5149100000000  0.4404430000000 1.0
C      1  0.4068650000000  0.4822310000000  0.4852480000000 1.0
C      1  0.4668610000000  0.5510420000000  0.4780660000000 1.0
C      1  0.5724850000000  0.4401240000000  0.5599760000000 1.0
C      1  0.5299250000000  0.4200510000000  0.5054180000000 1.0
C      1  0.4676510000000  0.4324670000000  0.4464760000000 1.0
C      1  0.4496670000000  0.4408870000000  0.5815830000000 1.0
C      1  0.5555360000000  0.5426000000000  0.5232540000000 1.0
C      1  0.4847510000000  0.4208260000000  0.4885330000000 1.0
C      1  0.4359460000000  0.5733860000000  0.5366610000000 1.0
C      1  0.5733750000000  0.4978720000000  0.4439690000000 1.0
C      1  0.5216300000000  0.4657640000000  0.4729010000000 1.0
C      1  0.4600240000000  0.4265300000000  0.4741950000000 1.0
C      1  0.4318280000000  0.5400790000000  0.4432130000000 1.0
C      1  0.4934900000000  0.4906110000000  0.6068150000000 1.0
C      1  0.4272630000000  0.5260560000000  0.4944330000000 1.0
C      1  0.5116670000000  0.4884550000000  0.4293430000000 1.0
C      1  0.5603580000000  0.5100370000000  0.4212080000000 1.0
C      1  0.4961190000000  0.4641320000000  0.4840780000000 1.0
C      1  0.5035230000000  0.5864660000000  0.5069270000000 1.0
C      1  0.4872030000000  0.4789790000000  0.6313740000000 1.0
C      1  0.5352790000000  0.4742340000000  0.5494820000000 1.0
C      1  0.4724260000000  0.5086650000000  0.5010610000000 1.0
C      1  0.5156890000000  0.5505710000000  0.3770120000000 1.0
C      1  0.5059720000000  0.5908640000000  0.4095850000000 1.0
C      1  0.5941620000000  0.4785870000000  0.5368600000000 1.0
C      1  0.5627120000000  0.5347420000000  0.5703020000000 1.0
C      1  0.5238570000000  0.5252500000000  0.3737760000000 1.0
C      1  0.4908420000000  0.4183860000000  0.4370050000000 1.0
C      1  0.5291860000000  0.5002960000000  0.3856340000000 1.0
C      1  0.5685760000000  0.5126310000000  0.4688760000000 1.0
C      1  0.5102480000000  0.6004600000000  0.4342960000000 1.0
C      1  0.5790780000000  0.4347000000000  0.5150780000000 1.0
C      1  0.5428840000000  0.5733260000000  0.4565240000000 1.0
C      1  0.5345870000000  0.4412080000000  0.4361870000000 1.0
C      1  0.5045670000000  0.5212130000000  0.4667550000000 1.0
C      1  0.4222500000000  0.3997720000000  0.6032170000000 1.0
C      1  0.4546670000000  0.5328180000000  0.4971870000000 1.0
C      1  0.4790790000000  0.5033920000000  0.4716630000000 1.0
C      1  0.5742500000000  0.4685320000000  0.4464640000000 1.0
C      1  0.5423180000000  0.5562970000000  0.4335800000000 1.0
C      1  0.5129200000000  0.5605050000000  0.4982260000000 1.0
C      1  0.4913200000000  0.4448770000000  0.5044740000000 1.0
C      1  0.4982140000000  0.5545500000000  0.5672000000000 1.0
C      1  0.4773100000000  0.4763530000000  0.4655680000000 1.0
C      1  0.5205950000000  0.4658920000000  0.4441890000000 1.0
C      1  0.4771480000000  0.4384430000000  0.5760900000000 1.0
C      1  0.5226330000000  0.4459430000000  0.5491580000000 1.0
C      1  0.5140950000000  0.4138520000000  0.4793300000000 1.0
C      1  0.5566690000000  0.5607920000000  0.4781830000000 1.0
C      1  0.5230640000000  0.5946230000000  0.4589110000000 1.0
C      1  0.5749580000000  0.5400070000000  0.4717170000000 1.0
C      1  0.5020790000000  0.5187690000000  0.5389580000000 1.0
C      1  0.4581960000000  0.4959570000000  0.5457490000000 1.0
C      1  0.5117930000000  0.6030960000000  0.4844490000000 1.0
C      1  0.3941230000000  0.4898720000000  0.5351350000000 1.0
C      1  0.5174940000000  0.4197080000000  0.4494500000000 1.0
C      1  0.5083750000000  0.4882270000000  0.4011150000000 1.0
C      1  0.5218230000000  0.5122310000000  0.4910230000000 1.0
C      1  0.4089500000000  0.4983010000000  0.4283460000000 1.0
C      1  0.5542360000000  0.4201780000000  0.5213020000000 1.0
C      1  0.4584910000000  0.5847760000000  0.5278710000000 1.0
C      1  0.5480630000000  0.4281460000000  0.5501090000000 1.0
C      1  0.4674080000000  0.4609710000000  0.4440720000000 1.0
C      1  0.4177220000000  0.4577880000000  0.4735530000000 1.0
C      1  0.5773910000000  0.5238090000000  0.5208210000000 1.0
C      1  0.4168970000000  0.5165050000000  0.4482270000000 1.0
C      1  0.5079260000000  0.4758290000000  0.5872040000000 1.0
C      1  0.5477670000000  0.5012630000000  0.4858920000000 1.0
C      1  0.5698420000000  0.4602020000000  0.4732460000000 1.0
C      1  0.5118960000000  0.4379440000000  0.5223290000000 1.0
C      1  0.4352010000000  0.4885640000000  0.5605450000000 1.0
C      1  0.5011830000000  0.6029500000000  0.5747400000000 1.0
C      1  0.4809710000000  0.5322610000000  0.5775120000000 1.0
C      1  0.5293220000000  0.4879050000000  0.5724320000000 1.0
END
