TITL C-247200-3482-93 -8.76274164262865e-07 125000 -515.854672584297 0 0 86 (C1) n - 1
REM
REM in /home/nfs/bkarasulu/CARBON/AIRSS/Generating-Clusters/LCBOP/Only-C1/SD-CG/FIRE-HFTN
REM
REM
REM
REM
REM
REM ./C.cell (11c1c37f851c82e70ff6c80c92926a4b)
REM AIRSS Version 0.9.1 bugfix July 2018 build 013d7b7c2542+ Fri, 06 Jul 2018 19:26:36 +0100
REM compiler GCC version 9.2.1 20190827 (Red Hat 9.2.1-1)
REM options -cpp -mtune=generic -march=x86-64 -g -O0 -fpre-include=/usr/include/finclude/math-vector-fortran.h
REM seed 511535323 -1499258602 -1992538084 2069008932 -87172175 2049999903 -1416919194 2110596029 139504422 1952046069 -27797120 1429324946 -1919175938 -1945348069 -1038946181 -1418537400 1904278419 -998990059 -192784314 1650030002 -2124026159 1800044932 -242087809 1099898807 1131031378 1053626339 -1783684690 318103437 -1712594439 1805841094 -128255885 -775095446 -955442215
REM
CELL 1.54180   50.00000   50.00000   50.00000   90.00000   90.00000   90.00000
LATT -1
SFAC C  
C      1  0.5018270000000  0.5351990000000  0.5999090000000 1.0
C      1  0.5320270000000  0.4704540000000  0.5119770000000 1.0
C      1  0.5566770000000  0.5810880000000  0.5141070000000 1.0
C      1  0.4761160000000  0.4502140000000  0.4883530000000 1.0
C      1  0.5699120000000  0.5179840000000  0.4412980000000 1.0
C      1  0.5947190000000  0.5258480000000  0.4282000000000 1.0
C      1  0.4355200000000  0.5585180000000  0.4940640000000 1.0
C      1  0.5571950000000  0.5421450000000  0.5429070000000 1.0
C      1  0.4579260000000  0.5206100000000  0.4618670000000 1.0
C      1  0.5042600000000  0.4142440000000  0.5381680000000 1.0
C      1  0.4519850000000  0.4817170000000  0.4333070000000 1.0
C      1  0.4354580000000  0.4649980000000  0.4191700000000 1.0
C      1  0.5212730000000  0.5543350000000  0.5925050000000 1.0
C      1  0.4053590000000  0.4894390000000  0.5065630000000 1.0
C      1  0.5432430000000  0.4517040000000  0.5523580000000 1.0
C      1  0.5754360000000  0.4462920000000  0.5216480000000 1.0
C      1  0.4938930000000  0.4311050000000  0.4764430000000 1.0
C      1  0.4110060000000  0.5105000000000  0.4886210000000 1.0
C      1  0.5543190000000  0.4896910000000  0.5101700000000 1.0
C      1  0.5237360000000  0.5046960000000  0.4187630000000 1.0
C      1  0.5034890000000  0.4725810000000  0.5582170000000 1.0
C      1  0.5415500000000  0.5665670000000  0.5345440000000 1.0
C      1  0.4854390000000  0.5723460000000  0.5016900000000 1.0
C      1  0.5018420000000  0.5311640000000  0.4845860000000 1.0
C      1  0.5328950000000  0.4522810000000  0.4898000000000 1.0
C      1  0.4300030000000  0.4434730000000  0.5146220000000 1.0
C      1  0.4936390000000  0.4539790000000  0.4302740000000 1.0
C      1  0.5097740000000  0.4859310000000  0.4741840000000 1.0
C      1  0.5212300000000  0.5111410000000  0.4823210000000 1.0
C      1  0.4596970000000  0.5710370000000  0.4855420000000 1.0
C      1  0.5807120000000  0.5656380000000  0.5102070000000 1.0
C      1  0.4672530000000  0.5253510000000  0.5410800000000 1.0
C      1  0.5296170000000  0.4665310000000  0.4659490000000 1.0
C      1  0.4885350000000  0.4305230000000  0.4475620000000 1.0
C      1  0.5604110000000  0.4761120000000  0.5559240000000 1.0
C      1  0.5166180000000  0.5749470000000  0.5457550000000 1.0
C      1  0.4804090000000  0.4806080000000  0.4283640000000 1.0
C      1  0.5735660000000  0.4764410000000  0.5282530000000 1.0
C      1  0.4559580000000  0.4144500000000  0.5518770000000 1.0
C      1  0.4956170000000  0.5059110000000  0.4230560000000 1.0
C      1  0.4608810000000  0.5008850000000  0.5289700000000 1.0
C      1  0.4783310000000  0.4075990000000  0.4362880000000 1.0
C      1  0.4653910000000  0.5719230000000  0.5472850000000 1.0
C      1  0.5208100000000  0.4645920000000  0.5374130000000 1.0
C      1  0.5042910000000  0.5596310000000  0.4827660000000 1.0
C      1  0.5449700000000  0.4987190000000  0.5669230000000 1.0
C      1  0.4856080000000  0.4516370000000  0.5644280000000 1.0
C      1  0.5152170000000  0.5751850000000  0.5742920000000 1.0
C      1  0.4910960000000  0.5680570000000  0.5311700000000 1.0
C      1  0.4524740000000  0.5476220000000  0.5519210000000 1.0
C      1  0.5057330000000  0.5547740000000  0.4320890000000 1.0
C      1  0.5810180000000  0.5433870000000  0.5265390000000 1.0
C      1  0.4321980000000  0.4768230000000  0.5661950000000 1.0
C      1  0.4142370000000  0.5020400000000  0.4613000000000 1.0
C      1  0.5528310000000  0.5265620000000  0.5661840000000 1.0
C      1  0.3926750000000  0.4974320000000  0.4452090000000 1.0
C      1  0.4505750000000  0.3917760000000  0.5662090000000 1.0
C      1  0.4106350000000  0.4639670000000  0.5133910000000 1.0
C      1  0.4357020000000  0.4269130000000  0.5366220000000 1.0
C      1  0.4821640000000  0.4258980000000  0.5523220000000 1.0
C      1  0.5505650000000  0.5123170000000  0.4189910000000 1.0
C      1  0.4713190000000  0.4973870000000  0.5026480000000 1.0
C      1  0.4411230000000  0.5000920000000  0.4523320000000 1.0
C      1  0.4499760000000  0.4437570000000  0.4949750000000 1.0
C      1  0.5389640000000  0.4597290000000  0.4405750000000 1.0
C      1  0.4639810000000  0.5412680000000  0.4437000000000 1.0
C      1  0.5162330000000  0.4930890000000  0.5739130000000 1.0
C      1  0.4191270000000  0.5369960000000  0.4953980000000 1.0
C      1  0.4460100000000  0.4837850000000  0.5451260000000 1.0
C      1  0.5019520000000  0.5094390000000  0.5918550000000 1.0
C      1  0.4745160000000  0.5199810000000  0.4850880000000 1.0
C      1  0.4858380000000  0.4766960000000  0.4891970000000 1.0
C      1  0.4984330000000  0.5693550000000  0.4558590000000 1.0
C      1  0.5186670000000  0.4275380000000  0.4929420000000 1.0
C      1  0.5658640000000  0.5171590000000  0.3945650000000 1.0
C      1  0.5497980000000  0.6041900000000  0.5017220000000 1.0
C      1  0.5469730000000  0.5424690000000  0.5891060000000 1.0
C      1  0.4679830000000  0.5673790000000  0.4570620000000 1.0
C      1  0.5665950000000  0.5160290000000  0.4688870000000 1.0
C      1  0.5917050000000  0.5251200000000  0.4006690000000 1.0
C      1  0.5518180000000  0.4313960000000  0.5325110000000 1.0
C      1  0.4925220000000  0.5368380000000  0.5334160000000 1.0
C      1  0.5266180000000  0.4184060000000  0.5201980000000 1.0
C      1  0.5491140000000  0.5091610000000  0.4896890000000 1.0
C      1  0.5207850000000  0.4538440000000  0.4213760000000 1.0
C      1  0.4865440000000  0.5333650000000  0.4264760000000 1.0
END
