TITL C-247202-1916-75 -1.18777534868377e-06 125000 -725.978930381915 0 0 119 (C1) n - 1
REM
REM in /home/nfs/bkarasulu/CARBON/AIRSS/Generating-Clusters/LCBOP/Only-C1/SD-CG/FIRE-HFTN
REM
REM
REM
REM
REM
REM ./C.cell (11c1c37f851c82e70ff6c80c92926a4b)
REM AIRSS Version 0.9.1 bugfix July 2018 build 013d7b7c2542+ Fri, 06 Jul 2018 19:26:36 +0100
REM compiler GCC version 9.2.1 20190827 (Red Hat 9.2.1-1)
REM options -cpp -mtune=generic -march=x86-64 -g -O0 -fpre-include=/usr/include/finclude/math-vector-fortran.h
REM seed -1229838794 304232864 1901200460 -1217599741 884034905 633124869 -1631352735 -38808191 -1945867205 113694409 794476883 -1105427632 -779037820 -732699935 -1888653183 117222764 -797015774 -776527922 -1276240983 -1350089861 -913983986 -1099080232 531821778 -1656899227 -1203449180 194745322 -1009006750 1330515115 1154627776 -1300181666 613628010 1137469626 -1490634800
REM
CELL 1.54180   50.00000   50.00000   50.00000   90.00000   90.00000   90.00000
LATT -1
SFAC C  
C      1  0.4290510000000  0.5732570000000  0.5488620000000 1.0
C      1  0.4498930000000  0.4242040000000  0.4495340000000 1.0
C      1  0.4454600000000  0.5113530000000  0.4354080000000 1.0
C      1  0.5565280000000  0.4567630000000  0.4452290000000 1.0
C      1  0.5887360000000  0.5009100000000  0.5166030000000 1.0
C      1  0.4669830000000  0.4596350000000  0.5919640000000 1.0
C      1  0.5832220000000  0.5684970000000  0.4804770000000 1.0
C      1  0.5749350000000  0.4861090000000  0.4965570000000 1.0
C      1  0.4849550000000  0.4351990000000  0.5385460000000 1.0
C      1  0.5084080000000  0.4414770000000  0.4958960000000 1.0
C      1  0.5023620000000  0.5447370000000  0.4161800000000 1.0
C      1  0.5823980000000  0.5410370000000  0.4902670000000 1.0
C      1  0.4180240000000  0.4421400000000  0.4811400000000 1.0
C      1  0.5849260000000  0.4580800000000  0.4499090000000 1.0
C      1  0.4227190000000  0.4641640000000  0.4384790000000 1.0
C      1  0.3952520000000  0.5405360000000  0.5402550000000 1.0
C      1  0.3784570000000  0.5139450000000  0.4730000000000 1.0
C      1  0.4704480000000  0.4205540000000  0.4693070000000 1.0
C      1  0.4341670000000  0.5841920000000  0.4662220000000 1.0
C      1  0.4512910000000  0.4106910000000  0.4251660000000 1.0
C      1  0.5734750000000  0.5242710000000  0.4671850000000 1.0
C      1  0.5713120000000  0.4218400000000  0.5119300000000 1.0
C      1  0.5667340000000  0.4817620000000  0.3956740000000 1.0
C      1  0.5725960000000  0.5838750000000  0.5019700000000 1.0
C      1  0.4825080000000  0.5570310000000  0.4883160000000 1.0
C      1  0.4951470000000  0.5185350000000  0.4239220000000 1.0
C      1  0.4824200000000  0.5861030000000  0.5637630000000 1.0
C      1  0.5319120000000  0.4629020000000  0.4579290000000 1.0
C      1  0.5483950000000  0.5357910000000  0.5624430000000 1.0
C      1  0.5553930000000  0.4346290000000  0.5321670000000 1.0
C      1  0.4657910000000  0.5376980000000  0.5005480000000 1.0
C      1  0.5399520000000  0.5785080000000  0.6110080000000 1.0
C      1  0.4832660000000  0.4434330000000  0.4807840000000 1.0
C      1  0.4774190000000  0.3947450000000  0.4773510000000 1.0
C      1  0.5571150000000  0.5566760000000  0.5448430000000 1.0
C      1  0.4400020000000  0.5984540000000  0.5377240000000 1.0
C      1  0.4726770000000  0.5113100000000  0.4937660000000 1.0
C      1  0.3727990000000  0.5952900000000  0.5098430000000 1.0
C      1  0.5311260000000  0.4578360000000  0.4865110000000 1.0
C      1  0.5065230000000  0.5575290000000  0.4762280000000 1.0
C      1  0.4582020000000  0.4319000000000  0.5466710000000 1.0
C      1  0.5659030000000  0.4295570000000  0.3993380000000 1.0
C      1  0.4452920000000  0.4798860000000  0.5374150000000 1.0
C      1  0.5798760000000  0.4964040000000  0.4714990000000 1.0
C      1  0.5630230000000  0.5752800000000  0.5260870000000 1.0
C      1  0.5249100000000  0.5695580000000  0.5892680000000 1.0
C      1  0.5574570000000  0.5085420000000  0.5599410000000 1.0
C      1  0.4707140000000  0.4893200000000  0.5435000000000 1.0
C      1  0.4577220000000  0.4873470000000  0.4904200000000 1.0
C      1  0.4183470000000  0.5025940000000  0.5647730000000 1.0
C      1  0.5269030000000  0.5420040000000  0.5809590000000 1.0
C      1  0.5431560000000  0.5125490000000  0.4304370000000 1.0
C      1  0.5177910000000  0.5011020000000  0.4291500000000 1.0
C      1  0.5192290000000  0.4937370000000  0.5386670000000 1.0
C      1  0.5005610000000  0.5077380000000  0.4946750000000 1.0
C      1  0.4384650000000  0.4327980000000  0.5257320000000 1.0
C      1  0.5073630000000  0.4270130000000  0.5211550000000 1.0
C      1  0.5175650000000  0.5081780000000  0.5150000000000 1.0
C      1  0.4506690000000  0.4427510000000  0.5734780000000 1.0
C      1  0.4705550000000  0.5602510000000  0.5659560000000 1.0
C      1  0.4869340000000  0.5064210000000  0.5954580000000 1.0
C      1  0.4274200000000  0.4898810000000  0.4328720000000 1.0
C      1  0.4556100000000  0.3853490000000  0.3793200000000 1.0
C      1  0.4226690000000  0.6020010000000  0.5143220000000 1.0
C      1  0.5929710000000  0.5356140000000  0.4454410000000 1.0
C      1  0.5638650000000  0.4091170000000  0.4165260000000 1.0
C      1  0.4632300000000  0.4899500000000  0.5932190000000 1.0
C      1  0.5685310000000  0.3996150000000  0.4672320000000 1.0
C      1  0.5875880000000  0.5647060000000  0.4506490000000 1.0
C      1  0.4659310000000  0.6041890000000  0.5484360000000 1.0
C      1  0.6049960000000  0.5099180000000  0.4362700000000 1.0
C      1  0.4383210000000  0.5047720000000  0.5862730000000 1.0
C      1  0.5675640000000  0.4552450000000  0.3919340000000 1.0
C      1  0.4721240000000  0.4689250000000  0.4734730000000 1.0
C      1  0.5934800000000  0.4395350000000  0.4700110000000 1.0
C      1  0.4347290000000  0.5622660000000  0.4509550000000 1.0
C      1  0.5303090000000  0.4247300000000  0.5414170000000 1.0
C      1  0.4991320000000  0.4541430000000  0.5553360000000 1.0
C      1  0.5114650000000  0.4777600000000  0.4447510000000 1.0
C      1  0.4536670000000  0.5409640000000  0.5252330000000 1.0
C      1  0.5076620000000  0.5228700000000  0.5899190000000 1.0
C      1  0.4489620000000  0.5532540000000  0.5497410000000 1.0
C      1  0.5920470000000  0.5276170000000  0.5130090000000 1.0
C      1  0.5455360000000  0.4861670000000  0.5468280000000 1.0
C      1  0.5472040000000  0.5724690000000  0.4217680000000 1.0
C      1  0.5201870000000  0.4371140000000  0.5666410000000 1.0
C      1  0.4534230000000  0.3979390000000  0.4020430000000 1.0
C      1  0.5132400000000  0.4356780000000  0.5941300000000 1.0
C      1  0.5794770000000  0.4191730000000  0.4846250000000 1.0
C      1  0.4900950000000  0.4469470000000  0.6035620000000 1.0
C      1  0.5470500000000  0.5280770000000  0.4543410000000 1.0
C      1  0.5544120000000  0.4635250000000  0.5310510000000 1.0
C      1  0.4966800000000  0.4809040000000  0.5486470000000 1.0
C      1  0.4234880000000  0.4757630000000  0.5560690000000 1.0
C      1  0.4118810000000  0.5013260000000  0.5135180000000 1.0
C      1  0.5950280000000  0.4851910000000  0.4497250000000 1.0
C      1  0.4316960000000  0.5998860000000  0.4877720000000 1.0
C      1  0.5281390000000  0.5453340000000  0.4661800000000 1.0
C      1  0.4241240000000  0.4528920000000  0.5718050000000 1.0
C      1  0.5077300000000  0.5873760000000  0.5755280000000 1.0
C      1  0.4842830000000  0.3707930000000  0.4849840000000 1.0
C      1  0.4282400000000  0.4420570000000  0.4549480000000 1.0
C      1  0.3970410000000  0.5886200000000  0.5200750000000 1.0
C      1  0.5694720000000  0.5941110000000  0.6516020000000 1.0
C      1  0.5638230000000  0.3977470000000  0.4407970000000 1.0
C      1  0.5731500000000  0.5800170000000  0.4310420000000 1.0
C      1  0.4829930000000  0.4806150000000  0.4499300000000 1.0
C      1  0.4350860000000  0.4803280000000  0.5093710000000 1.0
C      1  0.4274060000000  0.4506870000000  0.5060800000000 1.0
C      1  0.3950740000000  0.5070810000000  0.4918620000000 1.0
C      1  0.4373810000000  0.5377150000000  0.4407990000000 1.0
C      1  0.5228660000000  0.5624560000000  0.4156930000000 1.0
C      1  0.5548020000000  0.5864050000000  0.6314770000000 1.0
C      1  0.4728320000000  0.5043820000000  0.4357660000000 1.0
C      1  0.5604070000000  0.5035590000000  0.4100450000000 1.0
C      1  0.4075730000000  0.5150190000000  0.5400660000000 1.0
C      1  0.5529730000000  0.4694820000000  0.5026560000000 1.0
C      1  0.5847870000000  0.6026910000000  0.4208760000000 1.0
C      1  0.4027360000000  0.5674250000000  0.5388740000000 1.0
END
