TITL C-247198-3593-457 2.37957598800196e-06 125000 -432.322178789265 0 0 72 (C1) n - 1
REM
REM in /home/nfs/bkarasulu/CARBON/AIRSS/Generating-Clusters/LCBOP/Only-C1/SD-CG/FIRE-HFTN
REM
REM
REM
REM
REM
REM ./C.cell (11c1c37f851c82e70ff6c80c92926a4b)
REM AIRSS Version 0.9.1 bugfix July 2018 build 013d7b7c2542+ Fri, 06 Jul 2018 19:26:36 +0100
REM compiler GCC version 9.2.1 20190827 (Red Hat 9.2.1-1)
REM options -cpp -mtune=generic -march=x86-64 -g -O0 -fpre-include=/usr/include/finclude/math-vector-fortran.h
REM seed 638647209 141337557 -1029415952 -1754131152 1599814820 698440106 -1327696026 1115862244 -605688058 -1694945847 69109896 -1971889965 -984989625 -5953091 1294006897 -1834628553 1278477223 1234108305 -1709488932 547780526 2136914421 -1987094471 -236356672 69917050 121471017 590245015 -55746373 1087133175 -1268227840 1684204832 -480892444 1051023810 -1914146163
REM
CELL 1.54180   50.00000   50.00000   50.00000   90.00000   90.00000   90.00000
LATT -1
SFAC C  
C      1  0.5672700000000  0.3960680000000  0.5400740000000 1.0
C      1  0.4876100000000  0.4998430000000  0.5543740000000 1.0
C      1  0.5640310000000  0.4461620000000  0.5503370000000 1.0
C      1  0.4393140000000  0.5096360000000  0.5126110000000 1.0
C      1  0.5080310000000  0.5795280000000  0.4277370000000 1.0
C      1  0.5718250000000  0.4207940000000  0.5487900000000 1.0
C      1  0.5189970000000  0.5632680000000  0.5761040000000 1.0
C      1  0.5586510000000  0.5516540000000  0.4746190000000 1.0
C      1  0.5419010000000  0.5029380000000  0.3948490000000 1.0
C      1  0.4601690000000  0.4071830000000  0.5363330000000 1.0
C      1  0.5388740000000  0.5319080000000  0.4724290000000 1.0
C      1  0.4781250000000  0.5063260000000  0.4821260000000 1.0
C      1  0.4684760000000  0.5666850000000  0.5373980000000 1.0
C      1  0.4752770000000  0.5484070000000  0.5578760000000 1.0
C      1  0.5219790000000  0.4886880000000  0.4616930000000 1.0
C      1  0.4449890000000  0.5155730000000  0.5383100000000 1.0
C      1  0.4705970000000  0.5899980000000  0.4899130000000 1.0
C      1  0.4975390000000  0.4596580000000  0.4908420000000 1.0
C      1  0.4898050000000  0.5140070000000  0.5093740000000 1.0
C      1  0.4832180000000  0.5295610000000  0.4341330000000 1.0
C      1  0.5569870000000  0.5859670000000  0.5127860000000 1.0
C      1  0.4329430000000  0.4887880000000  0.4685730000000 1.0
C      1  0.4911460000000  0.5579680000000  0.5794300000000 1.0
C      1  0.5518010000000  0.3801330000000  0.5254010000000 1.0
C      1  0.4975860000000  0.4657890000000  0.4284440000000 1.0
C      1  0.5505010000000  0.5183030000000  0.5220340000000 1.0
C      1  0.5539550000000  0.5361150000000  0.6071150000000 1.0
C      1  0.5194620000000  0.4843900000000  0.4337940000000 1.0
C      1  0.5002470000000  0.4106990000000  0.4828450000000 1.0
C      1  0.5303850000000  0.5364680000000  0.5243850000000 1.0
C      1  0.4203970000000  0.4684340000000  0.4571380000000 1.0
C      1  0.5248430000000  0.5061980000000  0.4159880000000 1.0
C      1  0.4681080000000  0.5664790000000  0.6275370000000 1.0
C      1  0.5223950000000  0.5574780000000  0.4168360000000 1.0
C      1  0.4188110000000  0.4229720000000  0.4722450000000 1.0
C      1  0.5124790000000  0.3898660000000  0.4938420000000 1.0
C      1  0.3972320000000  0.4352950000000  0.4309910000000 1.0
C      1  0.4822070000000  0.5791100000000  0.4393200000000 1.0
C      1  0.4967700000000  0.4367510000000  0.4738080000000 1.0
C      1  0.4791340000000  0.5625890000000  0.6042480000000 1.0
C      1  0.5637110000000  0.5725710000000  0.4906410000000 1.0
C      1  0.5071790000000  0.4693590000000  0.5163730000000 1.0
C      1  0.5076180000000  0.5364800000000  0.5076370000000 1.0
C      1  0.5110240000000  0.5311940000000  0.4206150000000 1.0
C      1  0.5289940000000  0.5809250000000  0.5566400000000 1.0
C      1  0.5413490000000  0.5030530000000  0.4770500000000 1.0
C      1  0.4682570000000  0.5554930000000  0.4315060000000 1.0
C      1  0.5436090000000  0.5887750000000  0.5357320000000 1.0
C      1  0.4294000000000  0.4118160000000  0.4938340000000 1.0
C      1  0.4744210000000  0.4795870000000  0.4195010000000 1.0
C      1  0.5473120000000  0.4953120000000  0.5050800000000 1.0
C      1  0.5071960000000  0.4906880000000  0.5723640000000 1.0
C      1  0.4798330000000  0.4099750000000  0.5538910000000 1.0
C      1  0.5371910000000  0.5497970000000  0.5925940000000 1.0
C      1  0.5305100000000  0.4777850000000  0.5677340000000 1.0
C      1  0.4676800000000  0.5207930000000  0.5549930000000 1.0
C      1  0.4892080000000  0.5286150000000  0.4642600000000 1.0
C      1  0.4957170000000  0.4430170000000  0.4456840000000 1.0
C      1  0.4677570000000  0.5808190000000  0.5147980000000 1.0
C      1  0.5357720000000  0.4727920000000  0.5198200000000 1.0
C      1  0.4431870000000  0.4070810000000  0.5159780000000 1.0
C      1  0.4686000000000  0.5057520000000  0.4236710000000 1.0
C      1  0.4927280000000  0.4920560000000  0.5274070000000 1.0
C      1  0.4968170000000  0.4835400000000  0.4751240000000 1.0
C      1  0.5459310000000  0.5613950000000  0.4035150000000 1.0
C      1  0.4756010000000  0.5911680000000  0.4637100000000 1.0
C      1  0.5450990000000  0.4661820000000  0.5462680000000 1.0
C      1  0.5118090000000  0.5401910000000  0.4788100000000 1.0
C      1  0.5003700000000  0.4133710000000  0.5695830000000 1.0
C      1  0.4489870000000  0.5024200000000  0.4868120000000 1.0
C      1  0.4118450000000  0.4421060000000  0.4530380000000 1.0
C      1  0.5312180000000  0.3782130000000  0.5086550000000 1.0
END
