TITL C-247196-3112-147 -1.46494942087033e-07 125000 -1237.06764897724 0 0 200 (C1) n - 1
REM
REM in /home/nfs/bkarasulu/CARBON/AIRSS/Generating-Clusters/LCBOP/Only-C1/SD-CG/FIRE-HFTN
REM
REM
REM
REM
REM
REM ./C.cell (11c1c37f851c82e70ff6c80c92926a4b)
REM AIRSS Version 0.9.1 bugfix July 2018 build 013d7b7c2542+ Fri, 06 Jul 2018 19:26:36 +0100
REM compiler GCC version 9.2.1 20190827 (Red Hat 9.2.1-1)
REM options -cpp -mtune=generic -march=x86-64 -g -O0 -fpre-include=/usr/include/finclude/math-vector-fortran.h
REM seed 1306220813 901610975 -806369657 1843239536 -1084284350 304978822 589648192 1958964149 -90451313 950038276 -702703582 27776216 644940002 1986149435 -935252735 415791188 658601904 -1186025935 -1651678247 -931587908 -274580107 319723422 452820742 -1862062021 910784444 693258706 257727186 -1098766466 1333204211 -1917852834 -1373537582 1319359044 1139324707
REM
CELL 1.54180   50.00000   50.00000   50.00000   90.00000   90.00000   90.00000
LATT -1
SFAC C  
C      1  0.4666260000000  0.4020040000000  0.5114170000000 1.0
C      1  0.4931590000000  0.4707780000000  0.6198180000000 1.0
C      1  0.5480870000000  0.4993690000000  0.4612330000000 1.0
C      1  0.4483380000000  0.4225870000000  0.5016050000000 1.0
C      1  0.5498580000000  0.5115510000000  0.6036570000000 1.0
C      1  0.4088660000000  0.4159080000000  0.4457120000000 1.0
C      1  0.5839090000000  0.4818200000000  0.4002050000000 1.0
C      1  0.6075300000000  0.4675620000000  0.4103430000000 1.0
C      1  0.5769280000000  0.4556410000000  0.4797950000000 1.0
C      1  0.6056130000000  0.5766460000000  0.5532950000000 1.0
C      1  0.5016070000000  0.5025670000000  0.5814670000000 1.0
C      1  0.3649060000000  0.4962800000000  0.4988090000000 1.0
C      1  0.4375500000000  0.5607030000000  0.5647010000000 1.0
C      1  0.5703270000000  0.5220410000000  0.5035190000000 1.0
C      1  0.4942250000000  0.3769110000000  0.4725100000000 1.0
C      1  0.4917720000000  0.4488890000000  0.3826130000000 1.0
C      1  0.5451910000000  0.6140890000000  0.5494110000000 1.0
C      1  0.4807010000000  0.3851090000000  0.4940300000000 1.0
C      1  0.3997360000000  0.4586310000000  0.4303590000000 1.0
C      1  0.4266620000000  0.4300960000000  0.5919250000000 1.0
C      1  0.3723530000000  0.4386410000000  0.4643370000000 1.0
C      1  0.5974500000000  0.5299770000000  0.5040020000000 1.0
C      1  0.5081910000000  0.5591600000000  0.5320670000000 1.0
C      1  0.6039270000000  0.5262060000000  0.4478060000000 1.0
C      1  0.4799850000000  0.4294180000000  0.4598350000000 1.0
C      1  0.4901430000000  0.4684590000000  0.4957200000000 1.0
C      1  0.5223980000000  0.6406040000000  0.5046430000000 1.0
C      1  0.4494450000000  0.4202330000000  0.5498990000000 1.0
C      1  0.5537010000000  0.5216310000000  0.4126490000000 1.0
C      1  0.5921000000000  0.5932610000000  0.5326050000000 1.0
C      1  0.4913600000000  0.5490760000000  0.5522370000000 1.0
C      1  0.6227560000000  0.4538500000000  0.3904050000000 1.0
C      1  0.3984080000000  0.5852740000000  0.4954790000000 1.0
C      1  0.4308230000000  0.5548520000000  0.4740620000000 1.0
C      1  0.5477180000000  0.5822410000000  0.4924910000000 1.0
C      1  0.5390580000000  0.4176480000000  0.5775470000000 1.0
C      1  0.4409330000000  0.5258890000000  0.6061990000000 1.0
C      1  0.5678540000000  0.4119100000000  0.4941000000000 1.0
C      1  0.5173330000000  0.5537390000000  0.3955850000000 1.0
C      1  0.5090240000000  0.4907790000000  0.6075060000000 1.0
C      1  0.4651060000000  0.4796420000000  0.6199770000000 1.0
C      1  0.4793690000000  0.4241700000000  0.6028020000000 1.0
C      1  0.5332200000000  0.5342320000000  0.6066750000000 1.0
C      1  0.3837660000000  0.3948450000000  0.5644270000000 1.0
C      1  0.5456710000000  0.6340690000000  0.4923700000000 1.0
C      1  0.4068910000000  0.5204950000000  0.4249850000000 1.0
C      1  0.3970060000000  0.4174180000000  0.5554170000000 1.0
C      1  0.6177270000000  0.4538530000000  0.3636840000000 1.0
C      1  0.4264470000000  0.5415720000000  0.4270050000000 1.0
C      1  0.4580740000000  0.4191390000000  0.4456390000000 1.0
C      1  0.4474070000000  0.5114800000000  0.4592320000000 1.0
C      1  0.4246210000000  0.5036950000000  0.5149620000000 1.0
C      1  0.4520370000000  0.5672990000000  0.4887970000000 1.0
C      1  0.6163980000000  0.4668450000000  0.4369910000000 1.0
C      1  0.5357600000000  0.5588110000000  0.5347180000000 1.0
C      1  0.5235910000000  0.5041520000000  0.5105610000000 1.0
C      1  0.5631380000000  0.4737010000000  0.5769940000000 1.0
C      1  0.3843820000000  0.4409560000000  0.4896300000000 1.0
C      1  0.4561050000000  0.4645290000000  0.5977750000000 1.0
C      1  0.4893450000000  0.4453360000000  0.4792260000000 1.0
C      1  0.5820580000000  0.4167860000000  0.5436320000000 1.0
C      1  0.5094750000000  0.5936960000000  0.4606370000000 1.0
C      1  0.4932090000000  0.4002910000000  0.5584240000000 1.0
C      1  0.5398600000000  0.5356110000000  0.3911460000000 1.0
C      1  0.5804380000000  0.4810350000000  0.3718960000000 1.0
C      1  0.5616660000000  0.5031920000000  0.5782230000000 1.0
C      1  0.5622540000000  0.4103100000000  0.5233840000000 1.0
C      1  0.5819290000000  0.5751860000000  0.4527510000000 1.0
C      1  0.4534720000000  0.5060730000000  0.6204690000000 1.0
C      1  0.5023800000000  0.4251370000000  0.3886680000000 1.0
C      1  0.4590300000000  0.4061670000000  0.4217290000000 1.0
C      1  0.4144620000000  0.5171340000000  0.5647090000000 1.0
C      1  0.5132330000000  0.5792110000000  0.4118990000000 1.0
C      1  0.4419390000000  0.4657910000000  0.5354170000000 1.0
C      1  0.3785820000000  0.4248820000000  0.5116560000000 1.0
C      1  0.4521990000000  0.4901690000000  0.5216100000000 1.0
C      1  0.4090330000000  0.4875720000000  0.4947490000000 1.0
C      1  0.4083030000000  0.4568870000000  0.4918520000000 1.0
C      1  0.5528630000000  0.6092030000000  0.4849670000000 1.0
C      1  0.4660900000000  0.5105390000000  0.4806410000000 1.0
C      1  0.5406930000000  0.5610370000000  0.4753970000000 1.0
C      1  0.4855290000000  0.4021750000000  0.5860610000000 1.0
C      1  0.4281740000000  0.5372270000000  0.5827760000000 1.0
C      1  0.5425920000000  0.4192550000000  0.4793260000000 1.0
C      1  0.4810340000000  0.6329710000000  0.4630250000000 1.0
C      1  0.4009300000000  0.4749200000000  0.5934890000000 1.0
C      1  0.5278330000000  0.4315900000000  0.5014890000000 1.0
C      1  0.6101900000000  0.5493470000000  0.5442420000000 1.0
C      1  0.4709680000000  0.5818860000000  0.4387090000000 1.0
C      1  0.5594160000000  0.5783730000000  0.5901020000000 1.0
C      1  0.4414440000000  0.5456810000000  0.5395730000000 1.0
C      1  0.5189700000000  0.4951350000000  0.5591810000000 1.0
C      1  0.3872290000000  0.5010650000000  0.4801470000000 1.0
C      1  0.4958250000000  0.5194570000000  0.4306090000000 1.0
C      1  0.4966770000000  0.5681620000000  0.5082420000000 1.0
C      1  0.4903820000000  0.5687870000000  0.4578430000000 1.0
C      1  0.6169830000000  0.5146340000000  0.4915410000000 1.0
C      1  0.4244560000000  0.4202730000000  0.5646730000000 1.0
C      1  0.4807840000000  0.4731630000000  0.3841360000000 1.0
C      1  0.5962860000000  0.4677180000000  0.3542750000000 1.0
C      1  0.3700060000000  0.4613070000000  0.5389520000000 1.0
C      1  0.5632830000000  0.4671970000000  0.5021360000000 1.0
C      1  0.5486880000000  0.5436940000000  0.5546750000000 1.0
C      1  0.5015200000000  0.4426740000000  0.6100310000000 1.0
C      1  0.5682030000000  0.4160830000000  0.5697780000000 1.0
C      1  0.5486830000000  0.5322390000000  0.3653050000000 1.0
C      1  0.5067450000000  0.4684570000000  0.4347160000000 1.0
C      1  0.5426020000000  0.4359670000000  0.4543330000000 1.0
C      1  0.5601320000000  0.4641130000000  0.5503520000000 1.0
C      1  0.4387880000000  0.4840890000000  0.4528980000000 1.0
C      1  0.4328360000000  0.4241940000000  0.4576940000000 1.0
C      1  0.4805860000000  0.5589390000000  0.4850490000000 1.0
C      1  0.4487870000000  0.4675530000000  0.4744740000000 1.0
C      1  0.4567160000000  0.5833780000000  0.5672170000000 1.0
C      1  0.5469430000000  0.4627620000000  0.5990130000000 1.0
C      1  0.4687480000000  0.5615030000000  0.3964820000000 1.0
C      1  0.4191190000000  0.4714910000000  0.5506150000000 1.0
C      1  0.6159160000000  0.5057930000000  0.4650620000000 1.0
C      1  0.4604860000000  0.4457260000000  0.5419340000000 1.0
C      1  0.6246320000000  0.4594410000000  0.4869780000000 1.0
C      1  0.6117380000000  0.4378640000000  0.5037760000000 1.0
C      1  0.4683210000000  0.5354970000000  0.5409200000000 1.0
C      1  0.4066050000000  0.4490660000000  0.6003020000000 1.0
C      1  0.5059030000000  0.5444840000000  0.4443560000000 1.0
C      1  0.5108010000000  0.3870700000000  0.4237540000000 1.0
C      1  0.5353920000000  0.4509690000000  0.5441610000000 1.0
C      1  0.5002870000000  0.6217810000000  0.5056590000000 1.0
C      1  0.5209680000000  0.4078590000000  0.5541840000000 1.0
C      1  0.5178800000000  0.6154530000000  0.5499120000000 1.0
C      1  0.5633800000000  0.5146520000000  0.4778070000000 1.0
C      1  0.5145970000000  0.4772460000000  0.5063500000000 1.0
C      1  0.4187440000000  0.5988650000000  0.5074460000000 1.0
C      1  0.5184270000000  0.5567380000000  0.5977510000000 1.0
C      1  0.4092820000000  0.4892790000000  0.5704290000000 1.0
C      1  0.4854750000000  0.5179080000000  0.4040550000000 1.0
C      1  0.4426250000000  0.5532950000000  0.4062150000000 1.0
C      1  0.6206800000000  0.4771450000000  0.4629610000000 1.0
C      1  0.5346820000000  0.5468330000000  0.4512630000000 1.0
C      1  0.4938320000000  0.6130300000000  0.5335210000000 1.0
C      1  0.4369560000000  0.5371610000000  0.4532620000000 1.0
C      1  0.5887720000000  0.4305240000000  0.4875500000000 1.0
C      1  0.5999190000000  0.5798310000000  0.5063410000000 1.0
C      1  0.5948770000000  0.5828030000000  0.4779290000000 1.0
C      1  0.5711830000000  0.4819430000000  0.5283490000000 1.0
C      1  0.5121040000000  0.5173690000000  0.4879160000000 1.0
C      1  0.4862030000000  0.5289700000000  0.4861830000000 1.0
C      1  0.4964650000000  0.6146320000000  0.4771400000000 1.0
C      1  0.4826910000000  0.5814100000000  0.4126470000000 1.0
C      1  0.4407630000000  0.4990620000000  0.3948510000000 1.0
C      1  0.5572370000000  0.5382900000000  0.4354570000000 1.0
C      1  0.5050840000000  0.3776600000000  0.4481070000000 1.0
C      1  0.5497810000000  0.5779030000000  0.5201200000000 1.0
C      1  0.6070960000000  0.5210530000000  0.5505070000000 1.0
C      1  0.5969290000000  0.4971560000000  0.5403690000000 1.0
C      1  0.5207410000000  0.5026030000000  0.4646160000000 1.0
C      1  0.4531020000000  0.4364680000000  0.6008170000000 1.0
C      1  0.5117870000000  0.4664050000000  0.5510000000000 1.0
C      1  0.4956380000000  0.5578910000000  0.5802100000000 1.0
C      1  0.5836090000000  0.5469340000000  0.4440450000000 1.0
C      1  0.5046370000000  0.4954220000000  0.4428620000000 1.0
C      1  0.5203310000000  0.4454040000000  0.4393530000000 1.0
C      1  0.5295230000000  0.4389270000000  0.5972960000000 1.0
C      1  0.4690910000000  0.4970190000000  0.3934870000000 1.0
C      1  0.4209200000000  0.5243060000000  0.5359120000000 1.0
C      1  0.4340810000000  0.4425280000000  0.4824450000000 1.0
C      1  0.5644110000000  0.4941930000000  0.4166790000000 1.0
C      1  0.4702190000000  0.4017550000000  0.5402470000000 1.0
C      1  0.5638470000000  0.5978400000000  0.5352940000000 1.0
C      1  0.3605780000000  0.5242530000000  0.4469570000000 1.0
C      1  0.4652010000000  0.4841800000000  0.4951290000000 1.0
C      1  0.5638070000000  0.4559910000000  0.4544410000000 1.0
C      1  0.4206450000000  0.4771180000000  0.4319050000000 1.0
C      1  0.4754550000000  0.4993360000000  0.5694730000000 1.0
C      1  0.3853930000000  0.5141270000000  0.4530510000000 1.0
C      1  0.5579960000000  0.5895140000000  0.4403950000000 1.0
C      1  0.5342800000000  0.5803830000000  0.6003090000000 1.0
C      1  0.4899460000000  0.5424470000000  0.3905420000000 1.0
C      1  0.4482600000000  0.5960150000000  0.4437830000000 1.0
C      1  0.4696750000000  0.6013410000000  0.5468380000000 1.0
C      1  0.3625660000000  0.4814910000000  0.5219200000000 1.0
C      1  0.3816150000000  0.4348220000000  0.5380540000000 1.0
C      1  0.4835750000000  0.4566910000000  0.5552920000000 1.0
C      1  0.5352770000000  0.4595130000000  0.5020720000000 1.0
C      1  0.5340500000000  0.4222490000000  0.5301330000000 1.0
C      1  0.4755840000000  0.5766820000000  0.5877240000000 1.0
C      1  0.4682920000000  0.5075000000000  0.5428120000000 1.0
C      1  0.5523630000000  0.5076890000000  0.5243290000000 1.0
C      1  0.3890030000000  0.4355380000000  0.4418380000000 1.0
C      1  0.4442870000000  0.5901800000000  0.5038770000000 1.0
C      1  0.6064110000000  0.5530770000000  0.5156940000000 1.0
C      1  0.5096810000000  0.4036710000000  0.4028240000000 1.0
C      1  0.5452630000000  0.5137480000000  0.5541310000000 1.0
C      1  0.5367020000000  0.4871120000000  0.6119950000000 1.0
C      1  0.5648790000000  0.5580840000000  0.5729420000000 1.0
C      1  0.4044370000000  0.5638700000000  0.4798060000000 1.0
C      1  0.6062200000000  0.4289830000000  0.5314600000000 1.0
C      1  0.4188540000000  0.4978030000000  0.4127460000000 1.0
C      1  0.5283100000000  0.5910600000000  0.4360210000000 1.0
C      1  0.4695030000000  0.4726950000000  0.5748270000000 1.0
C      1  0.5593730000000  0.4817430000000  0.4424070000000 1.0
END
