TITL C-247200-3482-547 -9220.91349659303 125000 -833.527637556329 0 0 140 (C1) n - 1
REM
REM in /home/nfs/bkarasulu/CARBON/AIRSS/Generating-Clusters/LCBOP/Only-C1/SD-CG/FIRE-HFTN
REM
REM
REM
REM
REM
REM ./C.cell (11c1c37f851c82e70ff6c80c92926a4b)
REM AIRSS Version 0.9.1 bugfix July 2018 build 013d7b7c2542+ Fri, 06 Jul 2018 19:26:36 +0100
REM compiler GCC version 9.2.1 20190827 (Red Hat 9.2.1-1)
REM options -cpp -mtune=generic -march=x86-64 -g -O0 -fpre-include=/usr/include/finclude/math-vector-fortran.h
REM seed 879520346 246386340 1477572934 565952576 1503864014 -303518535 375465442 -781881532 -1723254106 540540204 -1734142775 472627767 1288038146 -985528166 -407066836 901898775 1504353744 -1282019277 -2021325150 1890530921 -770316109 -1470950831 14733274 -45775292 1897988269 -1571238062 -1054881610 1099078204 617393677 1329496111 201321545 1308410483 -767349648
REM
CELL 1.54180   50.00000   50.00000   50.00000   90.00000   90.00000   90.00000
LATT -1
SFAC C  
C      1  0.5594620000000  0.3005590000000  0.3894040000000 1.0
C      1  0.5425140000000  0.4712970000000  0.4969930000000 1.0
C      1  0.4921890000000  0.4980760000000  0.6058950000000 1.0
C      1  0.5021060000000  0.4714330000000  0.5661110000000 1.0
C      1  0.4280630000000  0.4330560000000  0.5322030000000 1.0
C      1  0.5382740000000  0.5091080000000  0.6013880000000 1.0
C      1  0.4454840000000  0.5594140000000  0.5209320000000 1.0
C      1  0.5541730000000  0.4194330000000  0.5732940000000 1.0
C      1  0.4846570000000  0.4754030000000  0.5893400000000 1.0
C      1  0.4992020000000  0.5504710000000  0.4539880000000 1.0
C      1  0.5023280000000  0.5650350000000  0.5281730000000 1.0
C      1  0.4888050000000  0.5608720000000  0.4804820000000 1.0
C      1  0.4323810000000  0.4633770000000  0.5930490000000 1.0
C      1  0.5121900000000  0.5380940000000  0.5288310000000 1.0
C      1  0.5312620000000  0.6086980000000  0.5280280000000 1.0
C      1  0.5247940000000  0.3685540000000  0.4100470000000 1.0
C      1  0.4934330000000  0.5889890000000  0.4856150000000 1.0
C      1  0.6306570000000  0.4922020000000  0.5028070000000 1.0
C      1  0.5149160000000  0.5986290000000  0.4690490000000 1.0
C      1  0.4355860000000  0.4233990000000  0.5063090000000 1.0
C      1  0.5854600000000  0.5918280000000  0.4922270000000 1.0
C      1  0.4990970000000  0.5757260000000  0.5986150000000 1.0
C      1  0.4478250000000  0.5080860000000  0.5219640000000 1.0
C      1  0.5929950000000  0.5080130000000  0.5690490000000 1.0
C      1  0.5334470000000  0.5374110000000  0.6035390000000 1.0
C      1  0.5443770000000  0.4449060000000  0.4870200000000 1.0
C      1  0.3329030000000  0.5771630000000  0.4379940000000 1.0
C      1  0.4994690000000  0.4926780000000  0.4706500000000 1.0
C      1  0.5590590000000  0.5151560000000  0.4987420000000 1.0
C      1  0.5492270000000  0.5090560000000  0.5237870000000 1.0
C      1  0.4278580000000  0.5027420000000  0.4080830000000 1.0
C      1  0.5094720000000  0.4008140000000  0.5537930000000 1.0
C      1  0.5415700000000  0.5210260000000  0.3821070000000 1.0
C      1  0.4694100000000  0.5152040000000  0.5021150000000 1.0
C      1  0.4673340000000  0.4841640000000  0.4265130000000 1.0
C      1  0.5494860000000  0.4956340000000  0.4776390000000 1.0
C      1  0.4554360000000  0.5374040000000  0.4611660000000 1.0
C      1  0.5480210000000  0.3231000000000  0.3957830000000 1.0
C      1  0.6061150000000  0.5724790000000  0.4935060000000 1.0
C      1  0.4595010000000  0.4996340000000  0.5479850000000 1.0
C      1  0.5020000000000  0.4135030000000  0.4304770000000 1.0
C      1  0.4064630000000  0.4820600000000  0.4717360000000 1.0
C      1  0.4318050000000  0.4428030000000  0.4859760000000 1.0
C      1  0.4321190000000  0.5334020000000  0.5321610000000 1.0
C      1  0.6257150000000  0.5107200000000  0.5211520000000 1.0
C      1  0.4543580000000  0.3908340000000  0.4759820000000 1.0
C      1  0.6230880000000  0.5690950000000  0.4715220000000 1.0
C      1  0.4070380000000  0.5210660000000  0.4133690000000 1.0
C      1  0.4255020000000  0.4733850000000  0.4086030000000 1.0
C      1  0.4715730000000  0.5530090000000  0.5594490000000 1.0
C      1  0.4559030000000  0.5080620000000  0.4144230000000 1.0
C      1  0.6330190000000  0.5559090000000  0.4507100000000 1.0
C      1  0.5888430000000  0.4262370000000  0.5412770000000 1.0
C      1  0.5363930000000  0.3459430000000  0.4025360000000 1.0
C      1  0.4875340000000  0.6076840000000  0.5079200000000 1.0
C      1  0.4284670000000  0.5403430000000  0.5630930000000 1.0
C      1  0.3778030000000  0.5496370000000  0.4503990000000 1.0
C      1  0.4302100000000  0.5268680000000  0.4600130000000 1.0
C      1  0.5749600000000  0.4875880000000  0.5752700000000 1.0
C      1  0.4122440000000  0.5081250000000  0.4647180000000 1.0
C      1  0.6280880000000  0.4826160000000  0.4781580000000 1.0
C      1  0.4505410000000  0.4620200000000  0.4181940000000 1.0
C      1  0.3545220000000  0.5638820000000  0.4439490000000 1.0
C      1  0.5829740000000  0.4231610000000  0.5154670000000 1.0
C      1  0.4237260000000  0.5688320000000  0.5039500000000 1.0
C      1  0.4768020000000  0.5456120000000  0.3916310000000 1.0
C      1  0.3913690000000  0.5364350000000  0.4290480000000 1.0
C      1  0.5361600000000  0.4976410000000  0.3922750000000 1.0
C      1  0.5650310000000  0.4287040000000  0.4966540000000 1.0
C      1  0.6086010000000  0.5555840000000  0.5158630000000 1.0
C      1  0.6063130000000  0.5537460000000  0.5754930000000 1.0
C      1  0.6130030000000  0.5331120000000  0.5321600000000 1.0
C      1  0.5317290000000  0.4062210000000  0.5674890000000 1.0
C      1  0.5902080000000  0.4549310000000  0.4283380000000 1.0
C      1  0.5133550000000  0.3907500000000  0.4188790000000 1.0
C      1  0.4325270000000  0.4818890000000  0.5140310000000 1.0
C      1  0.5063200000000  0.5230660000000  0.5506370000000 1.0
C      1  0.5582340000000  0.6158190000000  0.5274500000000 1.0
C      1  0.5313140000000  0.4746110000000  0.4044620000000 1.0
C      1  0.5764190000000  0.4345550000000  0.5650480000000 1.0
C      1  0.3859040000000  0.5495700000000  0.4777480000000 1.0
C      1  0.4024810000000  0.5303090000000  0.5233270000000 1.0
C      1  0.4568520000000  0.5351970000000  0.6052890000000 1.0
C      1  0.5114780000000  0.6227380000000  0.5139520000000 1.0
C      1  0.4843280000000  0.4374350000000  0.5363550000000 1.0
C      1  0.4520300000000  0.4006180000000  0.5020700000000 1.0
C      1  0.5473690000000  0.4937750000000  0.5786140000000 1.0
C      1  0.4737170000000  0.4151570000000  0.4334510000000 1.0
C      1  0.4768580000000  0.6055170000000  0.5598840000000 1.0
C      1  0.5066800000000  0.5486520000000  0.6055910000000 1.0
C      1  0.6040360000000  0.5318890000000  0.5591730000000 1.0
C      1  0.4588990000000  0.4357220000000  0.4214350000000 1.0
C      1  0.4883260000000  0.4097300000000  0.5377740000000 1.0
C      1  0.5321020000000  0.4840130000000  0.5248280000000 1.0
C      1  0.4877010000000  0.5943850000000  0.5823100000000 1.0
C      1  0.5189360000000  0.4346710000000  0.4391380000000 1.0
C      1  0.5231470000000  0.5831650000000  0.5382900000000 1.0
C      1  0.5241130000000  0.5064560000000  0.4651890000000 1.0
C      1  0.5698920000000  0.4880760000000  0.4577790000000 1.0
C      1  0.5266250000000  0.4539180000000  0.4203220000000 1.0
C      1  0.4712470000000  0.3943420000000  0.5217140000000 1.0
C      1  0.4251210000000  0.4702210000000  0.4888400000000 1.0
C      1  0.5816600000000  0.4602920000000  0.5748970000000 1.0
C      1  0.4694180000000  0.5327740000000  0.4144820000000 1.0
C      1  0.6295810000000  0.5071860000000  0.4368950000000 1.0
C      1  0.5184220000000  0.4955320000000  0.6167880000000 1.0
C      1  0.4863440000000  0.5308860000000  0.5686650000000 1.0
C      1  0.4441150000000  0.4983330000000  0.5695590000000 1.0
C      1  0.5899580000000  0.4336290000000  0.4133230000000 1.0
C      1  0.4006250000000  0.5506410000000  0.5018470000000 1.0
C      1  0.4691850000000  0.5394320000000  0.4866290000000 1.0
C      1  0.5211720000000  0.5326000000000  0.4544460000000 1.0
C      1  0.4599750000000  0.4615160000000  0.5950870000000 1.0
C      1  0.4725560000000  0.6084130000000  0.5329020000000 1.0
C      1  0.5019050000000  0.4808620000000  0.5192070000000 1.0
C      1  0.4851830000000  0.5271350000000  0.5985260000000 1.0
C      1  0.4915310000000  0.4638360000000  0.5402320000000 1.0
C      1  0.4192320000000  0.4169820000000  0.5523180000000 1.0
C      1  0.3907510000000  0.5105110000000  0.5412480000000 1.0
C      1  0.5664260000000  0.5927030000000  0.4714730000000 1.0
C      1  0.3846250000000  0.4581050000000  0.4328220000000 1.0
C      1  0.4358410000000  0.5413040000000  0.5891070000000 1.0
C      1  0.4008720000000  0.4604830000000  0.4115630000000 1.0
C      1  0.5923980000000  0.4765920000000  0.4457400000000 1.0
C      1  0.5290900000000  0.4811260000000  0.5608800000000 1.0
C      1  0.4205690000000  0.4846310000000  0.5773460000000 1.0
C      1  0.5390780000000  0.5733750000000  0.5587160000000 1.0
C      1  0.6178900000000  0.4870440000000  0.4524530000000 1.0
C      1  0.5411730000000  0.5973390000000  0.4640980000000 1.0
C      1  0.5802430000000  0.6086030000000  0.5141480000000 1.0
C      1  0.4839780000000  0.4837890000000  0.4489510000000 1.0
C      1  0.4295770000000  0.4613150000000  0.5341510000000 1.0
C      1  0.4613270000000  0.3973400000000  0.4511500000000 1.0
C      1  0.3870270000000  0.4673430000000  0.4579020000000 1.0
C      1  0.4894790000000  0.4948820000000  0.4975070000000 1.0
C      1  0.3976620000000  0.4938340000000  0.5623000000000 1.0
C      1  0.6353320000000  0.5332000000000  0.4370350000000 1.0
C      1  0.4722150000000  0.5636410000000  0.5327820000000 1.0
C      1  0.5284660000000  0.4364730000000  0.4654750000000 1.0
C      1  0.4744620000000  0.5429840000000  0.4400990000000 1.0
END
