TITL C-247202-1916-325 25835.7936039714 125000 -704.693906298168 0 0 117 (C1) n - 1
REM
REM in /home/nfs/bkarasulu/CARBON/AIRSS/Generating-Clusters/LCBOP/Only-C1/SD-CG/FIRE-HFTN
REM
REM
REM
REM
REM
REM ./C.cell (11c1c37f851c82e70ff6c80c92926a4b)
REM AIRSS Version 0.9.1 bugfix July 2018 build 013d7b7c2542+ Fri, 06 Jul 2018 19:26:36 +0100
REM compiler GCC version 9.2.1 20190827 (Red Hat 9.2.1-1)
REM options -cpp -mtune=generic -march=x86-64 -g -O0 -fpre-include=/usr/include/finclude/math-vector-fortran.h
REM seed -1339475269 1612495435 -357499898 -1100313792 -1318640061 229461132 1896078470 -1211274916 -1015630730 1830070982 1914100274 -1484997798 1736266842 1311156825 2092917010 762069108 -182405961 -131774380 1495899993 -916618696 -1805045478 515088281 -1073388799 1194135335 -841723900 1126088350 615127174 -660168962 198435699 714995538 1924051033 290907362 1583311516
REM
CELL 1.54180   50.00000   50.00000   50.00000   90.00000   90.00000   90.00000
LATT -1
SFAC C  
C      1  0.4859480000000  0.4915990000000  0.4974970000000 1.0
C      1  0.4681860000000  0.4887430000000  0.5228330000000 1.0
C      1  0.5192750000000  0.4413830000000  0.5262640000000 1.0
C      1  0.4299870000000  0.4812480000000  0.4159050000000 1.0
C      1  0.4599980000000  0.5379180000000  0.5900090000000 1.0
C      1  0.5865170000000  0.4995760000000  0.4395500000000 1.0
C      1  0.5290730000000  0.4515390000000  0.4374020000000 1.0
C      1  0.4556870000000  0.4553460000000  0.5583930000000 1.0
C      1  0.4620740000000  0.5992320000000  0.5274580000000 1.0
C      1  0.5362030000000  0.5926950000000  0.6042160000000 1.0
C      1  0.5380930000000  0.4356910000000  0.4809090000000 1.0
C      1  0.5314730000000  0.4969030000000  0.4931350000000 1.0
C      1  0.4915490000000  0.5336460000000  0.3918440000000 1.0
C      1  0.5108820000000  0.5518970000000  0.3973840000000 1.0
C      1  0.5068710000000  0.4780580000000  0.5568920000000 1.0
C      1  0.5292230000000  0.5468450000000  0.4183740000000 1.0
C      1  0.5146680000000  0.6097810000000  0.4534170000000 1.0
C      1  0.5143140000000  0.6065720000000  0.5306400000000 1.0
C      1  0.4450860000000  0.5452970000000  0.5676170000000 1.0
C      1  0.4086970000000  0.4915960000000  0.5148070000000 1.0
C      1  0.4221690000000  0.5486660000000  0.4702140000000 1.0
C      1  0.4401790000000  0.5725380000000  0.5612860000000 1.0
C      1  0.5335590000000  0.4929530000000  0.5217540000000 1.0
C      1  0.5212210000000  0.4200250000000  0.5471300000000 1.0
C      1  0.4909150000000  0.3937550000000  0.4376890000000 1.0
C      1  0.5848750000000  0.5014050000000  0.5344940000000 1.0
C      1  0.5257500000000  0.5576590000000  0.4444730000000 1.0
C      1  0.5759440000000  0.5253140000000  0.5900590000000 1.0
C      1  0.5880740000000  0.5172270000000  0.4858840000000 1.0
C      1  0.4972150000000  0.6549920000000  0.4746470000000 1.0
C      1  0.4847720000000  0.5210250000000  0.4930100000000 1.0
C      1  0.4884300000000  0.6758270000000  0.4876210000000 1.0
C      1  0.5335940000000  0.5162600000000  0.5376450000000 1.0
C      1  0.5587760000000  0.5657470000000  0.5698390000000 1.0
C      1  0.5258800000000  0.4964500000000  0.4245090000000 1.0
C      1  0.4542110000000  0.4560930000000  0.4809100000000 1.0
C      1  0.5217960000000  0.4703370000000  0.5351330000000 1.0
C      1  0.4270860000000  0.5650820000000  0.5158500000000 1.0
C      1  0.5174060000000  0.4524450000000  0.5960130000000 1.0
C      1  0.5349940000000  0.5439330000000  0.6069620000000 1.0
C      1  0.4086370000000  0.4783340000000  0.4553810000000 1.0
C      1  0.4381960000000  0.3826860000000  0.5564830000000 1.0
C      1  0.4877370000000  0.6067400000000  0.5279060000000 1.0
C      1  0.4540010000000  0.4247520000000  0.4345010000000 1.0
C      1  0.4775880000000  0.4415710000000  0.4882310000000 1.0
C      1  0.5890940000000  0.4957760000000  0.5058220000000 1.0
C      1  0.5856920000000  0.4703790000000  0.4933850000000 1.0
C      1  0.4237610000000  0.5690810000000  0.4880680000000 1.0
C      1  0.5388190000000  0.5204710000000  0.4176890000000 1.0
C      1  0.5285870000000  0.4319680000000  0.4176540000000 1.0
C      1  0.5688310000000  0.5435260000000  0.5187530000000 1.0
C      1  0.4804460000000  0.5341210000000  0.5178210000000 1.0
C      1  0.5414780000000  0.5992870000000  0.5291970000000 1.0
C      1  0.4408940000000  0.5820950000000  0.5344030000000 1.0
C      1  0.4499960000000  0.4700690000000  0.5350770000000 1.0
C      1  0.5767850000000  0.4638560000000  0.4685420000000 1.0
C      1  0.5775790000000  0.4816420000000  0.5539060000000 1.0
C      1  0.4796550000000  0.4828810000000  0.4459110000000 1.0
C      1  0.5697350000000  0.5633050000000  0.4762790000000 1.0
C      1  0.4645300000000  0.5160270000000  0.5334420000000 1.0
C      1  0.4902070000000  0.4458460000000  0.5907720000000 1.0
C      1  0.5790600000000  0.5293530000000  0.5409190000000 1.0
C      1  0.4708200000000  0.5382630000000  0.4496840000000 1.0
C      1  0.4426700000000  0.4078180000000  0.5449630000000 1.0
C      1  0.5543630000000  0.5852430000000  0.5499940000000 1.0
C      1  0.5560630000000  0.5250870000000  0.6085510000000 1.0
C      1  0.5315600000000  0.3868240000000  0.3523570000000 1.0
C      1  0.4590750000000  0.4262990000000  0.5588720000000 1.0
C      1  0.4242430000000  0.4217650000000  0.4952930000000 1.0
C      1  0.5307150000000  0.4168300000000  0.3960240000000 1.0
C      1  0.5314280000000  0.4017500000000  0.3742570000000 1.0
C      1  0.4965440000000  0.4951000000000  0.4252470000000 1.0
C      1  0.5662580000000  0.5886090000000  0.4845530000000 1.0
C      1  0.4184080000000  0.4607820000000  0.4338030000000 1.0
C      1  0.5228720000000  0.5851310000000  0.4482260000000 1.0
C      1  0.4823150000000  0.5357030000000  0.6043540000000 1.0
C      1  0.4323300000000  0.4384870000000  0.4742620000000 1.0
C      1  0.5625300000000  0.4692290000000  0.5727020000000 1.0
C      1  0.5690520000000  0.4779050000000  0.4447900000000 1.0
C      1  0.5427980000000  0.4756220000000  0.4335880000000 1.0
C      1  0.4375690000000  0.5064800000000  0.4299580000000 1.0
C      1  0.4351800000000  0.3590350000000  0.5680340000000 1.0
C      1  0.4153200000000  0.5170640000000  0.5051590000000 1.0
C      1  0.5080490000000  0.5378100000000  0.6108130000000 1.0
C      1  0.4231110000000  0.4724950000000  0.5268380000000 1.0
C      1  0.5974760000000  0.5145480000000  0.4592890000000 1.0
C      1  0.5100480000000  0.4797920000000  0.4833290000000 1.0
C      1  0.4812370000000  0.5149440000000  0.4102210000000 1.0
C      1  0.4797420000000  0.4177530000000  0.4447500000000 1.0
C      1  0.4323670000000  0.3357910000000  0.5794960000000 1.0
C      1  0.4991860000000  0.5497590000000  0.5310440000000 1.0
C      1  0.4308630000000  0.4373880000000  0.4450580000000 1.0
C      1  0.5059940000000  0.6330620000000  0.4626270000000 1.0
C      1  0.5384240000000  0.5235910000000  0.4817040000000 1.0
C      1  0.4418250000000  0.5283600000000  0.5447900000000 1.0
C      1  0.4920910000000  0.4340470000000  0.4648590000000 1.0
C      1  0.4828060000000  0.4213030000000  0.5756710000000 1.0
C      1  0.4224500000000  0.5212480000000  0.4776240000000 1.0
C      1  0.4304090000000  0.4134190000000  0.5200670000000 1.0
C      1  0.4567630000000  0.4804800000000  0.4649090000000 1.0
C      1  0.5745360000000  0.5412070000000  0.5665190000000 1.0
C      1  0.5192660000000  0.5390170000000  0.4654370000000 1.0
C      1  0.5212970000000  0.5395330000000  0.5420800000000 1.0
C      1  0.5177720000000  0.4488070000000  0.4643660000000 1.0
C      1  0.4919170000000  0.4388280000000  0.5123790000000 1.0
C      1  0.4312030000000  0.4989220000000  0.4599200000000 1.0
C      1  0.5047210000000  0.4078510000000  0.5644330000000 1.0
C      1  0.4235930000000  0.5372320000000  0.5241410000000 1.0
C      1  0.5315380000000  0.3722380000000  0.3307510000000 1.0
C      1  0.5653860000000  0.5369230000000  0.4895360000000 1.0
C      1  0.5428700000000  0.5682500000000  0.5939040000000 1.0
C      1  0.5422620000000  0.4600060000000  0.5881390000000 1.0
C      1  0.5552630000000  0.6020690000000  0.5048470000000 1.0
C      1  0.4695520000000  0.4645520000000  0.5822080000000 1.0
C      1  0.4599150000000  0.5240710000000  0.4272170000000 1.0
C      1  0.4911350000000  0.5342290000000  0.4692250000000 1.0
C      1  0.5408570000000  0.4343830000000  0.5073300000000 1.0
END
