TITL C-247196-3112-504 0.00356889157309816 125000 -653.232909005836 0 0 106 (C1) n - 1
REM
REM in /home/nfs/bkarasulu/CARBON/AIRSS/Generating-Clusters/LCBOP/Only-C1/SD-CG/FIRE-HFTN
REM
REM
REM
REM
REM
REM ./C.cell (11c1c37f851c82e70ff6c80c92926a4b)
REM AIRSS Version 0.9.1 bugfix July 2018 build 013d7b7c2542+ Fri, 06 Jul 2018 19:26:36 +0100
REM compiler GCC version 9.2.1 20190827 (Red Hat 9.2.1-1)
REM options -cpp -mtune=generic -march=x86-64 -g -O0 -fpre-include=/usr/include/finclude/math-vector-fortran.h
REM seed -949303957 -720553267 944500956 -1114138496 -96881833 297887710 -649285351 -203281568 -2132489937 1372771627 154632776 -1642322145 1288349110 -575872807 -1485072559 1313953864 -693136504 589138891 1249847232 538824273 -1535991055 -80754534 1207132017 -1589928067 -378445526 -1414260409 -2101401871 -2090506076 -913293520 704740035 1940845828 -1738326606 -1271576518
REM
CELL 1.54180   50.00000   50.00000   50.00000   90.00000   90.00000   90.00000
LATT -1
SFAC C  
C      1  0.5321430000000  0.5439950000000  0.4277820000000 1.0
C      1  0.4970640000000  0.5680570000000  0.5031200000000 1.0
C      1  0.4732700000000  0.4670100000000  0.5528840000000 1.0
C      1  0.4239500000000  0.4095590000000  0.5007130000000 1.0
C      1  0.4650610000000  0.5863490000000  0.5599720000000 1.0
C      1  0.5717590000000  0.5140500000000  0.5104360000000 1.0
C      1  0.5063310000000  0.5435410000000  0.5842000000000 1.0
C      1  0.5209290000000  0.5537680000000  0.5105550000000 1.0
C      1  0.5400230000000  0.5169230000000  0.6062580000000 1.0
C      1  0.5462620000000  0.4813370000000  0.4201110000000 1.0
C      1  0.4407500000000  0.5229580000000  0.5576660000000 1.0
C      1  0.4735130000000  0.5013010000000  0.4145070000000 1.0
C      1  0.6022420000000  0.5350290000000  0.5416150000000 1.0
C      1  0.5996010000000  0.5280260000000  0.5672470000000 1.0
C      1  0.5505650000000  0.4815870000000  0.5758840000000 1.0
C      1  0.5006740000000  0.4645390000000  0.4145810000000 1.0
C      1  0.5284310000000  0.5337510000000  0.4906830000000 1.0
C      1  0.4731330000000  0.5215150000000  0.3948380000000 1.0
C      1  0.4919830000000  0.5236910000000  0.5439540000000 1.0
C      1  0.5603920000000  0.5035070000000  0.5917320000000 1.0
C      1  0.5876770000000  0.5830760000000  0.4965920000000 1.0
C      1  0.4879840000000  0.4132240000000  0.4601520000000 1.0
C      1  0.4604490000000  0.4614940000000  0.4401270000000 1.0
C      1  0.5394330000000  0.4607100000000  0.4891800000000 1.0
C      1  0.5623820000000  0.4752920000000  0.5504830000000 1.0
C      1  0.4476280000000  0.5805400000000  0.4409530000000 1.0
C      1  0.4622940000000  0.4062050000000  0.4678490000000 1.0
C      1  0.4715880000000  0.4713550000000  0.4136310000000 1.0
C      1  0.5530640000000  0.4248640000000  0.5421750000000 1.0
C      1  0.5355400000000  0.4619980000000  0.5165400000000 1.0
C      1  0.5946880000000  0.5575140000000  0.4995540000000 1.0
C      1  0.4780120000000  0.4865740000000  0.5740610000000 1.0
C      1  0.5090590000000  0.5339750000000  0.4692410000000 1.0
C      1  0.4642140000000  0.4741740000000  0.5263680000000 1.0
C      1  0.5340030000000  0.5925590000000  0.5730150000000 1.0
C      1  0.4842210000000  0.4645420000000  0.4614680000000 1.0
C      1  0.4356590000000  0.5511930000000  0.4793330000000 1.0
C      1  0.5246360000000  0.4402970000000  0.4768070000000 1.0
C      1  0.4636660000000  0.5239620000000  0.5406140000000 1.0
C      1  0.5387020000000  0.5823330000000  0.5471950000000 1.0
C      1  0.4511200000000  0.5263820000000  0.3794930000000 1.0
C      1  0.4697790000000  0.5747280000000  0.5854640000000 1.0
C      1  0.3961800000000  0.5046940000000  0.5298970000000 1.0
C      1  0.4338830000000  0.4597910000000  0.4502490000000 1.0
C      1  0.5847940000000  0.5158360000000  0.5858180000000 1.0
C      1  0.4906890000000  0.5046570000000  0.4377610000000 1.0
C      1  0.5060740000000  0.5031500000000  0.5314840000000 1.0
C      1  0.5139550000000  0.5524680000000  0.4476190000000 1.0
C      1  0.5699600000000  0.4955510000000  0.5319890000000 1.0
C      1  0.3971150000000  0.4192680000000  0.4960810000000 1.0
C      1  0.5082940000000  0.4018940000000  0.5435330000000 1.0
C      1  0.4737380000000  0.5846680000000  0.4371920000000 1.0
C      1  0.5132250000000  0.5188810000000  0.5967010000000 1.0
C      1  0.5349020000000  0.4051340000000  0.5429710000000 1.0
C      1  0.4323880000000  0.5657980000000  0.4572370000000 1.0
C      1  0.5530430000000  0.5978970000000  0.5288970000000 1.0
C      1  0.5907580000000  0.5351580000000  0.5157760000000 1.0
C      1  0.5029780000000  0.4936050000000  0.5866750000000 1.0
C      1  0.4893830000000  0.5140160000000  0.4650870000000 1.0
C      1  0.5160200000000  0.4798940000000  0.5246040000000 1.0
C      1  0.5436550000000  0.5202050000000  0.3903870000000 1.0
C      1  0.5688380000000  0.5245530000000  0.4591910000000 1.0
C      1  0.5087390000000  0.5428310000000  0.5559050000000 1.0
C      1  0.4785360000000  0.4900580000000  0.4799550000000 1.0
C      1  0.5532620000000  0.5144550000000  0.4852470000000 1.0
C      1  0.5442390000000  0.4845000000000  0.4740820000000 1.0
C      1  0.3713880000000  0.4992190000000  0.5401220000000 1.0
C      1  0.5549770000000  0.5270540000000  0.4345130000000 1.0
C      1  0.5234080000000  0.4731260000000  0.5815410000000 1.0
C      1  0.5262210000000  0.5578040000000  0.5386530000000 1.0
C      1  0.4497240000000  0.5573380000000  0.5947640000000 1.0
C      1  0.4625580000000  0.5820880000000  0.5335760000000 1.0
C      1  0.5163230000000  0.5890440000000  0.5929900000000 1.0
C      1  0.4977640000000  0.5747190000000  0.4429130000000 1.0
C      1  0.5119040000000  0.4482780000000  0.5740590000000 1.0
C      1  0.4535960000000  0.5457590000000  0.4999700000000 1.0
C      1  0.4083800000000  0.4969360000000  0.4775130000000 1.0
C      1  0.5961580000000  0.5253590000000  0.4591290000000 1.0
C      1  0.4886370000000  0.4430630000000  0.5580170000000 1.0
C      1  0.5352300000000  0.4815240000000  0.4471700000000 1.0
C      1  0.4574660000000  0.5204940000000  0.5126140000000 1.0
C      1  0.4641800000000  0.4933590000000  0.5044010000000 1.0
C      1  0.5529980000000  0.4521630000000  0.5366480000000 1.0
C      1  0.5059130000000  0.4779570000000  0.4422760000000 1.0
C      1  0.5274370000000  0.4662120000000  0.4033690000000 1.0
C      1  0.5033550000000  0.3964770000000  0.4440100000000 1.0
C      1  0.4968770000000  0.5367030000000  0.3920850000000 1.0
C      1  0.3960830000000  0.4340440000000  0.4726220000000 1.0
C      1  0.5707980000000  0.5995390000000  0.5091300000000 1.0
C      1  0.4378360000000  0.4161020000000  0.4757710000000 1.0
C      1  0.5348390000000  0.3697200000000  0.4108370000000 1.0
C      1  0.4171280000000  0.5118830000000  0.5471350000000 1.0
C      1  0.4206200000000  0.4834670000000  0.4580260000000 1.0
C      1  0.5189550000000  0.3827970000000  0.4275480000000 1.0
C      1  0.5236240000000  0.5387540000000  0.4000230000000 1.0
C      1  0.5504790000000  0.3569190000000  0.3943700000000 1.0
C      1  0.4381290000000  0.4046670000000  0.5240350000000 1.0
C      1  0.4697960000000  0.5674260000000  0.5105000000000 1.0
C      1  0.5564580000000  0.5067300000000  0.4126230000000 1.0
C      1  0.4401140000000  0.5354990000000  0.5826410000000 1.0
C      1  0.4005570000000  0.5030430000000  0.5022030000000 1.0
C      1  0.4966800000000  0.5688570000000  0.5933050000000 1.0
C      1  0.4848230000000  0.4171260000000  0.5471800000000 1.0
C      1  0.4977880000000  0.4384610000000  0.4684430000000 1.0
C      1  0.4225830000000  0.4360070000000  0.4606090000000 1.0
C      1  0.4596990000000  0.4078310000000  0.5392940000000 1.0
END
