TITL C-247202-1916-131 0.144564020840808 125000 -226.329417044394 0 0 39 (C1) n - 1
REM
REM in /home/nfs/bkarasulu/CARBON/AIRSS/Generating-Clusters/LCBOP/Only-C1/SD-CG/FIRE-HFTN
REM
REM
REM
REM
REM
REM ./C.cell (11c1c37f851c82e70ff6c80c92926a4b)
REM AIRSS Version 0.9.1 bugfix July 2018 build 013d7b7c2542+ Fri, 06 Jul 2018 19:26:36 +0100
REM compiler GCC version 9.2.1 20190827 (Red Hat 9.2.1-1)
REM options -cpp -mtune=generic -march=x86-64 -g -O0 -fpre-include=/usr/include/finclude/math-vector-fortran.h
REM seed -152423346 -104404844 739291540 -1431427813 -1106535579 -1728387636 -1733377415 162983266 429596772 1273683057 -104988207 -1501669895 -1477016948 -1235205825 -2014891845 -36696361 -1138520868 31304365 1368376378 -1036257273 2055230042 -1020525918 -76268075 514418248 -244714807 -1483687066 -957676013 1245477185 -1893718861 1097972270 228550709 98836002 -92562647
REM
CELL 1.54180   50.00000   50.00000   50.00000   90.00000   90.00000   90.00000
LATT -1
SFAC C  
C      1  0.5344670000000  0.4788090000000  0.5750800000000 1.0
C      1  0.5399350000000  0.4993140000000  0.4315540000000 1.0
C      1  0.5404280000000  0.5295280000000  0.5240600000000 1.0
C      1  0.4487190000000  0.5884450000000  0.4736760000000 1.0
C      1  0.4603020000000  0.4590090000000  0.5635350000000 1.0
C      1  0.5335240000000  0.4824840000000  0.4520250000000 1.0
C      1  0.4609680000000  0.4890580000000  0.5279580000000 1.0
C      1  0.4953260000000  0.5924350000000  0.4595860000000 1.0
C      1  0.5129290000000  0.4039120000000  0.5296250000000 1.0
C      1  0.4581840000000  0.4319500000000  0.5696380000000 1.0
C      1  0.4984000000000  0.6129920000000  0.4418250000000 1.0
C      1  0.5345060000000  0.5041300000000  0.5340150000000 1.0
C      1  0.5156240000000  0.4897800000000  0.4732690000000 1.0
C      1  0.5390810000000  0.5522080000000  0.5104260000000 1.0
C      1  0.5159990000000  0.5851830000000  0.4769640000000 1.0
C      1  0.5763300000000  0.4959050000000  0.5578230000000 1.0
C      1  0.4278530000000  0.5983870000000  0.4857130000000 1.0
C      1  0.5168860000000  0.4753930000000  0.4982210000000 1.0
C      1  0.5128570000000  0.4893610000000  0.5226070000000 1.0
C      1  0.5093930000000  0.4698160000000  0.5777830000000 1.0
C      1  0.4695610000000  0.5520350000000  0.4486850000000 1.0
C      1  0.5168130000000  0.4285230000000  0.5166720000000 1.0
C      1  0.5401090000000  0.4402750000000  0.4754510000000 1.0
C      1  0.4967930000000  0.5100380000000  0.4694200000000 1.0
C      1  0.4562380000000  0.5487840000000  0.4243610000000 1.0
C      1  0.5307040000000  0.5713980000000  0.4941680000000 1.0
C      1  0.4435720000000  0.5464110000000  0.4012140000000 1.0
C      1  0.5245150000000  0.4476330000000  0.4979050000000 1.0
C      1  0.4816770000000  0.5301580000000  0.4611470000000 1.0
C      1  0.4885000000000  0.4866290000000  0.5363460000000 1.0
C      1  0.4868350000000  0.4712000000000  0.5615030000000 1.0
C      1  0.5492380000000  0.4931150000000  0.5558900000000 1.0
C      1  0.4913660000000  0.4008510000000  0.5472640000000 1.0
C      1  0.5300810000000  0.3830970000000  0.5250650000000 1.0
C      1  0.4709850000000  0.5777670000000  0.4606490000000 1.0
C      1  0.5443390000000  0.4564770000000  0.4542710000000 1.0
C      1  0.4311120000000  0.5441650000000  0.3784250000000 1.0
C      1  0.4445660000000  0.4734730000000  0.5439570000000 1.0
C      1  0.4712840000000  0.4098690000000  0.5622260000000 1.0
END
