TITL C-247196-3112-582 -1.46420326621585e-06 125000 -639.172301313765 0 0 108 (C1) n - 1
REM
REM in /home/nfs/bkarasulu/CARBON/AIRSS/Generating-Clusters/LCBOP/Only-C1/SD-CG/FIRE-HFTN
REM
REM
REM
REM
REM
REM ./C.cell (11c1c37f851c82e70ff6c80c92926a4b)
REM AIRSS Version 0.9.1 bugfix July 2018 build 013d7b7c2542+ Fri, 06 Jul 2018 19:26:36 +0100
REM compiler GCC version 9.2.1 20190827 (Red Hat 9.2.1-1)
REM options -cpp -mtune=generic -march=x86-64 -g -O0 -fpre-include=/usr/include/finclude/math-vector-fortran.h
REM seed -356306779 2009755297 -371857726 1491288879 -1706903153 -832066156 179470556 -1938145656 801145880 -448850119 -1082335419 -1034735852 -778909206 -1349048988 -638595714 -657933808 -964622252 -1053149358 -1565578647 -200361727 1135327327 1200212198 1921635924 996593240 1423561639 -1726515717 2081862400 -875018837 -1534751028 1412067680 359613100 1518795971 1213189407
REM
CELL 1.54180   50.00000   50.00000   50.00000   90.00000   90.00000   90.00000
LATT -1
SFAC C  
C      1  0.5452850000000  0.3658220000000  0.4507090000000 1.0
C      1  0.4039960000000  0.4810450000000  0.4773750000000 1.0
C      1  0.4399770000000  0.4934330000000  0.5292700000000 1.0
C      1  0.5004050000000  0.5809660000000  0.4989100000000 1.0
C      1  0.5059270000000  0.5017980000000  0.5603030000000 1.0
C      1  0.4743980000000  0.4400410000000  0.5510550000000 1.0
C      1  0.4131700000000  0.5472380000000  0.5074550000000 1.0
C      1  0.6011100000000  0.4030010000000  0.4854060000000 1.0
C      1  0.4437450000000  0.3695190000000  0.4996370000000 1.0
C      1  0.4832370000000  0.4106160000000  0.4694760000000 1.0
C      1  0.4154380000000  0.5038490000000  0.5206320000000 1.0
C      1  0.4914720000000  0.4369010000000  0.4616680000000 1.0
C      1  0.5481580000000  0.5007440000000  0.5326030000000 1.0
C      1  0.5360050000000  0.4917070000000  0.6043530000000 1.0
C      1  0.5924970000000  0.5214250000000  0.4264750000000 1.0
C      1  0.4934740000000  0.5791110000000  0.5260840000000 1.0
C      1  0.5727340000000  0.5279080000000  0.4947360000000 1.0
C      1  0.5852200000000  0.5922670000000  0.5466010000000 1.0
C      1  0.4866760000000  0.5699340000000  0.4754980000000 1.0
C      1  0.6001940000000  0.5272630000000  0.5783250000000 1.0
C      1  0.4980730000000  0.6078850000000  0.3905990000000 1.0
C      1  0.5098920000000  0.5244560000000  0.5176960000000 1.0
C      1  0.4446720000000  0.4365480000000  0.4265880000000 1.0
C      1  0.4443680000000  0.4662760000000  0.5256420000000 1.0
C      1  0.5647350000000  0.5184260000000  0.5182440000000 1.0
C      1  0.4047010000000  0.4554690000000  0.4698630000000 1.0
C      1  0.5119650000000  0.5872180000000  0.5455320000000 1.0
C      1  0.5366330000000  0.5851980000000  0.5586790000000 1.0
C      1  0.4642680000000  0.5530850000000  0.4746280000000 1.0
C      1  0.4324800000000  0.4878370000000  0.6153720000000 1.0
C      1  0.4774250000000  0.5000870000000  0.5596450000000 1.0
C      1  0.4645420000000  0.4824490000000  0.4666520000000 1.0
C      1  0.5880030000000  0.5523180000000  0.5764240000000 1.0
C      1  0.4392650000000  0.4950540000000  0.5898030000000 1.0
C      1  0.4363030000000  0.5765390000000  0.3991600000000 1.0
C      1  0.5202650000000  0.4903970000000  0.4610410000000 1.0
C      1  0.6102370000000  0.5032930000000  0.5727740000000 1.0
C      1  0.5785150000000  0.4564730000000  0.5295400000000 1.0
C      1  0.4719850000000  0.5627880000000  0.5332810000000 1.0
C      1  0.5572670000000  0.4154690000000  0.4682390000000 1.0
C      1  0.4684260000000  0.4521030000000  0.5257570000000 1.0
C      1  0.6122110000000  0.4796060000000  0.5607850000000 1.0
C      1  0.5212110000000  0.5089420000000  0.5373050000000 1.0
C      1  0.4116370000000  0.5639370000000  0.4000020000000 1.0
C      1  0.5781620000000  0.4189300000000  0.4877330000000 1.0
C      1  0.5165990000000  0.5579740000000  0.5934970000000 1.0
C      1  0.5549430000000  0.5562960000000  0.4601960000000 1.0
C      1  0.5651800000000  0.5595600000000  0.5921770000000 1.0
C      1  0.4558220000000  0.4048290000000  0.4654810000000 1.0
C      1  0.4675330000000  0.4558360000000  0.5737670000000 1.0
C      1  0.5538150000000  0.4884770000000  0.6231120000000 1.0
C      1  0.4092890000000  0.5330240000000  0.5595550000000 1.0
C      1  0.6222460000000  0.3879540000000  0.4829610000000 1.0
C      1  0.4093630000000  0.5302200000000  0.5312210000000 1.0
C      1  0.4472850000000  0.5306610000000  0.4717300000000 1.0
C      1  0.5977930000000  0.5717310000000  0.5585100000000 1.0
C      1  0.5591000000000  0.5982590000000  0.5479470000000 1.0
C      1  0.4231570000000  0.5141650000000  0.5759840000000 1.0
C      1  0.4528170000000  0.4853420000000  0.4130700000000 1.0
C      1  0.5505440000000  0.3897510000000  0.4595940000000 1.0
C      1  0.5252750000000  0.4355910000000  0.5123120000000 1.0
C      1  0.5332020000000  0.5735000000000  0.4646660000000 1.0
C      1  0.5782440000000  0.5131520000000  0.4484280000000 1.0
C      1  0.4218730000000  0.5299950000000  0.4848770000000 1.0
C      1  0.4387530000000  0.3920110000000  0.4853840000000 1.0
C      1  0.4619250000000  0.5382750000000  0.5345470000000 1.0
C      1  0.3958680000000  0.5538220000000  0.5712610000000 1.0
C      1  0.4771230000000  0.4586540000000  0.4761440000000 1.0
C      1  0.4432020000000  0.5331500000000  0.4156350000000 1.0
C      1  0.4496510000000  0.4588970000000  0.4130120000000 1.0
C      1  0.5730610000000  0.4854100000000  0.4516440000000 1.0
C      1  0.5693170000000  0.5328730000000  0.4673130000000 1.0
C      1  0.5454620000000  0.4381200000000  0.4558860000000 1.0
C      1  0.4845260000000  0.5652300000000  0.4086410000000 1.0
C      1  0.5191980000000  0.5157170000000  0.4505110000000 1.0
C      1  0.4851890000000  0.4582490000000  0.5038910000000 1.0
C      1  0.5174340000000  0.4103190000000  0.5064910000000 1.0
C      1  0.5679660000000  0.5598230000000  0.6195410000000 1.0
C      1  0.4157100000000  0.4300810000000  0.4671620000000 1.0
C      1  0.5171880000000  0.4435530000000  0.4501000000000 1.0
C      1  0.4955050000000  0.5807960000000  0.3874840000000 1.0
C      1  0.5238330000000  0.4806680000000  0.4876910000000 1.0
C      1  0.5121110000000  0.5308630000000  0.4297870000000 1.0
C      1  0.5398920000000  0.5673700000000  0.5809380000000 1.0
C      1  0.4149650000000  0.4084080000000  0.4862750000000 1.0
C      1  0.5277940000000  0.5852480000000  0.4905120000000 1.0
C      1  0.4390390000000  0.4238080000000  0.4506300000000 1.0
C      1  0.5136200000000  0.4604170000000  0.5053010000000 1.0
C      1  0.5060920000000  0.5700550000000  0.4535970000000 1.0
C      1  0.4607470000000  0.5107960000000  0.5391890000000 1.0
C      1  0.5771740000000  0.4377090000000  0.5087170000000 1.0
C      1  0.4940160000000  0.5526270000000  0.6053680000000 1.0
C      1  0.6018200000000  0.4611300000000  0.5445420000000 1.0
C      1  0.5013740000000  0.5565700000000  0.4294320000000 1.0
C      1  0.4625940000000  0.4834150000000  0.5776210000000 1.0
C      1  0.4150330000000  0.5381320000000  0.4095360000000 1.0
C      1  0.5194770000000  0.4960530000000  0.5841100000000 1.0
C      1  0.4572770000000  0.5584030000000  0.4083370000000 1.0
C      1  0.4088760000000  0.5740660000000  0.5061210000000 1.0
C      1  0.4998530000000  0.3990630000000  0.4892780000000 1.0
C      1  0.4115130000000  0.5033990000000  0.4919570000000 1.0
C      1  0.4555020000000  0.5075530000000  0.4561520000000 1.0
C      1  0.5574430000000  0.4744000000000  0.5349780000000 1.0
C      1  0.4838810000000  0.4146270000000  0.5537550000000 1.0
C      1  0.5633480000000  0.4603540000000  0.4514990000000 1.0
C      1  0.5159800000000  0.4704830000000  0.4413540000000 1.0
C      1  0.5033910000000  0.5684230000000  0.3643580000000 1.0
C      1  0.4518350000000  0.5092930000000  0.4276730000000 1.0
END
