TITL C-247200-3482-152 5518.48473925113 125000 -1061.6756893432 0 0 177 (C1) n - 1
REM
REM in /home/nfs/bkarasulu/CARBON/AIRSS/Generating-Clusters/LCBOP/Only-C1/SD-CG/FIRE-HFTN
REM
REM
REM
REM
REM
REM ./C.cell (11c1c37f851c82e70ff6c80c92926a4b)
REM AIRSS Version 0.9.1 bugfix July 2018 build 013d7b7c2542+ Fri, 06 Jul 2018 19:26:36 +0100
REM compiler GCC version 9.2.1 20190827 (Red Hat 9.2.1-1)
REM options -cpp -mtune=generic -march=x86-64 -g -O0 -fpre-include=/usr/include/finclude/math-vector-fortran.h
REM seed 531262020 403979696 2029218265 -1165528868 -840915477 578365442 7060129 -1950172596 -993259589 861030306 1910357488 -2032815687 -2028604627 -492868731 1718836141 1705497616 149715833 298896464 -874226637 -679814211 -901785785 1526844629 969390028 -437275996 -2045265815 1349881640 -814614690 2020768423 708655803 179384519 -1100634736 -963923413 891622462
REM
CELL 1.54180   50.00000   50.00000   50.00000   90.00000   90.00000   90.00000
LATT -1
SFAC C  
C      1  0.6043780000000  0.6006410000000  0.5216980000000 1.0
C      1  0.5259710000000  0.5608410000000  0.5134520000000 1.0
C      1  0.5309940000000  0.4727960000000  0.5996620000000 1.0
C      1  0.5076620000000  0.4626420000000  0.4569900000000 1.0
C      1  0.5201530000000  0.5134450000000  0.4662040000000 1.0
C      1  0.5401060000000  0.5364610000000  0.5159340000000 1.0
C      1  0.4869190000000  0.5240480000000  0.4190610000000 1.0
C      1  0.4195570000000  0.4564410000000  0.5731280000000 1.0
C      1  0.5436070000000  0.4375790000000  0.4851050000000 1.0
C      1  0.4997710000000  0.3674120000000  0.5521750000000 1.0
C      1  0.4406080000000  0.4271670000000  0.5076210000000 1.0
C      1  0.4523750000000  0.5512360000000  0.5367960000000 1.0
C      1  0.5355270000000  0.4285250000000  0.5102020000000 1.0
C      1  0.5533950000000  0.6274340000000  0.4284060000000 1.0
C      1  0.4886450000000  0.5336110000000  0.5068180000000 1.0
C      1  0.4009970000000  0.5108350000000  0.4714740000000 1.0
C      1  0.4946890000000  0.4486060000000  0.3962430000000 1.0
C      1  0.4451130000000  0.5319500000000  0.4854370000000 1.0
C      1  0.4500340000000  0.4159640000000  0.5895300000000 1.0
C      1  0.4981720000000  0.5596590000000  0.5175560000000 1.0
C      1  0.5751550000000  0.4653730000000  0.4636190000000 1.0
C      1  0.4835700000000  0.4585210000000  0.5540630000000 1.0
C      1  0.6226810000000  0.5789690000000  0.5199980000000 1.0
C      1  0.5530190000000  0.5340640000000  0.4296500000000 1.0
C      1  0.5108900000000  0.4068380000000  0.4370260000000 1.0
C      1  0.5775870000000  0.6058760000000  0.5139070000000 1.0
C      1  0.5259010000000  0.5468110000000  0.6109110000000 1.0
C      1  0.4883290000000  0.5513610000000  0.4626910000000 1.0
C      1  0.4240420000000  0.5112950000000  0.4912250000000 1.0
C      1  0.5480740000000  0.3930790000000  0.4723880000000 1.0
C      1  0.6119070000000  0.5559300000000  0.5075430000000 1.0
C      1  0.5664860000000  0.5380490000000  0.5238950000000 1.0
C      1  0.5015740000000  0.5301330000000  0.4802140000000 1.0
C      1  0.4650330000000  0.3958620000000  0.5800790000000 1.0
C      1  0.5138500000000  0.5919670000000  0.4809940000000 1.0
C      1  0.5397570000000  0.6064460000000  0.4391440000000 1.0
C      1  0.5059710000000  0.6011220000000  0.5603010000000 1.0
C      1  0.3830370000000  0.4903690000000  0.4839950000000 1.0
C      1  0.4001580000000  0.4579820000000  0.5152280000000 1.0
C      1  0.5296420000000  0.5293690000000  0.4455210000000 1.0
C      1  0.5587550000000  0.4584520000000  0.4102820000000 1.0
C      1  0.5218960000000  0.4205130000000  0.5894300000000 1.0
C      1  0.4818500000000  0.4106640000000  0.4290000000000 1.0
C      1  0.5000130000000  0.4597800000000  0.5028570000000 1.0
C      1  0.5896470000000  0.4182880000000  0.4976240000000 1.0
C      1  0.4923550000000  0.4346030000000  0.6261640000000 1.0
C      1  0.4876130000000  0.5773970000000  0.4806020000000 1.0
C      1  0.5821080000000  0.5622970000000  0.4585560000000 1.0
C      1  0.4113120000000  0.4449840000000  0.5467140000000 1.0
C      1  0.5864760000000  0.5644460000000  0.5665410000000 1.0
C      1  0.5023450000000  0.5566020000000  0.6014170000000 1.0
C      1  0.5542590000000  0.4494400000000  0.5618870000000 1.0
C      1  0.4476080000000  0.4127720000000  0.5317590000000 1.0
C      1  0.5277310000000  0.5576890000000  0.5624410000000 1.0
C      1  0.5478610000000  0.6492050000000  0.5268380000000 1.0
C      1  0.5295120000000  0.5516990000000  0.3936180000000 1.0
C      1  0.4106680000000  0.5453830000000  0.4102880000000 1.0
C      1  0.6394280000000  0.4991020000000  0.4299700000000 1.0
C      1  0.3807570000000  0.5569640000000  0.4435190000000 1.0
C      1  0.5766390000000  0.4922710000000  0.5823850000000 1.0
C      1  0.4324220000000  0.4095610000000  0.4522940000000 1.0
C      1  0.4525110000000  0.5127190000000  0.6071440000000 1.0
C      1  0.5196980000000  0.3953600000000  0.4640430000000 1.0
C      1  0.6100460000000  0.5277140000000  0.5186670000000 1.0
C      1  0.5642790000000  0.4673760000000  0.4898850000000 1.0
C      1  0.3867790000000  0.4687330000000  0.4648330000000 1.0
C      1  0.4861490000000  0.4761020000000  0.3963200000000 1.0
C      1  0.5196300000000  0.4863580000000  0.4602000000000 1.0
C      1  0.6147120000000  0.5049340000000  0.5388170000000 1.0
C      1  0.5305770000000  0.6680120000000  0.5320440000000 1.0
C      1  0.5097980000000  0.4184130000000  0.6133330000000 1.0
C      1  0.6264760000000  0.4808140000000  0.5279940000000 1.0
C      1  0.5653550000000  0.5853530000000  0.4979130000000 1.0
C      1  0.5969340000000  0.4763180000000  0.4508300000000 1.0
C      1  0.5191050000000  0.4342470000000  0.3959290000000 1.0
C      1  0.4054780000000  0.5576780000000  0.5421680000000 1.0
C      1  0.4909020000000  0.3871130000000  0.5102310000000 1.0
C      1  0.4709000000000  0.5241380000000  0.5887840000000 1.0
C      1  0.5959300000000  0.4429330000000  0.5129390000000 1.0
C      1  0.5662610000000  0.4244330000000  0.5501200000000 1.0
C      1  0.4543840000000  0.4621380000000  0.6081270000000 1.0
C      1  0.5205350000000  0.5303880000000  0.5600730000000 1.0
C      1  0.5591180000000  0.4421460000000  0.4549060000000 1.0
C      1  0.4616090000000  0.4595550000000  0.5361370000000 1.0
C      1  0.4823210000000  0.4587750000000  0.6154940000000 1.0
C      1  0.5754760000000  0.5530610000000  0.5457790000000 1.0
C      1  0.5213860000000  0.6094460000000  0.4602870000000 1.0
C      1  0.5988530000000  0.4990770000000  0.5637610000000 1.0
C      1  0.4974890000000  0.5170200000000  0.5494490000000 1.0
C      1  0.5418520000000  0.5121380000000  0.5625390000000 1.0
C      1  0.4981320000000  0.3979000000000  0.4845850000000 1.0
C      1  0.4747290000000  0.5415260000000  0.3970430000000 1.0
C      1  0.4526940000000  0.4702740000000  0.4411050000000 1.0
C      1  0.4112020000000  0.4713090000000  0.4181370000000 1.0
C      1  0.4393670000000  0.4716560000000  0.4161910000000 1.0
C      1  0.5429680000000  0.5799050000000  0.4301060000000 1.0
C      1  0.3911940000000  0.4856550000000  0.5121680000000 1.0
C      1  0.6203720000000  0.4555600000000  0.5199770000000 1.0
C      1  0.4396540000000  0.4875240000000  0.6053520000000 1.0
C      1  0.5477830000000  0.4799740000000  0.3987910000000 1.0
C      1  0.5836060000000  0.5215270000000  0.5087990000000 1.0
C      1  0.4459570000000  0.4561050000000  0.5117760000000 1.0
C      1  0.5434560000000  0.5278840000000  0.4020610000000 1.0
C      1  0.4701110000000  0.5685080000000  0.4042740000000 1.0
C      1  0.4689790000000  0.5319700000000  0.3721480000000 1.0
C      1  0.6481860000000  0.5803530000000  0.5294150000000 1.0
C      1  0.5018600000000  0.4997180000000  0.4049410000000 1.0
C      1  0.5738470000000  0.4618350000000  0.5151800000000 1.0
C      1  0.3940150000000  0.4814550000000  0.4382760000000 1.0
C      1  0.4492380000000  0.5791540000000  0.4197330000000 1.0
C      1  0.4957080000000  0.4477510000000  0.4773280000000 1.0
C      1  0.4780080000000  0.3852390000000  0.5577460000000 1.0
C      1  0.4428350000000  0.4807630000000  0.4963410000000 1.0
C      1  0.5069350000000  0.3680540000000  0.5254500000000 1.0
C      1  0.4573360000000  0.4033890000000  0.4409310000000 1.0
C      1  0.4514700000000  0.5034170000000  0.5535570000000 1.0
C      1  0.5640950000000  0.6290590000000  0.5211410000000 1.0
C      1  0.4772330000000  0.5629970000000  0.5484550000000 1.0
C      1  0.4337210000000  0.5914270000000  0.5172820000000 1.0
C      1  0.5049900000000  0.5467860000000  0.4354220000000 1.0
C      1  0.5300670000000  0.5094990000000  0.5184360000000 1.0
C      1  0.4776940000000  0.5045950000000  0.5669220000000 1.0
C      1  0.4996870000000  0.5088120000000  0.5204630000000 1.0
C      1  0.4176120000000  0.4821290000000  0.5867680000000 1.0
C      1  0.4406860000000  0.4424880000000  0.5904110000000 1.0
C      1  0.5722460000000  0.4013120000000  0.4837750000000 1.0
C      1  0.4587600000000  0.5879080000000  0.4737040000000 1.0
C      1  0.4881430000000  0.4783210000000  0.5737900000000 1.0
C      1  0.4706690000000  0.3964780000000  0.5313750000000 1.0
C      1  0.5637030000000  0.5601820000000  0.4371350000000 1.0
C      1  0.3955840000000  0.5554350000000  0.4983910000000 1.0
C      1  0.5580810000000  0.5144910000000  0.5858000000000 1.0
C      1  0.4816080000000  0.5495910000000  0.5833340000000 1.0
C      1  0.4243220000000  0.3929280000000  0.4737340000000 1.0
C      1  0.3931990000000  0.5352710000000  0.4298830000000 1.0
C      1  0.4671860000000  0.5155440000000  0.4422830000000 1.0
C      1  0.4238770000000  0.4183420000000  0.5471030000000 1.0
C      1  0.4573520000000  0.4783700000000  0.3953330000000 1.0
C      1  0.4602720000000  0.5374930000000  0.4604700000000 1.0
C      1  0.5518230000000  0.4378620000000  0.4287000000000 1.0
C      1  0.5576220000000  0.4686320000000  0.5859150000000 1.0
C      1  0.4815960000000  0.5913050000000  0.5535600000000 1.0
C      1  0.4335010000000  0.5866020000000  0.4892160000000 1.0
C      1  0.5854760000000  0.5669990000000  0.4862570000000 1.0
C      1  0.4193960000000  0.4345340000000  0.4600780000000 1.0
C      1  0.4080130000000  0.5743830000000  0.4808640000000 1.0
C      1  0.4022220000000  0.4487470000000  0.4786780000000 1.0
C      1  0.3972230000000  0.5390430000000  0.5219180000000 1.0
C      1  0.5015910000000  0.4725610000000  0.5983090000000 1.0
C      1  0.5579660000000  0.4696640000000  0.5380120000000 1.0
C      1  0.5203290000000  0.5665930000000  0.4169440000000 1.0
C      1  0.5064000000000  0.4433210000000  0.5477980000000 1.0
C      1  0.6183970000000  0.4872040000000  0.4397490000000 1.0
C      1  0.4301330000000  0.5711540000000  0.5366270000000 1.0
C      1  0.4542350000000  0.5907600000000  0.4450950000000 1.0
C      1  0.5135310000000  0.4430360000000  0.5208730000000 1.0
C      1  0.5476660000000  0.5313060000000  0.6060030000000 1.0
C      1  0.4594300000000  0.5387950000000  0.5090300000000 1.0
C      1  0.4891460000000  0.4859020000000  0.5036690000000 1.0
C      1  0.5270330000000  0.5845720000000  0.5638340000000 1.0
C      1  0.3930090000000  0.5769010000000  0.4572430000000 1.0
C      1  0.5524480000000  0.4143200000000  0.5284590000000 1.0
C      1  0.4398590000000  0.5272270000000  0.5497120000000 1.0
C      1  0.5259660000000  0.4375600000000  0.5673230000000 1.0
C      1  0.3966800000000  0.5106080000000  0.4431870000000 1.0
C      1  0.5790770000000  0.5125630000000  0.4837130000000 1.0
C      1  0.5295370000000  0.4224480000000  0.4201980000000 1.0
C      1  0.4848670000000  0.4223310000000  0.4783360000000 1.0
C      1  0.5306730000000  0.5022660000000  0.3994100000000 1.0
C      1  0.4771090000000  0.4294180000000  0.4078920000000 1.0
C      1  0.5442280000000  0.4946390000000  0.5393490000000 1.0
C      1  0.4245360000000  0.5684520000000  0.4116470000000 1.0
C      1  0.4654010000000  0.4904200000000  0.4556850000000 1.0
C      1  0.4229040000000  0.4076120000000  0.4962360000000 1.0
C      1  0.4061100000000  0.5114220000000  0.5173130000000 1.0
C      1  0.5360600000000  0.5815420000000  0.4971050000000 1.0
C      1  0.4672540000000  0.4881240000000  0.4844260000000 1.0
END
