TITL C-247195-3186-374 2.55157555873647 125000 -748.613033295191 0 0 123 (C1) n - 1
REM
REM in /home/nfs/bkarasulu/CARBON/AIRSS/Generating-Clusters/LCBOP/Only-C1/SD-CG/FIRE-HFTN
REM
REM
REM
REM
REM
REM ./C.cell (11c1c37f851c82e70ff6c80c92926a4b)
REM AIRSS Version 0.9.1 bugfix July 2018 build 013d7b7c2542+ Fri, 06 Jul 2018 19:26:36 +0100
REM compiler GCC version 9.2.1 20190827 (Red Hat 9.2.1-1)
REM options -cpp -mtune=generic -march=x86-64 -g -O0 -fpre-include=/usr/include/finclude/math-vector-fortran.h
REM seed 1693760290 56746624 2106006529 -1364353166 -390242256 -137681955 -1642447351 1967063786 -9159228 1672146657 2129250320 1409947941 -888309668 -1067089301 -1478175736 -1831433256 9420952 495314329 -1037480892 202814170 1171684519 -611247328 -448612883 -1938999260 1323978396 -76409079 1404370495 -1102385405 -421534879 1167719462 -988367343 -176026868 -839989997
REM
CELL 1.54180   50.00000   50.00000   50.00000   90.00000   90.00000   90.00000
LATT -1
SFAC C  
C      1  0.4189470000000  0.5062170000000  0.4540740000000 1.0
C      1  0.4119580000000  0.4463680000000  0.4263150000000 1.0
C      1  0.4461930000000  0.4933970000000  0.4890180000000 1.0
C      1  0.4754960000000  0.5452820000000  0.4825370000000 1.0
C      1  0.5423470000000  0.5063270000000  0.5057920000000 1.0
C      1  0.4859440000000  0.5343520000000  0.6020100000000 1.0
C      1  0.5290360000000  0.5796300000000  0.5196820000000 1.0
C      1  0.5181490000000  0.5244680000000  0.4696860000000 1.0
C      1  0.5781070000000  0.4357220000000  0.5297990000000 1.0
C      1  0.4349170000000  0.4600840000000  0.4279680000000 1.0
C      1  0.5302220000000  0.5595890000000  0.4276660000000 1.0
C      1  0.5851020000000  0.5529800000000  0.4839130000000 1.0
C      1  0.5387480000000  0.5413410000000  0.4073910000000 1.0
C      1  0.4819740000000  0.4251470000000  0.5757960000000 1.0
C      1  0.4444800000000  0.5146600000000  0.5818370000000 1.0
C      1  0.3980480000000  0.6352150000000  0.4750160000000 1.0
C      1  0.5250890000000  0.4592310000000  0.3906170000000 1.0
C      1  0.5434900000000  0.4855660000000  0.4548060000000 1.0
C      1  0.5225900000000  0.4703120000000  0.4458020000000 1.0
C      1  0.5022800000000  0.5863860000000  0.4799060000000 1.0
C      1  0.5236340000000  0.5964140000000  0.4963020000000 1.0
C      1  0.4066140000000  0.6115370000000  0.4817670000000 1.0
C      1  0.3924480000000  0.4470730000000  0.4708230000000 1.0
C      1  0.5588260000000  0.4453330000000  0.4246020000000 1.0
C      1  0.5496370000000  0.4644440000000  0.4041100000000 1.0
C      1  0.5689650000000  0.4747070000000  0.4621840000000 1.0
C      1  0.5811670000000  0.4859860000000  0.4856100000000 1.0
C      1  0.5404370000000  0.5136360000000  0.4539680000000 1.0
C      1  0.6029200000000  0.5443740000000  0.4631190000000 1.0
C      1  0.4441590000000  0.5077950000000  0.5142480000000 1.0
C      1  0.5065410000000  0.4665940000000  0.5889430000000 1.0
C      1  0.4368250000000  0.5200150000000  0.4378990000000 1.0
C      1  0.3997610000000  0.5538210000000  0.5404600000000 1.0
C      1  0.4153510000000  0.4863540000000  0.5522990000000 1.0
C      1  0.4154070000000  0.5875070000000  0.4886290000000 1.0
C      1  0.4174460000000  0.5192920000000  0.5152660000000 1.0
C      1  0.5939870000000  0.4336950000000  0.4592320000000 1.0
C      1  0.5515370000000  0.4148480000000  0.4985880000000 1.0
C      1  0.5109620000000  0.5984890000000  0.5661130000000 1.0
C      1  0.4773000000000  0.4226980000000  0.4164500000000 1.0
C      1  0.5642170000000  0.5250440000000  0.4433000000000 1.0
C      1  0.5377390000000  0.4817180000000  0.5186150000000 1.0
C      1  0.3942650000000  0.5042630000000  0.5142080000000 1.0
C      1  0.4829990000000  0.4900360000000  0.3896330000000 1.0
C      1  0.5248640000000  0.5273340000000  0.4978880000000 1.0
C      1  0.5040160000000  0.5432100000000  0.5400560000000 1.0
C      1  0.6024420000000  0.4779680000000  0.5487330000000 1.0
C      1  0.5195170000000  0.5329610000000  0.5614170000000 1.0
C      1  0.5971940000000  0.4742310000000  0.5050900000000 1.0
C      1  0.5264390000000  0.5907970000000  0.5455580000000 1.0
C      1  0.5434450000000  0.5185890000000  0.5556340000000 1.0
C      1  0.4845930000000  0.4134080000000  0.4811820000000 1.0
C      1  0.5691430000000  0.5319070000000  0.5526480000000 1.0
C      1  0.5770610000000  0.4523210000000  0.4463310000000 1.0
C      1  0.5572030000000  0.4919080000000  0.4010980000000 1.0
C      1  0.6038020000000  0.5018460000000  0.5342250000000 1.0
C      1  0.4511390000000  0.4728350000000  0.4449940000000 1.0
C      1  0.4617180000000  0.4707170000000  0.5807020000000 1.0
C      1  0.4230880000000  0.4487060000000  0.5103610000000 1.0
C      1  0.4906020000000  0.5306140000000  0.4629520000000 1.0
C      1  0.5246260000000  0.4302900000000  0.5499180000000 1.0
C      1  0.5080660000000  0.4150180000000  0.5678930000000 1.0
C      1  0.4549530000000  0.5610500000000  0.5509520000000 1.0
C      1  0.5906360000000  0.5308650000000  0.4429260000000 1.0
C      1  0.5633220000000  0.5677980000000  0.4715150000000 1.0
C      1  0.4648030000000  0.5968060000000  0.5916770000000 1.0
C      1  0.5482490000000  0.5692010000000  0.4486050000000 1.0
C      1  0.5117880000000  0.4184910000000  0.4742290000000 1.0
C      1  0.5403450000000  0.4883870000000  0.5543540000000 1.0
C      1  0.5298360000000  0.4314960000000  0.4928690000000 1.0
C      1  0.5161840000000  0.4741050000000  0.5633630000000 1.0
C      1  0.4930000000000  0.5631470000000  0.4951410000000 1.0
C      1  0.4771580000000  0.5491950000000  0.5435140000000 1.0
C      1  0.4598770000000  0.4159030000000  0.5603300000000 1.0
C      1  0.4596260000000  0.5285290000000  0.6010370000000 1.0
C      1  0.4816600000000  0.4519720000000  0.5876680000000 1.0
C      1  0.5018650000000  0.5635870000000  0.4331330000000 1.0
C      1  0.4099050000000  0.4617510000000  0.4873890000000 1.0
C      1  0.4596320000000  0.4175420000000  0.4908000000000 1.0
C      1  0.4691500000000  0.5091700000000  0.4021140000000 1.0
C      1  0.4895270000000  0.6010470000000  0.5820340000000 1.0
C      1  0.4863860000000  0.4409720000000  0.4327400000000 1.0
C      1  0.5618800000000  0.4781020000000  0.5724850000000 1.0
C      1  0.4863640000000  0.4671540000000  0.4751290000000 1.0
C      1  0.5488410000000  0.5176380000000  0.3989660000000 1.0
C      1  0.5017460000000  0.4714490000000  0.3854700000000 1.0
C      1  0.4985300000000  0.4583450000000  0.4510540000000 1.0
C      1  0.5084130000000  0.5345860000000  0.5873340000000 1.0
C      1  0.5076690000000  0.4541040000000  0.5444830000000 1.0
C      1  0.4596980000000  0.4975940000000  0.5379780000000 1.0
C      1  0.4595300000000  0.4960010000000  0.5673220000000 1.0
C      1  0.4626680000000  0.4801530000000  0.4701890000000 1.0
C      1  0.3933310000000  0.4404240000000  0.4447820000000 1.0
C      1  0.4483260000000  0.5516840000000  0.4841360000000 1.0
C      1  0.4974040000000  0.5850880000000  0.4520010000000 1.0
C      1  0.4125910000000  0.5457030000000  0.5645560000000 1.0
C      1  0.4295350000000  0.4649120000000  0.5338410000000 1.0
C      1  0.5244730000000  0.4129470000000  0.4491390000000 1.0
C      1  0.5885420000000  0.4760110000000  0.5727150000000 1.0
C      1  0.4970570000000  0.4632760000000  0.5005040000000 1.0
C      1  0.5778690000000  0.4204230000000  0.5055390000000 1.0
C      1  0.4404390000000  0.4246660000000  0.5107120000000 1.0
C      1  0.5419660000000  0.4229200000000  0.4310050000000 1.0
C      1  0.4595740000000  0.4689980000000  0.5321410000000 1.0
C      1  0.5534090000000  0.4316980000000  0.5455370000000 1.0
C      1  0.4843550000000  0.5397740000000  0.4363830000000 1.0
C      1  0.4345230000000  0.5639490000000  0.5701770000000 1.0
C      1  0.4414450000000  0.5832620000000  0.5894840000000 1.0
C      1  0.4195430000000  0.4878420000000  0.4772480000000 1.0
C      1  0.4127190000000  0.5471130000000  0.5162340000000 1.0
C      1  0.4622760000000  0.5253510000000  0.4243090000000 1.0
C      1  0.5150680000000  0.5520070000000  0.5139050000000 1.0
C      1  0.5882880000000  0.5256690000000  0.5317940000000 1.0
C      1  0.5258230000000  0.4593110000000  0.5030340000000 1.0
C      1  0.5818690000000  0.5331470000000  0.5044640000000 1.0
C      1  0.5956640000000  0.4223400000000  0.4837030000000 1.0
C      1  0.5759710000000  0.5513060000000  0.5709370000000 1.0
C      1  0.4855920000000  0.4590830000000  0.5261840000000 1.0
C      1  0.4252370000000  0.5625970000000  0.4961950000000 1.0
C      1  0.5683690000000  0.5094650000000  0.4952860000000 1.0
C      1  0.5951770000000  0.4584540000000  0.5282150000000 1.0
C      1  0.4188870000000  0.5172720000000  0.5692580000000 1.0
C      1  0.4462200000000  0.4145630000000  0.5371000000000 1.0
END
