TITL C-247197-3123-467 8.7008012549574e-07 125000 -809.587679615956 0 0 135 (C1) n - 1
REM
REM in /home/nfs/bkarasulu/CARBON/AIRSS/Generating-Clusters/LCBOP/Only-C1/SD-CG/FIRE-HFTN
REM
REM
REM
REM
REM
REM ./C.cell (11c1c37f851c82e70ff6c80c92926a4b)
REM AIRSS Version 0.9.1 bugfix July 2018 build 013d7b7c2542+ Fri, 06 Jul 2018 19:26:36 +0100
REM compiler GCC version 9.2.1 20190827 (Red Hat 9.2.1-1)
REM options -cpp -mtune=generic -march=x86-64 -g -O0 -fpre-include=/usr/include/finclude/math-vector-fortran.h
REM seed -170549793 508914631 -1594177173 -1233430125 -126292076 -1972748985 2112189733 -1365681282 -405304595 1642966514 -930799246 -1990044627 -568037596 1035032352 -888225879 589012036 -1322683384 323174765 2006354224 1144117488 1297076628 891892094 -164353599 -665791514 829496588 -668502579 -837099744 965702075 1236335614 1422229118 1864589744 -746938607 191436514
REM
CELL 1.54180   50.00000   50.00000   50.00000   90.00000   90.00000   90.00000
LATT -1
SFAC C  
C      1  0.3971220000000  0.5786420000000  0.4533230000000 1.0
C      1  0.4375730000000  0.3988500000000  0.4784470000000 1.0
C      1  0.5497420000000  0.4424470000000  0.4060990000000 1.0
C      1  0.4399360000000  0.5761010000000  0.4264930000000 1.0
C      1  0.5785090000000  0.4363450000000  0.4565310000000 1.0
C      1  0.5679040000000  0.5143720000000  0.5569750000000 1.0
C      1  0.4520520000000  0.4876240000000  0.4967660000000 1.0
C      1  0.4847750000000  0.4373480000000  0.5753110000000 1.0
C      1  0.5354610000000  0.5840070000000  0.5301240000000 1.0
C      1  0.3802020000000  0.5913260000000  0.4685520000000 1.0
C      1  0.5524590000000  0.5392850000000  0.5541600000000 1.0
C      1  0.4895440000000  0.5590830000000  0.5321550000000 1.0
C      1  0.6047340000000  0.5259590000000  0.4659550000000 1.0
C      1  0.4907290000000  0.6176490000000  0.5456450000000 1.0
C      1  0.4685420000000  0.4701740000000  0.4315210000000 1.0
C      1  0.5066990000000  0.5081860000000  0.4030010000000 1.0
C      1  0.4562190000000  0.5562560000000  0.4130280000000 1.0
C      1  0.4978690000000  0.6090180000000  0.4968530000000 1.0
C      1  0.5597080000000  0.4133830000000  0.5077390000000 1.0
C      1  0.5026290000000  0.4556270000000  0.5139170000000 1.0
C      1  0.5067100000000  0.5248790000000  0.4975590000000 1.0
C      1  0.4446760000000  0.4666140000000  0.4814960000000 1.0
C      1  0.4991590000000  0.5922280000000  0.4733010000000 1.0
C      1  0.4280780000000  0.5228060000000  0.5485580000000 1.0
C      1  0.4644050000000  0.5200480000000  0.4611440000000 1.0
C      1  0.4273250000000  0.4247110000000  0.4712750000000 1.0
C      1  0.5568540000000  0.4419390000000  0.4360110000000 1.0
C      1  0.5165550000000  0.4743810000000  0.4407100000000 1.0
C      1  0.4569720000000  0.4412110000000  0.5368750000000 1.0
C      1  0.4634030000000  0.3904710000000  0.4664800000000 1.0
C      1  0.4034400000000  0.5133600000000  0.4454290000000 1.0
C      1  0.4693400000000  0.4232100000000  0.5550280000000 1.0
C      1  0.4294830000000  0.4416420000000  0.5301680000000 1.0
C      1  0.4535310000000  0.5852820000000  0.4903840000000 1.0
C      1  0.5448820000000  0.4679910000000  0.4430290000000 1.0
C      1  0.6135330000000  0.4702370000000  0.4816140000000 1.0
C      1  0.5176380000000  0.5226110000000  0.4520280000000 1.0
C      1  0.4382990000000  0.5339840000000  0.5734040000000 1.0
C      1  0.4736470000000  0.3997740000000  0.4413620000000 1.0
C      1  0.4510370000000  0.5085810000000  0.4153670000000 1.0
C      1  0.5785370000000  0.5299860000000  0.4392150000000 1.0
C      1  0.6057860000000  0.4526510000000  0.5291260000000 1.0
C      1  0.5165240000000  0.5469530000000  0.5955490000000 1.0
C      1  0.4452850000000  0.5107250000000  0.5913820000000 1.0
C      1  0.5024870000000  0.6134280000000  0.5692640000000 1.0
C      1  0.5688170000000  0.4901710000000  0.4829750000000 1.0
C      1  0.5208950000000  0.5744320000000  0.5980660000000 1.0
C      1  0.5671450000000  0.5375580000000  0.4936970000000 1.0
C      1  0.5135780000000  0.4337430000000  0.5713410000000 1.0
C      1  0.4673280000000  0.4646230000000  0.4041990000000 1.0
C      1  0.4926350000000  0.5089520000000  0.5844870000000 1.0
C      1  0.4742260000000  0.5766530000000  0.4710470000000 1.0
C      1  0.5253900000000  0.4317210000000  0.4802980000000 1.0
C      1  0.4245840000000  0.5013960000000  0.6083050000000 1.0
C      1  0.5502500000000  0.4951460000000  0.5465480000000 1.0
C      1  0.4689280000000  0.4467940000000  0.4475700000000 1.0
C      1  0.5168090000000  0.5000550000000  0.5067050000000 1.0
C      1  0.4153490000000  0.5361490000000  0.4325370000000 1.0
C      1  0.3966630000000  0.4646300000000  0.4692900000000 1.0
C      1  0.5967240000000  0.4610880000000  0.5043370000000 1.0
C      1  0.6182720000000  0.5005250000000  0.4749770000000 1.0
C      1  0.5457570000000  0.5496750000000  0.4799840000000 1.0
C      1  0.4499950000000  0.5131840000000  0.4859640000000 1.0
C      1  0.4795140000000  0.5540000000000  0.5596100000000 1.0
C      1  0.3834460000000  0.5003020000000  0.5602530000000 1.0
C      1  0.4383530000000  0.5328990000000  0.4143860000000 1.0
C      1  0.3814770000000  0.4924310000000  0.5858820000000 1.0
C      1  0.4058570000000  0.4409450000000  0.4838530000000 1.0
C      1  0.5503080000000  0.4213800000000  0.3882960000000 1.0
C      1  0.5412710000000  0.4720430000000  0.3998510000000 1.0
C      1  0.5619780000000  0.5105260000000  0.5008600000000 1.0
C      1  0.5353780000000  0.5464800000000  0.4141310000000 1.0
C      1  0.4091650000000  0.4419350000000  0.5122960000000 1.0
C      1  0.4471600000000  0.4446200000000  0.4651060000000 1.0
C      1  0.5602860000000  0.5848510000000  0.5408970000000 1.0
C      1  0.5044440000000  0.4759060000000  0.4662130000000 1.0
C      1  0.5293660000000  0.4116960000000  0.5567950000000 1.0
C      1  0.5076300000000  0.4763390000000  0.4944030000000 1.0
C      1  0.5328840000000  0.5231420000000  0.6002630000000 1.0
C      1  0.5141510000000  0.5982690000000  0.5879290000000 1.0
C      1  0.5394490000000  0.4211140000000  0.5298130000000 1.0
C      1  0.6114510000000  0.4454180000000  0.5535100000000 1.0
C      1  0.4759050000000  0.3990950000000  0.5412530000000 1.0
C      1  0.5562810000000  0.5507480000000  0.4343480000000 1.0
C      1  0.5143470000000  0.4815020000000  0.4104230000000 1.0
C      1  0.5570870000000  0.4851990000000  0.4206340000000 1.0
C      1  0.5966940000000  0.5506470000000  0.5592270000000 1.0
C      1  0.5680550000000  0.4642840000000  0.4964420000000 1.0
C      1  0.4746900000000  0.5061160000000  0.5367580000000 1.0
C      1  0.5948310000000  0.5230350000000  0.5610700000000 1.0
C      1  0.5020660000000  0.5171940000000  0.5430330000000 1.0
C      1  0.4813000000000  0.6089950000000  0.5206750000000 1.0
C      1  0.4843940000000  0.3980690000000  0.4882020000000 1.0
C      1  0.5938300000000  0.5425370000000  0.4858140000000 1.0
C      1  0.4762330000000  0.4578430000000  0.5243810000000 1.0
C      1  0.5808120000000  0.4868720000000  0.4571230000000 1.0
C      1  0.4420520000000  0.3918230000000  0.5062430000000 1.0
C      1  0.5250930000000  0.4475110000000  0.5296380000000 1.0
C      1  0.5505680000000  0.4012730000000  0.3717210000000 1.0
C      1  0.4869880000000  0.4247960000000  0.4482310000000 1.0
C      1  0.4510040000000  0.5226350000000  0.5325500000000 1.0
C      1  0.5444810000000  0.4494450000000  0.4890720000000 1.0
C      1  0.4819310000000  0.5421220000000  0.5012070000000 1.0
C      1  0.4448700000000  0.5795930000000  0.5420540000000 1.0
C      1  0.5424730000000  0.5009670000000  0.5193400000000 1.0
C      1  0.4568380000000  0.5928680000000  0.5183070000000 1.0
C      1  0.5961130000000  0.4616600000000  0.4587770000000 1.0
C      1  0.5709850000000  0.5623240000000  0.5535480000000 1.0
C      1  0.5012140000000  0.4184280000000  0.4738810000000 1.0
C      1  0.4159320000000  0.5647710000000  0.4385240000000 1.0
C      1  0.4638180000000  0.4987310000000  0.4390720000000 1.0
C      1  0.4734670000000  0.4637830000000  0.5850870000000 1.0
C      1  0.4025710000000  0.5122670000000  0.5457740000000 1.0
C      1  0.5088510000000  0.5366710000000  0.4068470000000 1.0
C      1  0.4764180000000  0.5478690000000  0.4698000000000 1.0
C      1  0.4514460000000  0.5593070000000  0.5630820000000 1.0
C      1  0.4924120000000  0.5387520000000  0.5810150000000 1.0
C      1  0.5243500000000  0.4573250000000  0.5576890000000 1.0
C      1  0.5206530000000  0.5000450000000  0.5860520000000 1.0
C      1  0.4842100000000  0.5520430000000  0.4081370000000 1.0
C      1  0.5731990000000  0.4177750000000  0.4820390000000 1.0
C      1  0.4672880000000  0.4837150000000  0.5205060000000 1.0
C      1  0.4690980000000  0.4932670000000  0.5875300000000 1.0
C      1  0.5226800000000  0.5336340000000  0.4762740000000 1.0
C      1  0.3981870000000  0.4890950000000  0.4569820000000 1.0
C      1  0.4540300000000  0.5324520000000  0.5068090000000 1.0
C      1  0.5256990000000  0.5377980000000  0.5441400000000 1.0
C      1  0.3990670000000  0.4933590000000  0.6061970000000 1.0
C      1  0.5461330000000  0.5673130000000  0.4572610000000 1.0
C      1  0.4703570000000  0.3936850000000  0.5139740000000 1.0
C      1  0.5170780000000  0.5630760000000  0.5325290000000 1.0
C      1  0.5323950000000  0.4829740000000  0.5655100000000 1.0
C      1  0.5545560000000  0.5217490000000  0.6166720000000 1.0
C      1  0.5742130000000  0.5026900000000  0.4343730000000 1.0
C      1  0.5238490000000  0.5861020000000  0.4591410000000 1.0
END
