TITL C-247200-3482-447 -0.0566394276662362 125000 -905.093816149079 0 0 147 (C1) n - 1
REM
REM in /home/nfs/bkarasulu/CARBON/AIRSS/Generating-Clusters/LCBOP/Only-C1/SD-CG/FIRE-HFTN
REM
REM
REM
REM
REM
REM ./C.cell (11c1c37f851c82e70ff6c80c92926a4b)
REM AIRSS Version 0.9.1 bugfix July 2018 build 013d7b7c2542+ Fri, 06 Jul 2018 19:26:36 +0100
REM compiler GCC version 9.2.1 20190827 (Red Hat 9.2.1-1)
REM options -cpp -mtune=generic -march=x86-64 -g -O0 -fpre-include=/usr/include/finclude/math-vector-fortran.h
REM seed 554119018 851824816 -1098555982 1050303494 207068378 -1839148153 -336065279 -1966518448 -1628757798 -1640983893 1814418403 1478041107 -1355127600 -1861472576 125816271 760225091 1156703395 1480591023 1471640352 -1063014689 1091566233 -668911631 -763798651 -834524152 185049626 943610676 -300224299 -772029008 141232408 915310709 -449982862 -961036959 1729939828
REM
CELL 1.54180   50.00000   50.00000   50.00000   90.00000   90.00000   90.00000
LATT -1
SFAC C  
C      1  0.5422810000000  0.6369310000000  0.5171200000000 1.0
C      1  0.5805420000000  0.4357860000000  0.4284990000000 1.0
C      1  0.6497310000000  0.4842450000000  0.4751280000000 1.0
C      1  0.5210100000000  0.6054340000000  0.4687120000000 1.0
C      1  0.5547450000000  0.4734410000000  0.4795560000000 1.0
C      1  0.5360840000000  0.5131730000000  0.4536420000000 1.0
C      1  0.3974120000000  0.4535230000000  0.5260290000000 1.0
C      1  0.4519900000000  0.4596510000000  0.3783770000000 1.0
C      1  0.4051080000000  0.5366470000000  0.4150830000000 1.0
C      1  0.3993310000000  0.4783630000000  0.4568620000000 1.0
C      1  0.5727850000000  0.4272560000000  0.4918360000000 1.0
C      1  0.5550760000000  0.5654800000000  0.5075950000000 1.0
C      1  0.4576540000000  0.5543430000000  0.5683860000000 1.0
C      1  0.4416760000000  0.4888500000000  0.5593760000000 1.0
C      1  0.4472530000000  0.4098580000000  0.5159090000000 1.0
C      1  0.5789350000000  0.3958240000000  0.5505940000000 1.0
C      1  0.4364360000000  0.5340620000000  0.5755600000000 1.0
C      1  0.3983240000000  0.4599130000000  0.4777600000000 1.0
C      1  0.4914750000000  0.4252060000000  0.4579640000000 1.0
C      1  0.6022640000000  0.5357020000000  0.5765740000000 1.0
C      1  0.5568380000000  0.4370850000000  0.4435820000000 1.0
C      1  0.4690010000000  0.4251330000000  0.4401710000000 1.0
C      1  0.5733260000000  0.5437600000000  0.5023770000000 1.0
C      1  0.5485930000000  0.5982640000000  0.4734150000000 1.0
C      1  0.4898750000000  0.4247650000000  0.5753240000000 1.0
C      1  0.5087380000000  0.5206850000000  0.4954230000000 1.0
C      1  0.4567730000000  0.5669120000000  0.5419810000000 1.0
C      1  0.5429940000000  0.4860520000000  0.6024100000000 1.0
C      1  0.4810010000000  0.5085150000000  0.4355420000000 1.0
C      1  0.4205190000000  0.5440570000000  0.4869310000000 1.0
C      1  0.5197310000000  0.5172450000000  0.5614150000000 1.0
C      1  0.5081880000000  0.5689140000000  0.5309280000000 1.0
C      1  0.5111400000000  0.4441540000000  0.4504890000000 1.0
C      1  0.5192030000000  0.5797180000000  0.5555860000000 1.0
C      1  0.5230810000000  0.5363960000000  0.4518090000000 1.0
C      1  0.4736240000000  0.5052030000000  0.5210450000000 1.0
C      1  0.5330660000000  0.5094690000000  0.5378920000000 1.0
C      1  0.5231520000000  0.4687720000000  0.5929140000000 1.0
C      1  0.5762910000000  0.5469200000000  0.5790170000000 1.0
C      1  0.4290520000000  0.4994370000000  0.5108810000000 1.0
C      1  0.4815800000000  0.5195430000000  0.4987300000000 1.0
C      1  0.5361280000000  0.4865150000000  0.4618820000000 1.0
C      1  0.5304330000000  0.4058580000000  0.5461910000000 1.0
C      1  0.4695680000000  0.4342220000000  0.5552340000000 1.0
C      1  0.5391400000000  0.5992400000000  0.5489870000000 1.0
C      1  0.5080370000000  0.6256390000000  0.4839530000000 1.0
C      1  0.4993120000000  0.4621070000000  0.6082990000000 1.0
C      1  0.5293580000000  0.5557840000000  0.5167820000000 1.0
C      1  0.5136070000000  0.4710620000000  0.4564220000000 1.0
C      1  0.4301270000000  0.4266510000000  0.5015020000000 1.0
C      1  0.4379970000000  0.4723720000000  0.5099160000000 1.0
C      1  0.4222750000000  0.5636550000000  0.5067270000000 1.0
C      1  0.5270050000000  0.5361510000000  0.3990760000000 1.0
C      1  0.5599530000000  0.5084870000000  0.6037070000000 1.0
C      1  0.6492530000000  0.5006970000000  0.4959950000000 1.0
C      1  0.6204770000000  0.5342600000000  0.5254990000000 1.0
C      1  0.4383940000000  0.3732340000000  0.5769980000000 1.0
C      1  0.5061350000000  0.5850500000000  0.4561010000000 1.0
C      1  0.5589530000000  0.4059090000000  0.5057120000000 1.0
C      1  0.4604280000000  0.4976470000000  0.6043440000000 1.0
C      1  0.4657670000000  0.4753540000000  0.4667500000000 1.0
C      1  0.5287210000000  0.4615560000000  0.5384720000000 1.0
C      1  0.4312390000000  0.5743690000000  0.5310720000000 1.0
C      1  0.6173720000000  0.5373870000000  0.5532010000000 1.0
C      1  0.4802460000000  0.5754220000000  0.5267330000000 1.0
C      1  0.4916400000000  0.4785060000000  0.5619050000000 1.0
C      1  0.5491450000000  0.6103570000000  0.5240410000000 1.0
C      1  0.6070660000000  0.5166240000000  0.5969180000000 1.0
C      1  0.4546790000000  0.4123660000000  0.5432870000000 1.0
C      1  0.5587210000000  0.4886640000000  0.5036510000000 1.0
C      1  0.3826710000000  0.5009650000000  0.4571610000000 1.0
C      1  0.6003310000000  0.5443500000000  0.5087720000000 1.0
C      1  0.4451750000000  0.4636220000000  0.4509130000000 1.0
C      1  0.4237420000000  0.4492460000000  0.5174080000000 1.0
C      1  0.5869410000000  0.5048920000000  0.6131260000000 1.0
C      1  0.4012360000000  0.6102110000000  0.5581080000000 1.0
C      1  0.3839250000000  0.5274500000000  0.4613740000000 1.0
C      1  0.4504060000000  0.5345110000000  0.4058020000000 1.0
C      1  0.6061910000000  0.4429420000000  0.4275490000000 1.0
C      1  0.4799910000000  0.4313060000000  0.4128050000000 1.0
C      1  0.3813850000000  0.4986740000000  0.5250830000000 1.0
C      1  0.4666380000000  0.4754640000000  0.5177200000000 1.0
C      1  0.5208710000000  0.4598670000000  0.3902940000000 1.0
C      1  0.4252960000000  0.5182390000000  0.4052160000000 1.0
C      1  0.5372710000000  0.3932270000000  0.4914900000000 1.0
C      1  0.5448280000000  0.5555360000000  0.4099830000000 1.0
C      1  0.5141370000000  0.4441140000000  0.5212290000000 1.0
C      1  0.4752930000000  0.5969580000000  0.5091240000000 1.0
C      1  0.5572730000000  0.4022310000000  0.5352350000000 1.0
C      1  0.6400740000000  0.5179200000000  0.5140510000000 1.0
C      1  0.3991510000000  0.5134150000000  0.5450270000000 1.0
C      1  0.5589840000000  0.5185400000000  0.5008240000000 1.0
C      1  0.4456200000000  0.5064560000000  0.5819780000000 1.0
C      1  0.4832980000000  0.6179950000000  0.4948250000000 1.0
C      1  0.5139670000000  0.4383350000000  0.4073160000000 1.0
C      1  0.5608540000000  0.5859640000000  0.4506490000000 1.0
C      1  0.5084360000000  0.5586920000000  0.4523750000000 1.0
C      1  0.5302650000000  0.4356710000000  0.4315120000000 1.0
C      1  0.4760130000000  0.5182530000000  0.5451920000000 1.0
C      1  0.5173420000000  0.4658530000000  0.5645350000000 1.0
C      1  0.4432790000000  0.4348980000000  0.4530110000000 1.0
C      1  0.5210340000000  0.4870410000000  0.3822730000000 1.0
C      1  0.4802630000000  0.4823400000000  0.6143430000000 1.0
C      1  0.4891410000000  0.4365370000000  0.6012340000000 1.0
C      1  0.5116570000000  0.5618890000000  0.5772710000000 1.0
C      1  0.4947450000000  0.4202120000000  0.4849260000000 1.0
C      1  0.4969960000000  0.4459930000000  0.4984050000000 1.0
C      1  0.4168390000000  0.5522510000000  0.4370870000000 1.0
C      1  0.5349120000000  0.5090280000000  0.3939070000000 1.0
C      1  0.4937610000000  0.5067830000000  0.5629490000000 1.0
C      1  0.5553780000000  0.5929030000000  0.5012750000000 1.0
C      1  0.5537240000000  0.5334960000000  0.5900630000000 1.0
C      1  0.5113270000000  0.4018650000000  0.4990750000000 1.0
C      1  0.4539530000000  0.4855550000000  0.3717510000000 1.0
C      1  0.4829600000000  0.5588710000000  0.5820550000000 1.0
C      1  0.4687740000000  0.5024780000000  0.4588290000000 1.0
C      1  0.4242500000000  0.4923570000000  0.4162030000000 1.0
C      1  0.5436120000000  0.4836790000000  0.5285550000000 1.0
C      1  0.4227470000000  0.4776840000000  0.4401220000000 1.0
C      1  0.5607650000000  0.4453980000000  0.4723260000000 1.0
C      1  0.4740440000000  0.5051590000000  0.3733850000000 1.0
C      1  0.5280700000000  0.5379890000000  0.5788800000000 1.0
C      1  0.3851380000000  0.4729740000000  0.5098740000000 1.0
C      1  0.4735230000000  0.5287300000000  0.3902410000000 1.0
C      1  0.5571490000000  0.5715680000000  0.4279750000000 1.0
C      1  0.5995810000000  0.4307100000000  0.4973210000000 1.0
C      1  0.6424590000000  0.4689850000000  0.4546240000000 1.0
C      1  0.4627530000000  0.4396730000000  0.3924320000000 1.0
C      1  0.4445770000000  0.5540990000000  0.4273430000000 1.0
C      1  0.5151880000000  0.4155810000000  0.5246270000000 1.0
C      1  0.4615430000000  0.5197690000000  0.4794640000000 1.0
C      1  0.5241350000000  0.6438740000000  0.4983080000000 1.0
C      1  0.5927240000000  0.4915570000000  0.6362120000000 1.0
C      1  0.4668230000000  0.4660740000000  0.5487870000000 1.0
C      1  0.4058920000000  0.5455080000000  0.4625900000000 1.0
C      1  0.4156020000000  0.5932040000000  0.5445630000000 1.0
C      1  0.4990070000000  0.5410790000000  0.3949430000000 1.0
C      1  0.4995770000000  0.4955270000000  0.3659190000000 1.0
C      1  0.4787340000000  0.4660170000000  0.4921920000000 1.0
C      1  0.4080020000000  0.5335850000000  0.5648960000000 1.0
C      1  0.4459900000000  0.3919810000000  0.5605660000000 1.0
C      1  0.4246380000000  0.5014680000000  0.5391610000000 1.0
C      1  0.4352130000000  0.5200350000000  0.4913090000000 1.0
C      1  0.6277620000000  0.4548610000000  0.4375620000000 1.0
C      1  0.5312100000000  0.5262720000000  0.5130100000000 1.0
C      1  0.5135350000000  0.4090730000000  0.5690450000000 1.0
C      1  0.4223550000000  0.4326620000000  0.4746510000000 1.0
END
