TITL C-247202-1916-271 -2.13262842685994e-07 125000 -344.368131951885 0 0 56 (C1) n - 1
REM
REM in /home/nfs/bkarasulu/CARBON/AIRSS/Generating-Clusters/LCBOP/Only-C1/SD-CG/FIRE-HFTN
REM
REM
REM
REM
REM
REM ./C.cell (11c1c37f851c82e70ff6c80c92926a4b)
REM AIRSS Version 0.9.1 bugfix July 2018 build 013d7b7c2542+ Fri, 06 Jul 2018 19:26:36 +0100
REM compiler GCC version 9.2.1 20190827 (Red Hat 9.2.1-1)
REM options -cpp -mtune=generic -march=x86-64 -g -O0 -fpre-include=/usr/include/finclude/math-vector-fortran.h
REM seed 1184050842 1809914513 2051719966 -652521520 597869893 -814253885 -179656765 1373793111 -235099539 11870482 -602305755 661761586 -1086144529 125707744 -1448995488 585577104 224037517 -1488073833 -1970923118 -283064833 -1467272250 -63909562 1700638010 827533578 -1049221242 203133492 -2099712230 -1316847395 149721240 -1824436624 -458318582 1015882024 -969525189
REM
CELL 1.54180   50.00000   50.00000   50.00000   90.00000   90.00000   90.00000
LATT -1
SFAC C  
C      1  0.4759580000000  0.4463020000000  0.4877140000000 1.0
C      1  0.4779730000000  0.5337290000000  0.4353940000000 1.0
C      1  0.5288880000000  0.5545680000000  0.4397180000000 1.0
C      1  0.5503200000000  0.5547630000000  0.4575380000000 1.0
C      1  0.5617600000000  0.4156630000000  0.5125000000000 1.0
C      1  0.5099490000000  0.5440290000000  0.4850580000000 1.0
C      1  0.5187530000000  0.4712030000000  0.4927600000000 1.0
C      1  0.4768070000000  0.4528080000000  0.5175060000000 1.0
C      1  0.4384690000000  0.4682710000000  0.5880580000000 1.0
C      1  0.5068270000000  0.4956080000000  0.4281500000000 1.0
C      1  0.5603510000000  0.5023530000000  0.4827410000000 1.0
C      1  0.5281440000000  0.4835750000000  0.5624810000000 1.0
C      1  0.5019840000000  0.5086460000000  0.5359800000000 1.0
C      1  0.4815270000000  0.4864110000000  0.5752760000000 1.0
C      1  0.4376090000000  0.5092430000000  0.4901450000000 1.0
C      1  0.4812000000000  0.5044600000000  0.4347760000000 1.0
C      1  0.4646900000000  0.5558450000000  0.4763390000000 1.0
C      1  0.4553290000000  0.5385550000000  0.4546380000000 1.0
C      1  0.4960650000000  0.5123240000000  0.5802530000000 1.0
C      1  0.4924100000000  0.4492910000000  0.5413200000000 1.0
C      1  0.4531040000000  0.4867100000000  0.5741570000000 1.0
C      1  0.4591620000000  0.5514640000000  0.5044100000000 1.0
C      1  0.5294310000000  0.5578590000000  0.5005840000000 1.0
C      1  0.5009160000000  0.5522160000000  0.5408180000000 1.0
C      1  0.5233860000000  0.5020590000000  0.5857780000000 1.0
C      1  0.4466510000000  0.4827700000000  0.4962490000000 1.0
C      1  0.4402450000000  0.5064060000000  0.5583790000000 1.0
C      1  0.5280330000000  0.5498810000000  0.5282690000000 1.0
C      1  0.4782930000000  0.5604470000000  0.5243890000000 1.0
C      1  0.5305910000000  0.5014190000000  0.5390880000000 1.0
C      1  0.4922950000000  0.5594620000000  0.4695400000000 1.0
C      1  0.5164100000000  0.4190870000000  0.4945190000000 1.0
C      1  0.5415870000000  0.4303200000000  0.5015710000000 1.0
C      1  0.5382960000000  0.5053010000000  0.4635590000000 1.0
C      1  0.4356190000000  0.5221660000000  0.5372120000000 1.0
C      1  0.5149730000000  0.5163090000000  0.4780030000000 1.0
C      1  0.5609300000000  0.5250730000000  0.5007930000000 1.0
C      1  0.5652370000000  0.4756720000000  0.4914200000000 1.0
C      1  0.5541350000000  0.5507120000000  0.4862480000000 1.0
C      1  0.4604050000000  0.4685040000000  0.4728970000000 1.0
C      1  0.5315690000000  0.4895300000000  0.4404810000000 1.0
C      1  0.4999990000000  0.5524090000000  0.4418130000000 1.0
C      1  0.4411510000000  0.5294940000000  0.5104650000000 1.0
C      1  0.5039700000000  0.4295270000000  0.4500060000000 1.0
C      1  0.4951650000000  0.5285460000000  0.5561150000000 1.0
C      1  0.4660970000000  0.4799570000000  0.5169710000000 1.0
C      1  0.5451270000000  0.5240940000000  0.5273270000000 1.0
C      1  0.5013640000000  0.4676650000000  0.5617790000000 1.0
C      1  0.5247810000000  0.4402620000000  0.4368030000000 1.0
C      1  0.5435180000000  0.4581440000000  0.4963020000000 1.0
C      1  0.5036250000000  0.4949180000000  0.4924800000000 1.0
C      1  0.4959310000000  0.4286150000000  0.4770450000000 1.0
C      1  0.4444570000000  0.5134340000000  0.4626190000000 1.0
C      1  0.5394610000000  0.4628280000000  0.4361120000000 1.0
C      1  0.4874300000000  0.4985150000000  0.5150750000000 1.0
C      1  0.4616430000000  0.4905750000000  0.4523790000000 1.0
END
