TITL C-247201-3759-270 142277.883390227 125000 -784.960323969194 0 0 130 (C1) n - 1
REM
REM in /home/nfs/bkarasulu/CARBON/AIRSS/Generating-Clusters/LCBOP/Only-C1/SD-CG/FIRE-HFTN
REM
REM
REM
REM
REM
REM ./C.cell (11c1c37f851c82e70ff6c80c92926a4b)
REM AIRSS Version 0.9.1 bugfix July 2018 build 013d7b7c2542+ Fri, 06 Jul 2018 19:26:36 +0100
REM compiler GCC version 9.2.1 20190827 (Red Hat 9.2.1-1)
REM options -cpp -mtune=generic -march=x86-64 -g -O0 -fpre-include=/usr/include/finclude/math-vector-fortran.h
REM seed -48491881 1642811482 -1857760856 -2009416694 -54425425 139751169 -613557042 2076657442 -256902128 -674374220 402410356 1155492765 1125946134 1735064553 454490782 949181299 1769357773 440733597 1735886602 -726073896 1013849419 -544249068 -701551245 -951778153 -702279775 -1964124208 1088478128 -1097680873 1335665956 -1753475988 -96268314 -305100647 -374663690
REM
CELL 1.54180   50.00000   50.00000   50.00000   90.00000   90.00000   90.00000
LATT -1
SFAC C  
C      1  0.4372240000000  0.5821910000000  0.4896270000000 1.0
C      1  0.4048860000000  0.4557480000000  0.5326250000000 1.0
C      1  0.5849480000000  0.5736980000000  0.4884470000000 1.0
C      1  0.4732460000000  0.5756830000000  0.4440010000000 1.0
C      1  0.4287370000000  0.5501920000000  0.5965660000000 1.0
C      1  0.5963760000000  0.5311310000000  0.5193610000000 1.0
C      1  0.4423940000000  0.5332650000000  0.4376260000000 1.0
C      1  0.5195840000000  0.5828380000000  0.4723980000000 1.0
C      1  0.5118900000000  0.5070180000000  0.4099210000000 1.0
C      1  0.5163490000000  0.4435090000000  0.5106660000000 1.0
C      1  0.5382950000000  0.4623760000000  0.5180140000000 1.0
C      1  0.5150640000000  0.3962030000000  0.5032260000000 1.0
C      1  0.4181060000000  0.5236750000000  0.4537560000000 1.0
C      1  0.4641310000000  0.5145440000000  0.4321980000000 1.0
C      1  0.5179160000000  0.4575040000000  0.5731840000000 1.0
C      1  0.5359590000000  0.4624550000000  0.4193490000000 1.0
C      1  0.4869800000000  0.5285470000000  0.5564730000000 1.0
C      1  0.4002210000000  0.4622580000000  0.5038490000000 1.0
C      1  0.5427850000000  0.5424350000000  0.4647070000000 1.0
C      1  0.5079990000000  0.4216100000000  0.4923160000000 1.0
C      1  0.4452860000000  0.4119690000000  0.4764810000000 1.0
C      1  0.4564610000000  0.4473680000000  0.5537620000000 1.0
C      1  0.5589940000000  0.5643730000000  0.4212260000000 1.0
C      1  0.4771400000000  0.5363000000000  0.4829740000000 1.0
C      1  0.5242770000000  0.5273980000000  0.5938040000000 1.0
C      1  0.4686930000000  0.4663350000000  0.5092180000000 1.0
C      1  0.5624760000000  0.4743770000000  0.4159440000000 1.0
C      1  0.4932720000000  0.4979840000000  0.5623580000000 1.0
C      1  0.4767560000000  0.4810450000000  0.5806710000000 1.0
C      1  0.5431930000000  0.5470980000000  0.4054800000000 1.0
C      1  0.5513150000000  0.5707830000000  0.5572480000000 1.0
C      1  0.5190000000000  0.4849870000000  0.4267870000000 1.0
C      1  0.4623950000000  0.4098540000000  0.4316660000000 1.0
C      1  0.5121710000000  0.5268000000000  0.5176360000000 1.0
C      1  0.4981970000000  0.5698690000000  0.4567130000000 1.0
C      1  0.5734570000000  0.5843660000000  0.4094280000000 1.0
C      1  0.4674440000000  0.4103130000000  0.4592200000000 1.0
C      1  0.4906320000000  0.5416300000000  0.5280790000000 1.0
C      1  0.4810650000000  0.4737930000000  0.4553390000000 1.0
C      1  0.5353070000000  0.4360660000000  0.4305660000000 1.0
C      1  0.4297160000000  0.5673500000000  0.4672480000000 1.0
C      1  0.5724100000000  0.4320420000000  0.5235870000000 1.0
C      1  0.5634960000000  0.4903130000000  0.6023120000000 1.0
C      1  0.5262590000000  0.4959150000000  0.4529840000000 1.0
C      1  0.4750690000000  0.5526360000000  0.5070400000000 1.0
C      1  0.4260270000000  0.4784530000000  0.5725910000000 1.0
C      1  0.4062190000000  0.4795810000000  0.4381060000000 1.0
C      1  0.4484570000000  0.5614750000000  0.4455760000000 1.0
C      1  0.5780900000000  0.4710990000000  0.4621140000000 1.0
C      1  0.4855680000000  0.6065130000000  0.5409420000000 1.0
C      1  0.4916430000000  0.4195430000000  0.4698410000000 1.0
C      1  0.5940870000000  0.5541680000000  0.5050510000000 1.0
C      1  0.4913510000000  0.4796300000000  0.4993060000000 1.0
C      1  0.4142250000000  0.4618110000000  0.4200490000000 1.0
C      1  0.5882960000000  0.4786430000000  0.5164450000000 1.0
C      1  0.4600940000000  0.5763820000000  0.5075920000000 1.0
C      1  0.5147450000000  0.4338720000000  0.5570290000000 1.0
C      1  0.4745050000000  0.5264270000000  0.3863080000000 1.0
C      1  0.4079670000000  0.4971370000000  0.4602040000000 1.0
C      1  0.4601320000000  0.3998700000000  0.5428320000000 1.0
C      1  0.4472030000000  0.4227070000000  0.4138330000000 1.0
C      1  0.5368020000000  0.4855740000000  0.5342870000000 1.0
C      1  0.5795340000000  0.4548940000000  0.5702590000000 1.0
C      1  0.4345730000000  0.3978940000000  0.4996590000000 1.0
C      1  0.3847950000000  0.5502220000000  0.4799850000000 1.0
C      1  0.4260330000000  0.6068420000000  0.4994880000000 1.0
C      1  0.4291200000000  0.4419670000000  0.4104120000000 1.0
C      1  0.5432930000000  0.5101560000000  0.6017420000000 1.0
C      1  0.5350570000000  0.5488150000000  0.5523360000000 1.0
C      1  0.4974020000000  0.5407800000000  0.4634370000000 1.0
C      1  0.5335770000000  0.3992120000000  0.5251230000000 1.0
C      1  0.5215180000000  0.5239790000000  0.4585700000000 1.0
C      1  0.5435420000000  0.6243290000000  0.4843010000000 1.0
C      1  0.5000830000000  0.4433500000000  0.5340720000000 1.0
C      1  0.4336980000000  0.4386140000000  0.4783320000000 1.0
C      1  0.5745020000000  0.4998610000000  0.4662120000000 1.0
C      1  0.4410550000000  0.6165100000000  0.5205250000000 1.0
C      1  0.5543250000000  0.4252720000000  0.4774190000000 1.0
C      1  0.5140200000000  0.5401940000000  0.5706730000000 1.0
C      1  0.4165990000000  0.4279760000000  0.5356090000000 1.0
C      1  0.5745540000000  0.5134360000000  0.4406970000000 1.0
C      1  0.4561330000000  0.5276030000000  0.5561210000000 1.0
C      1  0.4065320000000  0.4732900000000  0.5545920000000 1.0
C      1  0.4741760000000  0.4528710000000  0.5329340000000 1.0
C      1  0.4663480000000  0.4980380000000  0.4559310000000 1.0
C      1  0.4077980000000  0.4371710000000  0.4909330000000 1.0
C      1  0.4423310000000  0.4231070000000  0.5492650000000 1.0
C      1  0.5666760000000  0.4579500000000  0.5085980000000 1.0
C      1  0.5602940000000  0.5078600000000  0.4904730000000 1.0
C      1  0.5835550000000  0.5056950000000  0.5309850000000 1.0
C      1  0.5191540000000  0.4835510000000  0.5569990000000 1.0
C      1  0.5358280000000  0.6359780000000  0.5069910000000 1.0
C      1  0.5111340000000  0.6268020000000  0.5763080000000 1.0
C      1  0.5598000000000  0.5603560000000  0.4493630000000 1.0
C      1  0.5672230000000  0.5823360000000  0.4674620000000 1.0
C      1  0.5816310000000  0.4638360000000  0.4346750000000 1.0
C      1  0.5373420000000  0.5325470000000  0.5291660000000 1.0
C      1  0.5315860000000  0.5593190000000  0.4861230000000 1.0
C      1  0.5544270000000  0.5091770000000  0.5220400000000 1.0
C      1  0.4010540000000  0.4853620000000  0.4862090000000 1.0
C      1  0.5615860000000  0.5037330000000  0.4163780000000 1.0
C      1  0.5687700000000  0.5898520000000  0.5605410000000 1.0
C      1  0.5568060000000  0.4120390000000  0.5107360000000 1.0
C      1  0.4500460000000  0.4580890000000  0.4901160000000 1.0
C      1  0.4509880000000  0.3861760000000  0.5193950000000 1.0
C      1  0.4458000000000  0.5096710000000  0.5054670000000 1.0
C      1  0.4125440000000  0.4144150000000  0.5100010000000 1.0
C      1  0.5600130000000  0.4554800000000  0.4791820000000 1.0
C      1  0.4448260000000  0.5167270000000  0.5317690000000 1.0
C      1  0.5860330000000  0.5015360000000  0.5600850000000 1.0
C      1  0.4524720000000  0.4688730000000  0.5721810000000 1.0
C      1  0.5795480000000  0.4362890000000  0.5506980000000 1.0
C      1  0.5009250000000  0.4684370000000  0.4752640000000 1.0
C      1  0.4967310000000  0.4632210000000  0.5923520000000 1.0
C      1  0.4411730000000  0.5385270000000  0.5768630000000 1.0
C      1  0.5770800000000  0.4820200000000  0.5785120000000 1.0
C      1  0.4610090000000  0.5128410000000  0.4812170000000 1.0
C      1  0.4881270000000  0.3955150000000  0.5507360000000 1.0
C      1  0.5066950000000  0.6227320000000  0.5496570000000 1.0
C      1  0.4838450000000  0.5157770000000  0.4101150000000 1.0
C      1  0.5167800000000  0.4053130000000  0.5499560000000 1.0
C      1  0.5285460000000  0.4731770000000  0.4705550000000 1.0
C      1  0.4091060000000  0.5473320000000  0.4681680000000 1.0
C      1  0.5703250000000  0.4788930000000  0.6262870000000 1.0
C      1  0.5231250000000  0.6346310000000  0.5303060000000 1.0
C      1  0.5436210000000  0.4201360000000  0.4512970000000 1.0
C      1  0.5386380000000  0.5193640000000  0.4056120000000 1.0
C      1  0.5434670000000  0.5997810000000  0.4711130000000 1.0
C      1  0.5044530000000  0.5023620000000  0.5074380000000 1.0
C      1  0.4636380000000  0.5991790000000  0.5257960000000 1.0
END
