TITL C-247202-1916-43 1609.30344636457 125000 -751.54061884567 0 0 125 (C1) n - 1
REM
REM in /home/nfs/bkarasulu/CARBON/AIRSS/Generating-Clusters/LCBOP/Only-C1/SD-CG/FIRE-HFTN
REM
REM
REM
REM
REM
REM ./C.cell (11c1c37f851c82e70ff6c80c92926a4b)
REM AIRSS Version 0.9.1 bugfix July 2018 build 013d7b7c2542+ Fri, 06 Jul 2018 19:26:36 +0100
REM compiler GCC version 9.2.1 20190827 (Red Hat 9.2.1-1)
REM options -cpp -mtune=generic -march=x86-64 -g -O0 -fpre-include=/usr/include/finclude/math-vector-fortran.h
REM seed 2007095897 -1906562480 -772695255 108753343 1200622762 -1940725425 651139433 998335247 1736147582 1473326596 2034196295 -1219630435 1602771833 251159690 -1070064339 1276221230 -520254976 989707630 -323457243 -1095142165 -493097267 -780025245 222879015 -543331946 -729153649 -1390708356 -2095224232 -21797568 -1043648771 1857854176 -1110111160 1327144569 -1076851415
REM
CELL 1.54180   50.00000   50.00000   50.00000   90.00000   90.00000   90.00000
LATT -1
SFAC C  
C      1  0.4454520000000  0.4821780000000  0.5437800000000 1.0
C      1  0.5138310000000  0.3971510000000  0.4376760000000 1.0
C      1  0.5143730000000  0.5537860000000  0.5104730000000 1.0
C      1  0.5505590000000  0.4558470000000  0.5073820000000 1.0
C      1  0.5480190000000  0.4539120000000  0.5614630000000 1.0
C      1  0.5151680000000  0.4235540000000  0.4276850000000 1.0
C      1  0.5491290000000  0.5150790000000  0.5281400000000 1.0
C      1  0.4732250000000  0.5902730000000  0.5042780000000 1.0
C      1  0.4743530000000  0.5021470000000  0.4665920000000 1.0
C      1  0.4764600000000  0.4566440000000  0.4365110000000 1.0
C      1  0.4649480000000  0.5242210000000  0.3977440000000 1.0
C      1  0.4259590000000  0.4696520000000  0.5609530000000 1.0
C      1  0.4937220000000  0.4408790000000  0.4191350000000 1.0
C      1  0.5799430000000  0.4190690000000  0.5193020000000 1.0
C      1  0.5174230000000  0.4415700000000  0.4742220000000 1.0
C      1  0.5555610000000  0.4087660000000  0.5329210000000 1.0
C      1  0.4243040000000  0.5800660000000  0.4947880000000 1.0
C      1  0.5443440000000  0.4622800000000  0.4173260000000 1.0
C      1  0.4518090000000  0.5712410000000  0.4480940000000 1.0
C      1  0.6219390000000  0.6252290000000  0.5550300000000 1.0
C      1  0.4897120000000  0.5326020000000  0.4046640000000 1.0
C      1  0.4962180000000  0.6030360000000  0.4980330000000 1.0
C      1  0.4967350000000  0.5003970000000  0.4873310000000 1.0
C      1  0.4723110000000  0.5877260000000  0.4382320000000 1.0
C      1  0.4172090000000  0.5374040000000  0.4285850000000 1.0
C      1  0.4076060000000  0.5374850000000  0.5548800000000 1.0
C      1  0.5202070000000  0.6008760000000  0.4829660000000 1.0
C      1  0.4063250000000  0.4878050000000  0.5699160000000 1.0
C      1  0.5119760000000  0.5219710000000  0.4186080000000 1.0
C      1  0.4009420000000  0.5139570000000  0.5660300000000 1.0
C      1  0.4430990000000  0.5067640000000  0.4009520000000 1.0
C      1  0.5278670000000  0.4410510000000  0.4991150000000 1.0
C      1  0.5409510000000  0.4364260000000  0.4255660000000 1.0
C      1  0.5965530000000  0.6180550000000  0.5524530000000 1.0
C      1  0.5171050000000  0.5860040000000  0.4585010000000 1.0
C      1  0.4238790000000  0.5524600000000  0.5394690000000 1.0
C      1  0.5715870000000  0.5501770000000  0.4934490000000 1.0
C      1  0.4578490000000  0.5064900000000  0.5507490000000 1.0
C      1  0.4143560000000  0.4837460000000  0.4332940000000 1.0
C      1  0.4853970000000  0.4845930000000  0.4427160000000 1.0
C      1  0.5697540000000  0.5049080000000  0.4735640000000 1.0
C      1  0.4623240000000  0.5271020000000  0.5317370000000 1.0
C      1  0.4525570000000  0.5688060000000  0.4992490000000 1.0
C      1  0.5181500000000  0.5173460000000  0.4765670000000 1.0
C      1  0.3869310000000  0.4907130000000  0.5007180000000 1.0
C      1  0.5114710000000  0.4897950000000  0.5874050000000 1.0
C      1  0.5827260000000  0.4078900000000  0.4697350000000 1.0
C      1  0.5177200000000  0.5448830000000  0.4834840000000 1.0
C      1  0.4010770000000  0.5667890000000  0.4920860000000 1.0
C      1  0.5222960000000  0.5874740000000  0.5474090000000 1.0
C      1  0.5467960000000  0.5977450000000  0.4931340000000 1.0
C      1  0.5669600000000  0.5347910000000  0.5175830000000 1.0
C      1  0.6070020000000  0.4797330000000  0.5030700000000 1.0
C      1  0.5656920000000  0.5781690000000  0.4941250000000 1.0
C      1  0.4491070000000  0.4486290000000  0.4363970000000 1.0
C      1  0.5268460000000  0.4132990000000  0.5397320000000 1.0
C      1  0.4493290000000  0.4745320000000  0.4956230000000 1.0
C      1  0.6006820000000  0.4361490000000  0.5306580000000 1.0
C      1  0.4197350000000  0.4331890000000  0.5253730000000 1.0
C      1  0.3967540000000  0.4666510000000  0.4864490000000 1.0
C      1  0.4998860000000  0.5940560000000  0.4373470000000 1.0
C      1  0.5177840000000  0.5607260000000  0.5380840000000 1.0
C      1  0.4403250000000  0.4266790000000  0.4499750000000 1.0
C      1  0.4691360000000  0.4447700000000  0.5246240000000 1.0
C      1  0.5703310000000  0.5345520000000  0.4679180000000 1.0
C      1  0.4282540000000  0.4415780000000  0.5620010000000 1.0
C      1  0.5423920000000  0.5026000000000  0.4816730000000 1.0
C      1  0.5045770000000  0.4768150000000  0.5354790000000 1.0
C      1  0.4942530000000  0.5621440000000  0.5952390000000 1.0
C      1  0.4712280000000  0.5320020000000  0.4647090000000 1.0
C      1  0.5558860000000  0.5033740000000  0.6184760000000 1.0
C      1  0.5547380000000  0.4597080000000  0.5357460000000 1.0
C      1  0.5365130000000  0.3880500000000  0.4515840000000 1.0
C      1  0.5798170000000  0.4268200000000  0.4903850000000 1.0
C      1  0.4787980000000  0.4258450000000  0.5747570000000 1.0
C      1  0.5382920000000  0.4969390000000  0.5092160000000 1.0
C      1  0.5174670000000  0.4915440000000  0.5572230000000 1.0
C      1  0.5375620000000  0.5329810000000  0.4252910000000 1.0
C      1  0.5030650000000  0.5387590000000  0.5825590000000 1.0
C      1  0.4006390000000  0.5146080000000  0.4916880000000 1.0
C      1  0.5283770000000  0.5603460000000  0.4619520000000 1.0
C      1  0.4956230000000  0.4497200000000  0.5309940000000 1.0
C      1  0.4063950000000  0.4452930000000  0.5037300000000 1.0
C      1  0.5023520000000  0.4574180000000  0.3970120000000 1.0
C      1  0.5605970000000  0.3925440000000  0.4619480000000 1.0
C      1  0.6306340000000  0.4022690000000  0.4455560000000 1.0
C      1  0.4526810000000  0.4251910000000  0.5614690000000 1.0
C      1  0.5320460000000  0.5160360000000  0.5506940000000 1.0
C      1  0.4078100000000  0.4802210000000  0.4610890000000 1.0
C      1  0.5492570000000  0.5451570000000  0.4484420000000 1.0
C      1  0.5138740000000  0.4307500000000  0.5208290000000 1.0
C      1  0.4215120000000  0.5106100000000  0.4209690000000 1.0
C      1  0.4541110000000  0.4679400000000  0.5213360000000 1.0
C      1  0.5095920000000  0.4899660000000  0.5109940000000 1.0
C      1  0.4653130000000  0.4510220000000  0.6154570000000 1.0
C      1  0.4824480000000  0.4463400000000  0.5948600000000 1.0
C      1  0.5076870000000  0.4947210000000  0.4256940000000 1.0
C      1  0.5854310000000  0.4812830000000  0.4836950000000 1.0
C      1  0.4436770000000  0.4781730000000  0.3974560000000 1.0
C      1  0.5032280000000  0.5985310000000  0.5650480000000 1.0
C      1  0.6073850000000  0.4046000000000  0.4570960000000 1.0
C      1  0.5262070000000  0.4435320000000  0.5768010000000 1.0
C      1  0.4923680000000  0.5876820000000  0.5871360000000 1.0
C      1  0.5187630000000  0.5400350000000  0.5581810000000 1.0
C      1  0.4477240000000  0.5498500000000  0.5236210000000 1.0
C      1  0.5070140000000  0.4601760000000  0.5908090000000 1.0
C      1  0.4663440000000  0.5088770000000  0.5774310000000 1.0
C      1  0.6109230000000  0.4601150000000  0.5219450000000 1.0
C      1  0.4539500000000  0.4224690000000  0.5322510000000 1.0
C      1  0.4322380000000  0.4645970000000  0.4202290000000 1.0
C      1  0.5348030000000  0.4969920000000  0.6045820000000 1.0
C      1  0.5717940000000  0.4550880000000  0.4879810000000 1.0
C      1  0.4213000000000  0.5041250000000  0.4739260000000 1.0
C      1  0.4916550000000  0.5129290000000  0.5888190000000 1.0
C      1  0.6469960000000  0.6319560000000  0.5575870000000 1.0
C      1  0.4295150000000  0.5606650000000  0.4343620000000 1.0
C      1  0.3930640000000  0.5412750000000  0.4925090000000 1.0
C      1  0.4919250000000  0.3813120000000  0.4340120000000 1.0
C      1  0.5715210000000  0.6098180000000  0.5496830000000 1.0
C      1  0.5130310000000  0.4199440000000  0.5652250000000 1.0
C      1  0.5473910000000  0.5995710000000  0.5458220000000 1.0
C      1  0.4479740000000  0.4950800000000  0.4776370000000 1.0
C      1  0.4590740000000  0.5561910000000  0.4716030000000 1.0
C      1  0.5210720000000  0.4760640000000  0.4084720000000 1.0
C      1  0.5100650000000  0.6078090000000  0.4159810000000 1.0
END
