TITL C-247197-3123-404 -97.8611566988804 125000 -891.048160652646 0 0 148 (C1) n - 1
REM
REM in /home/nfs/bkarasulu/CARBON/AIRSS/Generating-Clusters/LCBOP/Only-C1/SD-CG/FIRE-HFTN
REM
REM
REM
REM
REM
REM ./C.cell (11c1c37f851c82e70ff6c80c92926a4b)
REM AIRSS Version 0.9.1 bugfix July 2018 build 013d7b7c2542+ Fri, 06 Jul 2018 19:26:36 +0100
REM compiler GCC version 9.2.1 20190827 (Red Hat 9.2.1-1)
REM options -cpp -mtune=generic -march=x86-64 -g -O0 -fpre-include=/usr/include/finclude/math-vector-fortran.h
REM seed 620914372 -1777488668 134628164 -1858910161 2074008205 -1661334310 1564806803 -2089748840 1808096729 481072813 302056367 -1290156895 -1812105643 -361571489 118253174 -585471179 -1057290680 72195743 -751052715 -949447345 -1080203729 366450122 168583026 -1901627400 224065972 -329268672 1592724211 2093926907 -1452124177 1818742832 -1163395675 -1122718064 -1028851900
REM
CELL 1.54180   50.00000   50.00000   50.00000   90.00000   90.00000   90.00000
LATT -1
SFAC C  
C      1  0.5010200000000  0.3935590000000  0.4628790000000 1.0
C      1  0.4961430000000  0.4546350000000  0.6107980000000 1.0
C      1  0.4633960000000  0.5234840000000  0.5145640000000 1.0
C      1  0.5293130000000  0.4944560000000  0.3600520000000 1.0
C      1  0.5953490000000  0.5068030000000  0.5701190000000 1.0
C      1  0.4606300000000  0.4919350000000  0.4681650000000 1.0
C      1  0.4568740000000  0.6045850000000  0.4608910000000 1.0
C      1  0.4302030000000  0.4365220000000  0.4229100000000 1.0
C      1  0.5735050000000  0.5118430000000  0.5878660000000 1.0
C      1  0.5835880000000  0.4846540000000  0.4669480000000 1.0
C      1  0.4001500000000  0.5484790000000  0.4597460000000 1.0
C      1  0.4288970000000  0.4202590000000  0.4467510000000 1.0
C      1  0.4250970000000  0.4458220000000  0.5032190000000 1.0
C      1  0.4866500000000  0.5811110000000  0.4225820000000 1.0
C      1  0.3871280000000  0.5400520000000  0.4356420000000 1.0
C      1  0.5676160000000  0.5497010000000  0.4442280000000 1.0
C      1  0.4072340000000  0.4286860000000  0.4636310000000 1.0
C      1  0.5728800000000  0.4756000000000  0.5288310000000 1.0
C      1  0.6076760000000  0.4454720000000  0.4588030000000 1.0
C      1  0.3948820000000  0.4752460000000  0.4807270000000 1.0
C      1  0.4289940000000  0.5668970000000  0.4279080000000 1.0
C      1  0.5203020000000  0.4038440000000  0.4819400000000 1.0
C      1  0.4249460000000  0.4460060000000  0.5506780000000 1.0
C      1  0.5488900000000  0.4407290000000  0.5696910000000 1.0
C      1  0.5224390000000  0.4190990000000  0.5285220000000 1.0
C      1  0.4516310000000  0.4528950000000  0.4961710000000 1.0
C      1  0.4385210000000  0.4931830000000  0.5912490000000 1.0
C      1  0.4739580000000  0.3962880000000  0.4737640000000 1.0
C      1  0.5431760000000  0.5067870000000  0.4416490000000 1.0
C      1  0.4880070000000  0.5339840000000  0.5256160000000 1.0
C      1  0.5450330000000  0.5131740000000  0.5141780000000 1.0
C      1  0.6055490000000  0.4724790000000  0.4565640000000 1.0
C      1  0.4821100000000  0.4877720000000  0.3977580000000 1.0
C      1  0.5235010000000  0.5349470000000  0.4106220000000 1.0
C      1  0.4215590000000  0.5389080000000  0.5470880000000 1.0
C      1  0.5070730000000  0.3786720000000  0.4408790000000 1.0
C      1  0.5062440000000  0.4934190000000  0.4963640000000 1.0
C      1  0.3933990000000  0.5240210000000  0.4150440000000 1.0
C      1  0.4583930000000  0.5652890000000  0.4843920000000 1.0
C      1  0.4963180000000  0.4458190000000  0.4409170000000 1.0
C      1  0.5140240000000  0.4299590000000  0.4260000000000 1.0
C      1  0.4890060000000  0.5777070000000  0.5590850000000 1.0
C      1  0.5188670000000  0.4301440000000  0.3982920000000 1.0
C      1  0.4653650000000  0.5931410000000  0.5577680000000 1.0
C      1  0.4540320000000  0.5253550000000  0.4339060000000 1.0
C      1  0.4200710000000  0.5690100000000  0.4549130000000 1.0
C      1  0.4108540000000  0.4681540000000  0.5606810000000 1.0
C      1  0.5454740000000  0.5430990000000  0.6337390000000 1.0
C      1  0.5057100000000  0.4720110000000  0.4783410000000 1.0
C      1  0.5100050000000  0.6146570000000  0.5169380000000 1.0
C      1  0.4698630000000  0.4455730000000  0.4514750000000 1.0
C      1  0.4098670000000  0.5179310000000  0.5617690000000 1.0
C      1  0.4403200000000  0.5820910000000  0.4704940000000 1.0
C      1  0.5591000000000  0.4899770000000  0.6002300000000 1.0
C      1  0.4852310000000  0.5502820000000  0.5496170000000 1.0
C      1  0.5234770000000  0.5578420000000  0.5054390000000 1.0
C      1  0.5126000000000  0.5788960000000  0.4343430000000 1.0
C      1  0.4712830000000  0.6191940000000  0.4807730000000 1.0
C      1  0.5930530000000  0.5569200000000  0.5891430000000 1.0
C      1  0.5067090000000  0.4903050000000  0.5237530000000 1.0
C      1  0.5629290000000  0.4724770000000  0.4829720000000 1.0
C      1  0.4221960000000  0.5661910000000  0.5541100000000 1.0
C      1  0.5616190000000  0.4425990000000  0.4783470000000 1.0
C      1  0.5732450000000  0.4362760000000  0.5556810000000 1.0
C      1  0.5248000000000  0.4274530000000  0.5572070000000 1.0
C      1  0.5871490000000  0.4317890000000  0.4702020000000 1.0
C      1  0.5477010000000  0.5530840000000  0.6074030000000 1.0
C      1  0.4502130000000  0.4038600000000  0.4588060000000 1.0
C      1  0.4252820000000  0.4827120000000  0.4079320000000 1.0
C      1  0.4056340000000  0.4492370000000  0.4830510000000 1.0
C      1  0.5330260000000  0.5705260000000  0.5299540000000 1.0
C      1  0.4521390000000  0.4446140000000  0.5575220000000 1.0
C      1  0.5145040000000  0.5321310000000  0.5130540000000 1.0
C      1  0.4125820000000  0.4597710000000  0.4205620000000 1.0
C      1  0.6139040000000  0.4501220000000  0.5331470000000 1.0
C      1  0.5050150000000  0.4716640000000  0.4495550000000 1.0
C      1  0.4752770000000  0.4445570000000  0.5414260000000 1.0
C      1  0.5084830000000  0.4018370000000  0.5094160000000 1.0
C      1  0.5570350000000  0.5186900000000  0.6425460000000 1.0
C      1  0.5254880000000  0.4701360000000  0.3728590000000 1.0
C      1  0.5700410000000  0.5408050000000  0.5940180000000 1.0
C      1  0.5192470000000  0.5130730000000  0.4280590000000 1.0
C      1  0.4903010000000  0.6211350000000  0.4997610000000 1.0
C      1  0.5150920000000  0.5171480000000  0.3684240000000 1.0
C      1  0.4611850000000  0.5444050000000  0.5915560000000 1.0
C      1  0.5003000000000  0.4498720000000  0.4968560000000 1.0
C      1  0.6136920000000  0.5501010000000  0.5729400000000 1.0
C      1  0.4747070000000  0.4477910000000  0.5119400000000 1.0
C      1  0.4686200000000  0.4281220000000  0.3901720000000 1.0
C      1  0.5906020000000  0.5158320000000  0.6845510000000 1.0
C      1  0.4694450000000  0.5045460000000  0.4441010000000 1.0
C      1  0.5508270000000  0.4648000000000  0.5869780000000 1.0
C      1  0.5012940000000  0.4485460000000  0.5573620000000 1.0
C      1  0.5421730000000  0.5470940000000  0.5474530000000 1.0
C      1  0.3957180000000  0.5019660000000  0.4834340000000 1.0
C      1  0.5742160000000  0.5173070000000  0.6643400000000 1.0
C      1  0.4563080000000  0.3939570000000  0.5200340000000 1.0
C      1  0.4975230000000  0.4661960000000  0.3809730000000 1.0
C      1  0.5711640000000  0.5766640000000  0.4826810000000 1.0
C      1  0.5848400000000  0.5421620000000  0.5203470000000 1.0
C      1  0.4102230000000  0.5059120000000  0.4048890000000 1.0
C      1  0.4605600000000  0.5077270000000  0.4915030000000 1.0
C      1  0.4323780000000  0.4047010000000  0.5263700000000 1.0
C      1  0.5499470000000  0.4957130000000  0.6271660000000 1.0
C      1  0.5576720000000  0.4871930000000  0.5077560000000 1.0
C      1  0.4785930000000  0.5414350000000  0.3869800000000 1.0
C      1  0.6285890000000  0.5220240000000  0.5117700000000 1.0
C      1  0.4637500000000  0.4968740000000  0.5988540000000 1.0
C      1  0.5560300000000  0.5700940000000  0.4597790000000 1.0
C      1  0.5269260000000  0.5981020000000  0.5300820000000 1.0
C      1  0.5098370000000  0.5808610000000  0.5788680000000 1.0
C      1  0.3996280000000  0.5283320000000  0.4795610000000 1.0
C      1  0.4881600000000  0.5153380000000  0.3803590000000 1.0
C      1  0.5030140000000  0.5201490000000  0.5817280000000 1.0
C      1  0.4933070000000  0.4465260000000  0.5856930000000 1.0
C      1  0.4922300000000  0.5001710000000  0.6001680000000 1.0
C      1  0.5602480000000  0.5315780000000  0.5300210000000 1.0
C      1  0.4210100000000  0.4308530000000  0.5268910000000 1.0
C      1  0.4949760000000  0.4947330000000  0.4296400000000 1.0
C      1  0.6091030000000  0.5301180000000  0.5290190000000 1.0
C      1  0.4512940000000  0.4442320000000  0.4047220000000 1.0
C      1  0.5213250000000  0.4460630000000  0.5163090000000 1.0
C      1  0.4503860000000  0.5501770000000  0.4218360000000 1.0
C      1  0.5290720000000  0.5361820000000  0.3841990000000 1.0
C      1  0.5037820000000  0.4807240000000  0.6172030000000 1.0
C      1  0.5292430000000  0.5713180000000  0.5953710000000 1.0
C      1  0.5406230000000  0.4233110000000  0.4774120000000 1.0
C      1  0.4393930000000  0.5309940000000  0.5269720000000 1.0
C      1  0.5149000000000  0.4669830000000  0.5368690000000 1.0
C      1  0.4804430000000  0.5361590000000  0.5739120000000 1.0
C      1  0.4846750000000  0.5627870000000  0.4799560000000 1.0
C      1  0.4174710000000  0.4929810000000  0.5725200000000 1.0
C      1  0.4790340000000  0.3959480000000  0.5034290000000 1.0
C      1  0.4573100000000  0.4634630000000  0.4701320000000 1.0
C      1  0.5875520000000  0.4538610000000  0.5390280000000 1.0
C      1  0.4696410000000  0.6004640000000  0.4355470000000 1.0
C      1  0.4528170000000  0.4744340000000  0.4012740000000 1.0
C      1  0.5644880000000  0.5231810000000  0.4429000000000 1.0
C      1  0.5384370000000  0.4473640000000  0.3850660000000 1.0
C      1  0.4939880000000  0.4375070000000  0.3845470000000 1.0
C      1  0.4731100000000  0.5598050000000  0.4079120000000 1.0
C      1  0.5269220000000  0.5299780000000  0.5672290000000 1.0
C      1  0.6110690000000  0.5266890000000  0.5570560000000 1.0
C      1  0.4391710000000  0.5869030000000  0.5565190000000 1.0
C      1  0.5275570000000  0.5738600000000  0.4581130000000 1.0
C      1  0.5837110000000  0.5641330000000  0.5028040000000 1.0
C      1  0.5252960000000  0.4845900000000  0.6339790000000 1.0
C      1  0.5124020000000  0.5668650000000  0.4813050000000 1.0
END
