TITL C-247202-1916-521 2.14735241779601e-07 125000 -670.890471517562 0 0 110 (C1) n - 1
REM
REM in /home/nfs/bkarasulu/CARBON/AIRSS/Generating-Clusters/LCBOP/Only-C1/SD-CG/FIRE-HFTN
REM
REM
REM
REM
REM
REM ./C.cell (11c1c37f851c82e70ff6c80c92926a4b)
REM AIRSS Version 0.9.1 bugfix July 2018 build 013d7b7c2542+ Fri, 06 Jul 2018 19:26:36 +0100
REM compiler GCC version 9.2.1 20190827 (Red Hat 9.2.1-1)
REM options -cpp -mtune=generic -march=x86-64 -g -O0 -fpre-include=/usr/include/finclude/math-vector-fortran.h
REM seed -1536417510 1659687468 -1443313809 2090264213 1690785004 -1872985250 -437425206 -1075530594 -1014513277 -685128096 809363287 -1589825982 2035703479 -2147470635 -2062936721 1521895879 190330830 -1231948773 -1961431196 1970204941 -1168549145 1140059622 1281523850 -309907960 1206165697 793999984 -1272139438 -863030953 -1473115088 -907892826 -187483375 278014362 -1301853450
REM
CELL 1.54180   50.00000   50.00000   50.00000   90.00000   90.00000   90.00000
LATT -1
SFAC C  
C      1  0.4534570000000  0.4097370000000  0.4722260000000 1.0
C      1  0.5201640000000  0.4008780000000  0.5575070000000 1.0
C      1  0.4338610000000  0.5354530000000  0.4590330000000 1.0
C      1  0.4747650000000  0.4749450000000  0.6054480000000 1.0
C      1  0.5162610000000  0.3783230000000  0.4630860000000 1.0
C      1  0.5752280000000  0.5414440000000  0.4281570000000 1.0
C      1  0.5058520000000  0.4077450000000  0.5796970000000 1.0
C      1  0.5529820000000  0.4097480000000  0.4851580000000 1.0
C      1  0.5306380000000  0.5014330000000  0.6026710000000 1.0
C      1  0.4775950000000  0.4476870000000  0.4688700000000 1.0
C      1  0.4485490000000  0.4962700000000  0.4305760000000 1.0
C      1  0.4759180000000  0.5372900000000  0.5294620000000 1.0
C      1  0.3724920000000  0.5839020000000  0.4520920000000 1.0
C      1  0.4830470000000  0.4488810000000  0.6051650000000 1.0
C      1  0.5418930000000  0.5486960000000  0.5528120000000 1.0
C      1  0.4905610000000  0.5495610000000  0.5800270000000 1.0
C      1  0.4580830000000  0.4458530000000  0.4292370000000 1.0
C      1  0.4823860000000  0.6041790000000  0.5093110000000 1.0
C      1  0.4551650000000  0.4760710000000  0.4953450000000 1.0
C      1  0.5388520000000  0.3879500000000  0.4735720000000 1.0
C      1  0.4306340000000  0.5179870000000  0.4364470000000 1.0
C      1  0.5873400000000  0.4456750000000  0.4687660000000 1.0
C      1  0.4625300000000  0.4287130000000  0.4530330000000 1.0
C      1  0.5221290000000  0.6002180000000  0.4798760000000 1.0
C      1  0.3847980000000  0.5777200000000  0.4742170000000 1.0
C      1  0.3869260000000  0.5633440000000  0.5211730000000 1.0
C      1  0.4835870000000  0.5153620000000  0.4541680000000 1.0
C      1  0.5069380000000  0.5598700000000  0.4077620000000 1.0
C      1  0.5698830000000  0.4792030000000  0.5001460000000 1.0
C      1  0.4473370000000  0.5023620000000  0.5456310000000 1.0
C      1  0.5959870000000  0.5197140000000  0.4832800000000 1.0
C      1  0.5487430000000  0.4121990000000  0.5131990000000 1.0
C      1  0.5291350000000  0.5433960000000  0.4107450000000 1.0
C      1  0.5067430000000  0.4585920000000  0.5104280000000 1.0
C      1  0.4522860000000  0.4505110000000  0.5097660000000 1.0
C      1  0.5090630000000  0.4638830000000  0.5576380000000 1.0
C      1  0.4458830000000  0.4703060000000  0.4418620000000 1.0
C      1  0.4700730000000  0.5685230000000  0.5716210000000 1.0
C      1  0.5953450000000  0.5567140000000  0.4384930000000 1.0
C      1  0.4677250000000  0.3855660000000  0.4669170000000 1.0
C      1  0.4806460000000  0.5257070000000  0.5936720000000 1.0
C      1  0.5123590000000  0.5262830000000  0.4882110000000 1.0
C      1  0.5542580000000  0.5468840000000  0.5025740000000 1.0
C      1  0.5650740000000  0.4281210000000  0.4660100000000 1.0
C      1  0.5303790000000  0.4965140000000  0.5324750000000 1.0
C      1  0.4934980000000  0.4021000000000  0.4279850000000 1.0
C      1  0.5351990000000  0.5414240000000  0.4814080000000 1.0
C      1  0.4454830000000  0.4054350000000  0.5223240000000 1.0
C      1  0.5534290000000  0.4844630000000  0.6015010000000 1.0
C      1  0.4282330000000  0.5693700000000  0.4971230000000 1.0
C      1  0.5801640000000  0.5209120000000  0.4091350000000 1.0
C      1  0.4639360000000  0.5937780000000  0.5280140000000 1.0
C      1  0.5087740000000  0.5951380000000  0.5039050000000 1.0
C      1  0.4581500000000  0.4184690000000  0.5431320000000 1.0
C      1  0.5613800000000  0.5125450000000  0.3914170000000 1.0
C      1  0.4569610000000  0.5773240000000  0.4585780000000 1.0
C      1  0.5803760000000  0.5373010000000  0.4967640000000 1.0
C      1  0.5328450000000  0.5846460000000  0.4609010000000 1.0
C      1  0.4291660000000  0.5537460000000  0.5944240000000 1.0
C      1  0.4682730000000  0.5011200000000  0.5005890000000 1.0
C      1  0.4745050000000  0.5908740000000  0.5546960000000 1.0
C      1  0.5217280000000  0.4507170000000  0.5793860000000 1.0
C      1  0.5473850000000  0.5472820000000  0.4328240000000 1.0
C      1  0.4280450000000  0.5662280000000  0.5470710000000 1.0
C      1  0.5605330000000  0.5269540000000  0.5562540000000 1.0
C      1  0.5031750000000  0.4332010000000  0.5921960000000 1.0
C      1  0.4855790000000  0.4511180000000  0.4190320000000 1.0
C      1  0.4875660000000  0.5141630000000  0.4820200000000 1.0
C      1  0.6027560000000  0.4961610000000  0.4717140000000 1.0
C      1  0.3992580000000  0.5701830000000  0.4967380000000 1.0
C      1  0.5767410000000  0.4990680000000  0.5949170000000 1.0
C      1  0.4580180000000  0.4693270000000  0.4683940000000 1.0
C      1  0.4094210000000  0.5223640000000  0.4195580000000 1.0
C      1  0.5442380000000  0.4797810000000  0.4883350000000 1.0
C      1  0.5033710000000  0.4278780000000  0.4201500000000 1.0
C      1  0.5182490000000  0.5521110000000  0.5701520000000 1.0
C      1  0.5771080000000  0.5205200000000  0.5782150000000 1.0
C      1  0.4917780000000  0.3853010000000  0.4511620000000 1.0
C      1  0.4877760000000  0.5754310000000  0.4174680000000 1.0
C      1  0.5208850000000  0.4801630000000  0.4394010000000 1.0
C      1  0.5248030000000  0.4802750000000  0.5091630000000 1.0
C      1  0.4944740000000  0.4534130000000  0.5357780000000 1.0
C      1  0.5359330000000  0.4055880000000  0.5360650000000 1.0
C      1  0.5311890000000  0.4310270000000  0.4239100000000 1.0
C      1  0.5169260000000  0.5051010000000  0.5797190000000 1.0
C      1  0.4421200000000  0.5616400000000  0.5716870000000 1.0
C      1  0.5999500000000  0.4696070000000  0.4669560000000 1.0
C      1  0.4404040000000  0.5597400000000  0.4728540000000 1.0
C      1  0.5765350000000  0.4912860000000  0.5234500000000 1.0
C      1  0.5152520000000  0.4912840000000  0.5555380000000 1.0
C      1  0.5365670000000  0.5235320000000  0.3919280000000 1.0
C      1  0.5569900000000  0.5057490000000  0.5375220000000 1.0
C      1  0.5366530000000  0.4810110000000  0.4612050000000 1.0
C      1  0.4773010000000  0.5002690000000  0.4313420000000 1.0
C      1  0.4985210000000  0.4461100000000  0.4868080000000 1.0
C      1  0.5381320000000  0.5571350000000  0.4576560000000 1.0
C      1  0.4945180000000  0.5551870000000  0.5246850000000 1.0
C      1  0.4456660000000  0.4217480000000  0.4979480000000 1.0
C      1  0.4489090000000  0.4973510000000  0.5717860000000 1.0
C      1  0.4957470000000  0.4781190000000  0.4257690000000 1.0
C      1  0.4676890000000  0.4997620000000  0.5928040000000 1.0
C      1  0.5518410000000  0.4295170000000  0.4408110000000 1.0
C      1  0.4407710000000  0.5771460000000  0.5226790000000 1.0
C      1  0.4677080000000  0.4443740000000  0.5348680000000 1.0
C      1  0.4622940000000  0.5137320000000  0.5250070000000 1.0
C      1  0.4715060000000  0.5828210000000  0.4370810000000 1.0
C      1  0.4003960000000  0.5610350000000  0.5444330000000 1.0
C      1  0.5413200000000  0.5595990000000  0.5255650000000 1.0
C      1  0.5461290000000  0.4588450000000  0.5915320000000 1.0
C      1  0.5162290000000  0.5719910000000  0.5190120000000 1.0
END
