TITL C-247198-3593-469 -12.5803909820791 125000 -172.637722603782 0 0 30 (C1) n - 1
REM
REM in /home/nfs/bkarasulu/CARBON/AIRSS/Generating-Clusters/LCBOP/Only-C1/SD-CG/FIRE-HFTN
REM
REM
REM
REM
REM
REM ./C.cell (11c1c37f851c82e70ff6c80c92926a4b)
REM AIRSS Version 0.9.1 bugfix July 2018 build 013d7b7c2542+ Fri, 06 Jul 2018 19:26:36 +0100
REM compiler GCC version 9.2.1 20190827 (Red Hat 9.2.1-1)
REM options -cpp -mtune=generic -march=x86-64 -g -O0 -fpre-include=/usr/include/finclude/math-vector-fortran.h
REM seed -768782673 -640521032 1365123363 1323113703 -397294798 953699864 -1777093112 -684490226 1795356477 -1254761319 -1013796145 -2099858740 -326358942 1960317267 1973451795 1995190271 352514058 17332998 -285037267 1953199451 1158524368 1454845295 1774629405 -1585074412 1794157510 -1337238918 661975731 -926548058 1928038709 -2138924983 1915672677 -141620858 677962338
REM
CELL 1.54180   50.00000   50.00000   50.00000   90.00000   90.00000   90.00000
LATT -1
SFAC C  
C      1  0.5244260000000  0.4865760000000  0.4571120000000 1.0
C      1  0.5754730000000  0.4759550000000  0.5679020000000 1.0
C      1  0.5026490000000  0.4977920000000  0.4977910000000 1.0
C      1  0.5077850000000  0.5752700000000  0.4718940000000 1.0
C      1  0.5245460000000  0.4836680000000  0.4859300000000 1.0
C      1  0.4958110000000  0.5435550000000  0.5082610000000 1.0
C      1  0.5430690000000  0.4692040000000  0.4996500000000 1.0
C      1  0.4612440000000  0.4560000000000  0.5145110000000 1.0
C      1  0.5079270000000  0.5185980000000  0.5167400000000 1.0
C      1  0.4521190000000  0.5299600000000  0.5284680000000 1.0
C      1  0.5142350000000  0.4639190000000  0.4434580000000 1.0
C      1  0.5220980000000  0.5155130000000  0.5403270000000 1.0
C      1  0.4525440000000  0.4801560000000  0.4466610000000 1.0
C      1  0.4596900000000  0.4973010000000  0.4660960000000 1.0
C      1  0.4903380000000  0.4492880000000  0.4481580000000 1.0
C      1  0.5197110000000  0.5138980000000  0.4480460000000 1.0
C      1  0.5176720000000  0.5379040000000  0.6085990000000 1.0
C      1  0.4992250000000  0.5271330000000  0.4635270000000 1.0
C      1  0.4506610000000  0.4779150000000  0.5255390000000 1.0
C      1  0.4833210000000  0.5066700000000  0.4773950000000 1.0
C      1  0.4864340000000  0.4367080000000  0.4732170000000 1.0
C      1  0.4463240000000  0.5038690000000  0.5302380000000 1.0
C      1  0.4745490000000  0.4409420000000  0.4968820000000 1.0
C      1  0.5013770000000  0.5502700000000  0.4805310000000 1.0
C      1  0.4705110000000  0.5478190000000  0.5201430000000 1.0
C      1  0.5558390000000  0.4930500000000  0.5666980000000 1.0
C      1  0.4666020000000  0.4594760000000  0.4364320000000 1.0
C      1  0.5346670000000  0.5111800000000  0.5648670000000 1.0
C      1  0.5331200000000  0.5254570000000  0.4273430000000 1.0
C      1  0.5260350000000  0.5249530000000  0.5875850000000 1.0
END
