TITL C-247197-3123-178 -1.00491353181703e-06 125000 -572.619986583575 0 0 95 (C1) n - 1
REM
REM in /home/nfs/bkarasulu/CARBON/AIRSS/Generating-Clusters/LCBOP/Only-C1/SD-CG/FIRE-HFTN
REM
REM
REM
REM
REM
REM ./C.cell (11c1c37f851c82e70ff6c80c92926a4b)
REM AIRSS Version 0.9.1 bugfix July 2018 build 013d7b7c2542+ Fri, 06 Jul 2018 19:26:36 +0100
REM compiler GCC version 9.2.1 20190827 (Red Hat 9.2.1-1)
REM options -cpp -mtune=generic -march=x86-64 -g -O0 -fpre-include=/usr/include/finclude/math-vector-fortran.h
REM seed 1094037646 608824506 -2088780066 -315137762 -13045621 -625203482 -1348064170 -164161653 1240132912 1374331568 578739823 -461053985 1455519748 1780842452 1678331527 -1971620223 -511725446 1251570986 673140083 -1908669962 2129925524 2101302813 -53165794 -1659922824 -1443637912 2121851582 -913906794 353183689 1142241941 827741415 -1864554743 -1624220802 -1585004024
REM
CELL 1.54180   50.00000   50.00000   50.00000   90.00000   90.00000   90.00000
LATT -1
SFAC C  
C      1  0.4808240000000  0.4572070000000  0.5588390000000 1.0
C      1  0.5592870000000  0.4822050000000  0.5366250000000 1.0
C      1  0.4715320000000  0.5974910000000  0.4642210000000 1.0
C      1  0.3817430000000  0.4694430000000  0.5142300000000 1.0
C      1  0.5545280000000  0.5702160000000  0.4402170000000 1.0
C      1  0.4177580000000  0.5039730000000  0.5131570000000 1.0
C      1  0.4244720000000  0.5137240000000  0.5403510000000 1.0
C      1  0.6348240000000  0.5141600000000  0.5765490000000 1.0
C      1  0.4864720000000  0.5352240000000  0.5754300000000 1.0
C      1  0.5260260000000  0.4808570000000  0.4887930000000 1.0
C      1  0.5456190000000  0.5427400000000  0.4392400000000 1.0
C      1  0.5596350000000  0.4722960000000  0.5638070000000 1.0
C      1  0.5477980000000  0.4454260000000  0.4718900000000 1.0
C      1  0.5855240000000  0.5268130000000  0.5583000000000 1.0
C      1  0.4681150000000  0.4945090000000  0.4768690000000 1.0
C      1  0.4946100000000  0.4209190000000  0.4491310000000 1.0
C      1  0.5049350000000  0.5157140000000  0.5658630000000 1.0
C      1  0.4236290000000  0.4607320000000  0.4898480000000 1.0
C      1  0.4868520000000  0.4667110000000  0.5331040000000 1.0
C      1  0.5021930000000  0.5457830000000  0.4884960000000 1.0
C      1  0.4243490000000  0.4410820000000  0.5516140000000 1.0
C      1  0.5374610000000  0.4619590000000  0.4497400000000 1.0
C      1  0.4989230000000  0.5587680000000  0.5846970000000 1.0
C      1  0.4882740000000  0.5755350000000  0.6033180000000 1.0
C      1  0.5555910000000  0.5255600000000  0.4603560000000 1.0
C      1  0.5021820000000  0.4601880000000  0.4112920000000 1.0
C      1  0.5080220000000  0.5833940000000  0.4280750000000 1.0
C      1  0.5242730000000  0.5161340000000  0.5455790000000 1.0
C      1  0.4338570000000  0.5028130000000  0.4452910000000 1.0
C      1  0.4270920000000  0.5232840000000  0.4942750000000 1.0
C      1  0.5123830000000  0.5003000000000  0.5030860000000 1.0
C      1  0.5017260000000  0.4380980000000  0.4272140000000 1.0
C      1  0.5665920000000  0.5016510000000  0.4499530000000 1.0
C      1  0.5476190000000  0.5074200000000  0.5319070000000 1.0
C      1  0.4668670000000  0.4132840000000  0.4500470000000 1.0
C      1  0.4303630000000  0.5493920000000  0.5085000000000 1.0
C      1  0.5622550000000  0.5256880000000  0.5149680000000 1.0
C      1  0.5489730000000  0.5289950000000  0.4889180000000 1.0
C      1  0.5226940000000  0.5788120000000  0.5487260000000 1.0
C      1  0.4864670000000  0.5907350000000  0.5116570000000 1.0
C      1  0.5204170000000  0.5263290000000  0.4947170000000 1.0
C      1  0.5004480000000  0.3963220000000  0.4937750000000 1.0
C      1  0.4611210000000  0.5235940000000  0.5805490000000 1.0
C      1  0.4682390000000  0.5813780000000  0.4895670000000 1.0
C      1  0.5284310000000  0.4885380000000  0.5957710000000 1.0
C      1  0.5037170000000  0.4922060000000  0.5824960000000 1.0
C      1  0.4234170000000  0.4673020000000  0.5419980000000 1.0
C      1  0.5246010000000  0.5632390000000  0.5723740000000 1.0
C      1  0.5570770000000  0.4790440000000  0.4386020000000 1.0
C      1  0.4640560000000  0.4907210000000  0.4082410000000 1.0
C      1  0.4527280000000  0.3642450000000  0.4324550000000 1.0
C      1  0.4773890000000  0.5543050000000  0.4798590000000 1.0
C      1  0.5248210000000  0.5358720000000  0.4185710000000 1.0
C      1  0.5146610000000  0.4762490000000  0.4628110000000 1.0
C      1  0.4858370000000  0.5946460000000  0.4414060000000 1.0
C      1  0.5625630000000  0.5218600000000  0.5759930000000 1.0
C      1  0.5585200000000  0.4609400000000  0.5181150000000 1.0
C      1  0.4330920000000  0.4549380000000  0.4638270000000 1.0
C      1  0.4609820000000  0.5392490000000  0.4626910000000 1.0
C      1  0.5362890000000  0.4220070000000  0.4821880000000 1.0
C      1  0.4551290000000  0.4959530000000  0.5745350000000 1.0
C      1  0.5065460000000  0.5882690000000  0.5293620000000 1.0
C      1  0.4709380000000  0.5298280000000  0.4377550000000 1.0
C      1  0.4787610000000  0.4784380000000  0.5777190000000 1.0
C      1  0.5107000000000  0.4118400000000  0.4712410000000 1.0
C      1  0.5087480000000  0.5594350000000  0.4123380000000 1.0
C      1  0.5808080000000  0.5769550000000  0.4430870000000 1.0
C      1  0.4940110000000  0.5138540000000  0.4419010000000 1.0
C      1  0.6111580000000  0.5206780000000  0.5678040000000 1.0
C      1  0.5094250000000  0.5104870000000  0.4179650000000 1.0
C      1  0.5492070000000  0.4653560000000  0.4928450000000 1.0
C      1  0.4283860000000  0.5418480000000  0.5366050000000 1.0
C      1  0.4929810000000  0.4891470000000  0.5198410000000 1.0
C      1  0.4116360000000  0.4743260000000  0.5136260000000 1.0
C      1  0.4914540000000  0.4920360000000  0.4597130000000 1.0
C      1  0.4476360000000  0.4311880000000  0.4597860000000 1.0
C      1  0.5382480000000  0.4173030000000  0.5125140000000 1.0
C      1  0.5536270000000  0.4934580000000  0.5826730000000 1.0
C      1  0.5827040000000  0.5375960000000  0.5311200000000 1.0
C      1  0.5983170000000  0.5581230000000  0.5220690000000 1.0
C      1  0.4938650000000  0.4874180000000  0.4060690000000 1.0
C      1  0.5458610000000  0.5453090000000  0.5796310000000 1.0
C      1  0.5340700000000  0.5895720000000  0.4375300000000 1.0
C      1  0.4439350000000  0.4250200000000  0.5605220000000 1.0
C      1  0.5513230000000  0.4356230000000  0.5307200000000 1.0
C      1  0.4519420000000  0.5135500000000  0.4232870000000 1.0
C      1  0.4327420000000  0.4736000000000  0.4422000000000 1.0
C      1  0.5157280000000  0.3994210000000  0.5167360000000 1.0
C      1  0.4697600000000  0.4319540000000  0.5636100000000 1.0
C      1  0.4470160000000  0.4684980000000  0.4170370000000 1.0
C      1  0.4335250000000  0.4913720000000  0.5559990000000 1.0
C      1  0.4447060000000  0.5149900000000  0.4721200000000 1.0
C      1  0.4407740000000  0.5741120000000  0.4996310000000 1.0
C      1  0.4592550000000  0.3880500000000  0.4408110000000 1.0
C      1  0.5543330000000  0.4431760000000  0.5594230000000 1.0
END
