TITL C-247196-3112-663 2.01123192955703e-06 125000 -1052.44727746556 0 0 170 (C1) n - 1
REM
REM in /home/nfs/bkarasulu/CARBON/AIRSS/Generating-Clusters/LCBOP/Only-C1/SD-CG/FIRE-HFTN
REM
REM
REM
REM
REM
REM ./C.cell (11c1c37f851c82e70ff6c80c92926a4b)
REM AIRSS Version 0.9.1 bugfix July 2018 build 013d7b7c2542+ Fri, 06 Jul 2018 19:26:36 +0100
REM compiler GCC version 9.2.1 20190827 (Red Hat 9.2.1-1)
REM options -cpp -mtune=generic -march=x86-64 -g -O0 -fpre-include=/usr/include/finclude/math-vector-fortran.h
REM seed 2053859430 -1206387122 -1357401388 879484535 -848828806 848560038 1017096177 -2129155338 -2078162583 -11860585 -740822324 -2111988220 1773277595 189590781 221578066 -998029753 1550304678 -1912372875 -528818333 -57226168 -1833396568 -1630501707 -229478320 -918449551 213574086 312080231 1526076077 -1291432835 761402207 -1416008999 1769996020 360971825 -1765968933
REM
CELL 1.54180   50.00000   50.00000   50.00000   90.00000   90.00000   90.00000
LATT -1
SFAC C  
C      1  0.6002740000000  0.4291060000000  0.4684580000000 1.0
C      1  0.4924950000000  0.5128430000000  0.5433790000000 1.0
C      1  0.5202570000000  0.3996470000000  0.4641380000000 1.0
C      1  0.5300290000000  0.4783430000000  0.3790980000000 1.0
C      1  0.4189960000000  0.5378890000000  0.4132670000000 1.0
C      1  0.3949460000000  0.5154040000000  0.5267470000000 1.0
C      1  0.5241040000000  0.6161450000000  0.5084440000000 1.0
C      1  0.4683140000000  0.4524650000000  0.5740960000000 1.0
C      1  0.4448080000000  0.4300190000000  0.4335200000000 1.0
C      1  0.5026390000000  0.5415470000000  0.4485970000000 1.0
C      1  0.5045120000000  0.3757800000000  0.5205040000000 1.0
C      1  0.4656860000000  0.4893900000000  0.4798700000000 1.0
C      1  0.5125830000000  0.5079830000000  0.5906630000000 1.0
C      1  0.5452900000000  0.5751180000000  0.4867220000000 1.0
C      1  0.5513890000000  0.4470570000000  0.4853080000000 1.0
C      1  0.4703750000000  0.4758200000000  0.5900410000000 1.0
C      1  0.5605660000000  0.5519250000000  0.4116050000000 1.0
C      1  0.5558760000000  0.4878230000000  0.5798210000000 1.0
C      1  0.4675980000000  0.4617830000000  0.4867960000000 1.0
C      1  0.4489660000000  0.4908590000000  0.5425190000000 1.0
C      1  0.4767310000000  0.5970070000000  0.4861270000000 1.0
C      1  0.5633940000000  0.5713520000000  0.5540530000000 1.0
C      1  0.4853710000000  0.5417770000000  0.5376800000000 1.0
C      1  0.5038840000000  0.4971110000000  0.4198870000000 1.0
C      1  0.4153560000000  0.4659550000000  0.4347870000000 1.0
C      1  0.5001280000000  0.4715630000000  0.4323770000000 1.0
C      1  0.5227650000000  0.4101940000000  0.5596430000000 1.0
C      1  0.5504180000000  0.4611060000000  0.3840340000000 1.0
C      1  0.4772400000000  0.4875350000000  0.5454650000000 1.0
C      1  0.4880580000000  0.6077800000000  0.4399000000000 1.0
C      1  0.3856470000000  0.5273960000000  0.4786620000000 1.0
C      1  0.4591700000000  0.4455140000000  0.5097970000000 1.0
C      1  0.5584310000000  0.5237760000000  0.4785190000000 1.0
C      1  0.5619420000000  0.4859170000000  0.4219410000000 1.0
C      1  0.3983440000000  0.5278600000000  0.4310450000000 1.0
C      1  0.5463240000000  0.5943100000000  0.5462960000000 1.0
C      1  0.5936290000000  0.5004200000000  0.4489410000000 1.0
C      1  0.4849970000000  0.4374610000000  0.5254920000000 1.0
C      1  0.6237790000000  0.4454620000000  0.5442610000000 1.0
C      1  0.5166710000000  0.4569510000000  0.5866130000000 1.0
C      1  0.4365230000000  0.5827480000000  0.5731260000000 1.0
C      1  0.4117590000000  0.5724590000000  0.5709250000000 1.0
C      1  0.5247230000000  0.4933260000000  0.5025880000000 1.0
C      1  0.4366900000000  0.5801900000000  0.4641290000000 1.0
C      1  0.5410810000000  0.4763310000000  0.5179930000000 1.0
C      1  0.5074710000000  0.5061130000000  0.5199860000000 1.0
C      1  0.5496590000000  0.6121710000000  0.5231590000000 1.0
C      1  0.5089770000000  0.3744360000000  0.4708330000000 1.0
C      1  0.4807140000000  0.5332320000000  0.4910570000000 1.0
C      1  0.5512560000000  0.5490860000000  0.5677630000000 1.0
C      1  0.4007480000000  0.4918380000000  0.5439660000000 1.0
C      1  0.5447460000000  0.4338620000000  0.4397370000000 1.0
C      1  0.3883560000000  0.4703510000000  0.5265730000000 1.0
C      1  0.5477720000000  0.5728050000000  0.4225610000000 1.0
C      1  0.4920000000000  0.3764200000000  0.4938320000000 1.0
C      1  0.6100680000000  0.4222410000000  0.5401650000000 1.0
C      1  0.4222500000000  0.4596490000000  0.5998470000000 1.0
C      1  0.6191480000000  0.4726970000000  0.5361460000000 1.0
C      1  0.4789650000000  0.5443860000000  0.5869890000000 1.0
C      1  0.5075170000000  0.4282280000000  0.5799730000000 1.0
C      1  0.5007310000000  0.5338330000000  0.6021070000000 1.0
C      1  0.5685370000000  0.5021160000000  0.4645010000000 1.0
C      1  0.4342210000000  0.5764100000000  0.5151240000000 1.0
C      1  0.4684450000000  0.4142010000000  0.4408020000000 1.0
C      1  0.4570650000000  0.4545640000000  0.4205180000000 1.0
C      1  0.5049350000000  0.4284360000000  0.5044770000000 1.0
C      1  0.4437110000000  0.4112440000000  0.5815040000000 1.0
C      1  0.5523730000000  0.5927810000000  0.4420060000000 1.0
C      1  0.5771920000000  0.5309460000000  0.4115910000000 1.0
C      1  0.5967910000000  0.4326970000000  0.4961830000000 1.0
C      1  0.4704170000000  0.3957480000000  0.4884020000000 1.0
C      1  0.5384030000000  0.4573050000000  0.4599910000000 1.0
C      1  0.5201780000000  0.6136790000000  0.4790070000000 1.0
C      1  0.5034860000000  0.6053680000000  0.5271800000000 1.0
C      1  0.5148940000000  0.5168780000000  0.5614270000000 1.0
C      1  0.3981810000000  0.5407970000000  0.4566310000000 1.0
C      1  0.4647370000000  0.5755770000000  0.4708010000000 1.0
C      1  0.5830190000000  0.5057650000000  0.4221780000000 1.0
C      1  0.4856600000000  0.4510620000000  0.4185850000000 1.0
C      1  0.4872140000000  0.5075520000000  0.4803910000000 1.0
C      1  0.5078650000000  0.4597860000000  0.4579090000000 1.0
C      1  0.5653660000000  0.4614410000000  0.4078270000000 1.0
C      1  0.5857150000000  0.5620030000000  0.5382770000000 1.0
C      1  0.4280010000000  0.4363920000000  0.5835540000000 1.0
C      1  0.4373780000000  0.4257630000000  0.5118000000000 1.0
C      1  0.6071910000000  0.5540680000000  0.4949440000000 1.0
C      1  0.5109120000000  0.5941010000000  0.5791600000000 1.0
C      1  0.4355280000000  0.4841860000000  0.5893840000000 1.0
C      1  0.5624570000000  0.4652420000000  0.5040150000000 1.0
C      1  0.5267070000000  0.4671690000000  0.5415220000000 1.0
C      1  0.4365150000000  0.4017290000000  0.5546060000000 1.0
C      1  0.5436010000000  0.5092790000000  0.5960170000000 1.0
C      1  0.5371820000000  0.5942490000000  0.4664800000000 1.0
C      1  0.5418700000000  0.5379910000000  0.5212160000000 1.0
C      1  0.5515040000000  0.4830800000000  0.4497270000000 1.0
C      1  0.5246980000000  0.5525380000000  0.4987100000000 1.0
C      1  0.6232160000000  0.4792180000000  0.4806810000000 1.0
C      1  0.5823720000000  0.4897920000000  0.5703310000000 1.0
C      1  0.5898720000000  0.5444190000000  0.5155680000000 1.0
C      1  0.4211090000000  0.4198430000000  0.5359970000000 1.0
C      1  0.5728360000000  0.6077490000000  0.5083550000000 1.0
C      1  0.4425350000000  0.4502820000000  0.5616690000000 1.0
C      1  0.4474730000000  0.5436760000000  0.4138840000000 1.0
C      1  0.4576980000000  0.3942260000000  0.5365940000000 1.0
C      1  0.5963150000000  0.5754990000000  0.4803160000000 1.0
C      1  0.4258740000000  0.4754440000000  0.4983740000000 1.0
C      1  0.5491510000000  0.4208110000000  0.4971950000000 1.0
C      1  0.3845630000000  0.5085480000000  0.5000600000000 1.0
C      1  0.4917030000000  0.5211060000000  0.4302790000000 1.0
C      1  0.4174100000000  0.5610350000000  0.4579840000000 1.0
C      1  0.6041540000000  0.4879570000000  0.5547860000000 1.0
C      1  0.4960390000000  0.4635840000000  0.5390970000000 1.0
C      1  0.5047820000000  0.3948290000000  0.5425050000000 1.0
C      1  0.5211230000000  0.4157010000000  0.4395310000000 1.0
C      1  0.3857030000000  0.5026240000000  0.4322490000000 1.0
C      1  0.5898890000000  0.4601540000000  0.5039840000000 1.0
C      1  0.4947630000000  0.5487770000000  0.5103650000000 1.0
C      1  0.6003010000000  0.5887780000000  0.4559030000000 1.0
C      1  0.4505980000000  0.3991880000000  0.5082290000000 1.0
C      1  0.5151000000000  0.4953330000000  0.3938700000000 1.0
C      1  0.4936470000000  0.6126070000000  0.4685650000000 1.0
C      1  0.3822600000000  0.4789080000000  0.4978200000000 1.0
C      1  0.4748240000000  0.4171330000000  0.4687070000000 1.0
C      1  0.4811090000000  0.4103680000000  0.5399600000000 1.0
C      1  0.4393890000000  0.4880240000000  0.5166170000000 1.0
C      1  0.3868370000000  0.4655060000000  0.4723160000000 1.0
C      1  0.4585170000000  0.5774190000000  0.5564250000000 1.0
C      1  0.5274150000000  0.5313320000000  0.4723100000000 1.0
C      1  0.4350030000000  0.5287100000000  0.4888120000000 1.0
C      1  0.5913000000000  0.4167710000000  0.5195610000000 1.0
C      1  0.3926170000000  0.4792170000000  0.4462560000000 1.0
C      1  0.5230750000000  0.5523450000000  0.6063480000000 1.0
C      1  0.4074680000000  0.5399560000000  0.5304250000000 1.0
C      1  0.5951210000000  0.4489630000000  0.4478960000000 1.0
C      1  0.5233550000000  0.4136560000000  0.4897760000000 1.0
C      1  0.4004850000000  0.4389340000000  0.4679470000000 1.0
C      1  0.4405290000000  0.4777110000000  0.4275930000000 1.0
C      1  0.5485190000000  0.4129520000000  0.5470630000000 1.0
C      1  0.4440030000000  0.5066210000000  0.4693940000000 1.0
C      1  0.4247100000000  0.6025230000000  0.4772120000000 1.0
C      1  0.5627690000000  0.4135730000000  0.5220740000000 1.0
C      1  0.5661380000000  0.5310080000000  0.5061050000000 1.0
C      1  0.5723050000000  0.5841990000000  0.4930520000000 1.0
C      1  0.4192700000000  0.5975790000000  0.5033300000000 1.0
C      1  0.5798060000000  0.6009400000000  0.4427550000000 1.0
C      1  0.5174330000000  0.5970470000000  0.5520030000000 1.0
C      1  0.4786290000000  0.5976120000000  0.5149980000000 1.0
C      1  0.4265870000000  0.4920820000000  0.5616050000000 1.0
C      1  0.4844080000000  0.5636750000000  0.4520050000000 1.0
C      1  0.4772710000000  0.4262970000000  0.5821010000000 1.0
C      1  0.5716630000000  0.4421580000000  0.4289140000000 1.0
C      1  0.4857250000000  0.4453470000000  0.4716000000000 1.0
C      1  0.6134290000000  0.4758290000000  0.5077420000000 1.0
C      1  0.5370960000000  0.4679950000000  0.5686840000000 1.0
C      1  0.5175240000000  0.5795140000000  0.6008560000000 1.0
C      1  0.4803900000000  0.5817270000000  0.4286870000000 1.0
C      1  0.5470520000000  0.5394680000000  0.5947760000000 1.0
C      1  0.6077750000000  0.4761150000000  0.4556850000000 1.0
C      1  0.5155060000000  0.5039110000000  0.4775740000000 1.0
C      1  0.4940270000000  0.4232570000000  0.4267530000000 1.0
C      1  0.4987300000000  0.4807120000000  0.5946760000000 1.0
C      1  0.5362730000000  0.5330090000000  0.5491440000000 1.0
C      1  0.4468560000000  0.5028420000000  0.4400860000000 1.0
C      1  0.4626930000000  0.5224280000000  0.4262920000000 1.0
C      1  0.4192200000000  0.4382170000000  0.4453860000000 1.0
C      1  0.4013590000000  0.5555810000000  0.5529280000000 1.0
C      1  0.4270370000000  0.5483270000000  0.5108090000000 1.0
C      1  0.4572540000000  0.5854270000000  0.5293570000000 1.0
C      1  0.4746730000000  0.5548680000000  0.5609120000000 1.0
C      1  0.4612560000000  0.5690820000000  0.4112890000000 1.0
END
