TITL C-247202-1916-553 7.43461775400877e-07 125000 -410.735587470655 0 0 67 (C1) n - 1
REM
REM in /home/nfs/bkarasulu/CARBON/AIRSS/Generating-Clusters/LCBOP/Only-C1/SD-CG/FIRE-HFTN
REM
REM
REM
REM
REM
REM ./C.cell (11c1c37f851c82e70ff6c80c92926a4b)
REM AIRSS Version 0.9.1 bugfix July 2018 build 013d7b7c2542+ Fri, 06 Jul 2018 19:26:36 +0100
REM compiler GCC version 9.2.1 20190827 (Red Hat 9.2.1-1)
REM options -cpp -mtune=generic -march=x86-64 -g -O0 -fpre-include=/usr/include/finclude/math-vector-fortran.h
REM seed -770246470 1296603145 2012499631 -230492333 1604639272 2069654039 -877958149 872499823 1529057768 679720741 -1493264140 705975764 159372516 -1183849027 286648740 -1842329063 902656965 2101368478 1584944386 -837363220 -509031959 790583259 -2094624773 -229834163 2066585077 1495700632 177976259 1367599981 1303766411 6774385 -1079280018 1784781201 -2115727929
REM
CELL 1.54180   50.00000   50.00000   50.00000   90.00000   90.00000   90.00000
LATT -1
SFAC C  
C      1  0.5883890000000  0.4903670000000  0.4961070000000 1.0
C      1  0.4873240000000  0.5014200000000  0.5758400000000 1.0
C      1  0.5126070000000  0.4749370000000  0.5171340000000 1.0
C      1  0.4656620000000  0.5198920000000  0.5307010000000 1.0
C      1  0.5300510000000  0.5212150000000  0.5661910000000 1.0
C      1  0.4654630000000  0.5036450000000  0.5938300000000 1.0
C      1  0.4853920000000  0.5179020000000  0.5510730000000 1.0
C      1  0.5529900000000  0.5464540000000  0.4608870000000 1.0
C      1  0.5721230000000  0.3786170000000  0.4560680000000 1.0
C      1  0.5567180000000  0.5207250000000  0.5588320000000 1.0
C      1  0.4197860000000  0.5572960000000  0.4663100000000 1.0
C      1  0.5043810000000  0.4263120000000  0.4716250000000 1.0
C      1  0.5331360000000  0.5541170000000  0.4796620000000 1.0
C      1  0.5690530000000  0.5241790000000  0.4666200000000 1.0
C      1  0.5701060000000  0.3537020000000  0.4486660000000 1.0
C      1  0.4587690000000  0.5314070000000  0.5990240000000 1.0
C      1  0.4266640000000  0.5095670000000  0.4667540000000 1.0
C      1  0.4715940000000  0.4493960000000  0.4999800000000 1.0
C      1  0.4204900000000  0.5041030000000  0.5797070000000 1.0
C      1  0.4931350000000  0.4566290000000  0.5169720000000 1.0
C      1  0.5360800000000  0.5703750000000  0.5024400000000 1.0
C      1  0.4290020000000  0.5258890000000  0.5627660000000 1.0
C      1  0.4455600000000  0.5451300000000  0.5772480000000 1.0
C      1  0.5318330000000  0.4849310000000  0.4463540000000 1.0
C      1  0.4454830000000  0.4531920000000  0.5107190000000 1.0
C      1  0.4917730000000  0.5333740000000  0.3956220000000 1.0
C      1  0.5260550000000  0.4406430000000  0.4593250000000 1.0
C      1  0.5872210000000  0.5054550000000  0.5195900000000 1.0
C      1  0.5155570000000  0.5017900000000  0.5821010000000 1.0
C      1  0.4399640000000  0.4437810000000  0.5619210000000 1.0
C      1  0.5092770000000  0.5349960000000  0.5513290000000 1.0
C      1  0.4635490000000  0.4962490000000  0.4182620000000 1.0
C      1  0.4839290000000  0.4626840000000  0.4524690000000 1.0
C      1  0.4381730000000  0.5164480000000  0.5373410000000 1.0
C      1  0.4358280000000  0.5357580000000  0.4713240000000 1.0
C      1  0.5121200000000  0.4643270000000  0.4470390000000 1.0
C      1  0.5720820000000  0.4971230000000  0.4736320000000 1.0
C      1  0.4418960000000  0.4604420000000  0.5827380000000 1.0
C      1  0.5532520000000  0.4483680000000  0.4647280000000 1.0
C      1  0.5144440000000  0.5470010000000  0.3984250000000 1.0
C      1  0.4835740000000  0.5516660000000  0.4672070000000 1.0
C      1  0.5357910000000  0.5550030000000  0.4121470000000 1.0
C      1  0.5238920000000  0.5737530000000  0.5261290000000 1.0
C      1  0.5743180000000  0.4307180000000  0.4712540000000 1.0
C      1  0.5017460000000  0.5204600000000  0.4968560000000 1.0
C      1  0.5739490000000  0.4039620000000  0.4635640000000 1.0
C      1  0.4663600000000  0.4773110000000  0.4367720000000 1.0
C      1  0.6016900000000  0.4656870000000  0.4954590000000 1.0
C      1  0.4799840000000  0.4427590000000  0.4736940000000 1.0
C      1  0.5762840000000  0.5153940000000  0.5416600000000 1.0
C      1  0.4588070000000  0.5671200000000  0.5656090000000 1.0
C      1  0.4736560000000  0.5241890000000  0.5039930000000 1.0
C      1  0.4250850000000  0.4955250000000  0.5238950000000 1.0
C      1  0.5560590000000  0.4775880000000  0.4607060000000 1.0
C      1  0.5082050000000  0.5410240000000  0.4778610000000 1.0
C      1  0.4731870000000  0.5159110000000  0.4031620000000 1.0
C      1  0.5503300000000  0.5554000000000  0.4344520000000 1.0
C      1  0.4250570000000  0.4852130000000  0.4777880000000 1.0
C      1  0.4821880000000  0.5741110000000  0.5541430000000 1.0
C      1  0.4810710000000  0.5709930000000  0.4483180000000 1.0
C      1  0.5165740000000  0.4991990000000  0.5067220000000 1.0
C      1  0.5958050000000  0.4414780000000  0.4857480000000 1.0
C      1  0.4299410000000  0.4761360000000  0.5038590000000 1.0
C      1  0.4396980000000  0.4406810000000  0.5353730000000 1.0
C      1  0.5062020000000  0.5623990000000  0.5447300000000 1.0
C      1  0.4618240000000  0.5389760000000  0.4818320000000 1.0
C      1  0.4418130000000  0.4875090000000  0.5897120000000 1.0
END
