TITL C-247202-1916-579 0.0436494485047104 125000 -329.591818360493 0 0 55 (C1) n - 1
REM
REM in /home/nfs/bkarasulu/CARBON/AIRSS/Generating-Clusters/LCBOP/Only-C1/SD-CG/FIRE-HFTN
REM
REM
REM
REM
REM
REM ./C.cell (11c1c37f851c82e70ff6c80c92926a4b)
REM AIRSS Version 0.9.1 bugfix July 2018 build 013d7b7c2542+ Fri, 06 Jul 2018 19:26:36 +0100
REM compiler GCC version 9.2.1 20190827 (Red Hat 9.2.1-1)
REM options -cpp -mtune=generic -march=x86-64 -g -O0 -fpre-include=/usr/include/finclude/math-vector-fortran.h
REM seed -602440431 -291449010 615679928 -188946736 -1333785004 267484038 486837478 1597322732 653259073 -1506776021 363243892 -1930615346 197021995 1499522603 1460020099 902291357 1151579016 1001036966 -2101608376 -531290740 967432632 -1729128110 -964209958 -1145333050 -1494788386 504968773 -199472069 1203130855 -584439466 627092837 -320604446 2134283210 1901850183
REM
CELL 1.54180   50.00000   50.00000   50.00000   90.00000   90.00000   90.00000
LATT -1
SFAC C  
C      1  0.5334390000000  0.5561760000000  0.4667140000000 1.0
C      1  0.5239060000000  0.5261170000000  0.4123150000000 1.0
C      1  0.5333560000000  0.4978740000000  0.6283800000000 1.0
C      1  0.5491210000000  0.4660780000000  0.5107640000000 1.0
C      1  0.4871550000000  0.5674200000000  0.4577370000000 1.0
C      1  0.5175780000000  0.5507260000000  0.4212310000000 1.0
C      1  0.4645740000000  0.5285460000000  0.5065650000000 1.0
C      1  0.4501200000000  0.4705320000000  0.5640550000000 1.0
C      1  0.4764680000000  0.4660160000000  0.4154850000000 1.0
C      1  0.5714960000000  0.4724250000000  0.4933380000000 1.0
C      1  0.5242860000000  0.4562920000000  0.5018660000000 1.0
C      1  0.5380500000000  0.5289600000000  0.4706240000000 1.0
C      1  0.5131250000000  0.5616480000000  0.4467970000000 1.0
C      1  0.5044080000000  0.5081170000000  0.5621940000000 1.0
C      1  0.4379300000000  0.4863750000000  0.4699360000000 1.0
C      1  0.4430560000000  0.5541430000000  0.4722110000000 1.0
C      1  0.5360740000000  0.5719810000000  0.4903890000000 1.0
C      1  0.4631740000000  0.5511730000000  0.4517600000000 1.0
C      1  0.5189550000000  0.4854660000000  0.5758020000000 1.0
C      1  0.4532520000000  0.5531920000000  0.4986900000000 1.0
C      1  0.4609180000000  0.4196930000000  0.4921710000000 1.0
C      1  0.4599650000000  0.5257590000000  0.4387650000000 1.0
C      1  0.5251930000000  0.5014430000000  0.4230130000000 1.0
C      1  0.4732240000000  0.4656220000000  0.5762890000000 1.0
C      1  0.4674320000000  0.5156960000000  0.4136180000000 1.0
C      1  0.4302700000000  0.4736640000000  0.5163020000000 1.0
C      1  0.5197630000000  0.5083300000000  0.4709050000000 1.0
C      1  0.5428270000000  0.4823380000000  0.5578930000000 1.0
C      1  0.5267260000000  0.4921860000000  0.6033770000000 1.0
C      1  0.5042790000000  0.4689690000000  0.4862530000000 1.0
C      1  0.5022200000000  0.4982460000000  0.4917170000000 1.0
C      1  0.4369940000000  0.4668760000000  0.4899370000000 1.0
C      1  0.4462800000000  0.4408220000000  0.4853150000000 1.0
C      1  0.5509960000000  0.5601240000000  0.5113350000000 1.0
C      1  0.4882750000000  0.4553230000000  0.4372440000000 1.0
C      1  0.5606760000000  0.5373190000000  0.5219230000000 1.0
C      1  0.4784380000000  0.4069310000000  0.5075920000000 1.0
C      1  0.5398450000000  0.5034260000000  0.6530110000000 1.0
C      1  0.5102270000000  0.4361660000000  0.5666140000000 1.0
C      1  0.4877350000000  0.5130380000000  0.5112440000000 1.0
C      1  0.5666730000000  0.5099300000000  0.5210290000000 1.0
C      1  0.5515560000000  0.4868110000000  0.5318260000000 1.0
C      1  0.4708320000000  0.4902560000000  0.4052530000000 1.0
C      1  0.4350330000000  0.4740800000000  0.5424520000000 1.0
C      1  0.5815300000000  0.4976230000000  0.4991390000000 1.0
C      1  0.4973710000000  0.5147810000000  0.5374790000000 1.0
C      1  0.5010220000000  0.4613030000000  0.5749300000000 1.0
C      1  0.5049520000000  0.4666200000000  0.4566910000000 1.0
C      1  0.5072110000000  0.4160000000000  0.5494780000000 1.0
C      1  0.4885140000000  0.5825740000000  0.4834550000000 1.0
C      1  0.4952390000000  0.4054520000000  0.5281720000000 1.0
C      1  0.4460420000000  0.5064130000000  0.4545070000000 1.0
C      1  0.4687740000000  0.5765180000000  0.5030410000000 1.0
C      1  0.5143390000000  0.5897470000000  0.4930810000000 1.0
C      1  0.5191070000000  0.4906640000000  0.4480980000000 1.0
END
