TITL C-247202-1916-63 1.61631910243836e-07 125000 -334.08158351453 0 0 57 (C1) n - 1
REM
REM in /home/nfs/bkarasulu/CARBON/AIRSS/Generating-Clusters/LCBOP/Only-C1/SD-CG/FIRE-HFTN
REM
REM
REM
REM
REM
REM ./C.cell (11c1c37f851c82e70ff6c80c92926a4b)
REM AIRSS Version 0.9.1 bugfix July 2018 build 013d7b7c2542+ Fri, 06 Jul 2018 19:26:36 +0100
REM compiler GCC version 9.2.1 20190827 (Red Hat 9.2.1-1)
REM options -cpp -mtune=generic -march=x86-64 -g -O0 -fpre-include=/usr/include/finclude/math-vector-fortran.h
REM seed -305809316 1719988069 -1440309816 1752259810 -243475649 -225367892 202717230 -1780557310 -483080630 -1978071254 -1053874937 1265387707 869342054 290680954 1561510570 1542285204 181147265 -1142261956 1280164506 1875561075 -294283208 1565816740 -1936687992 -1973206952 1156340211 -1528579452 -1726782087 -499453773 -1451653888 566693571 -1157814777 1916234938 1081458027
REM
CELL 1.54180   50.00000   50.00000   50.00000   90.00000   90.00000   90.00000
LATT -1
SFAC C  
C      1  0.5351770000000  0.4542540000000  0.4218990000000 1.0
C      1  0.5565040000000  0.4751800000000  0.4822810000000 1.0
C      1  0.5184280000000  0.3966640000000  0.5872980000000 1.0
C      1  0.5186380000000  0.5076600000000  0.4910810000000 1.0
C      1  0.5716480000000  0.5113180000000  0.4220160000000 1.0
C      1  0.5623590000000  0.5099630000000  0.4483220000000 1.0
C      1  0.4794870000000  0.5780240000000  0.5329150000000 1.0
C      1  0.4641160000000  0.5820550000000  0.4869940000000 1.0
C      1  0.4892060000000  0.5519520000000  0.5412630000000 1.0
C      1  0.4856320000000  0.4453400000000  0.5115450000000 1.0
C      1  0.5614740000000  0.4799840000000  0.5097140000000 1.0
C      1  0.5100900000000  0.5657500000000  0.5011740000000 1.0
C      1  0.5739350000000  0.5044430000000  0.5168810000000 1.0
C      1  0.4746590000000  0.5159190000000  0.4912080000000 1.0
C      1  0.5164720000000  0.5539710000000  0.4762350000000 1.0
C      1  0.4479060000000  0.5589990000000  0.4844340000000 1.0
C      1  0.5228000000000  0.5225270000000  0.5789860000000 1.0
C      1  0.4888560000000  0.4716050000000  0.5098150000000 1.0
C      1  0.5017970000000  0.5098590000000  0.5909140000000 1.0
C      1  0.5452300000000  0.4703950000000  0.5305270000000 1.0
C      1  0.5649540000000  0.5420820000000  0.4907000000000 1.0
C      1  0.5147970000000  0.5494680000000  0.5259050000000 1.0
C      1  0.5107830000000  0.4158210000000  0.5694860000000 1.0
C      1  0.5312000000000  0.4841690000000  0.5507280000000 1.0
C      1  0.4668260000000  0.4880290000000  0.5645520000000 1.0
C      1  0.4942420000000  0.4979250000000  0.5032920000000 1.0
C      1  0.5604930000000  0.5295260000000  0.5156150000000 1.0
C      1  0.4565420000000  0.5064280000000  0.5455090000000 1.0
C      1  0.4313450000000  0.4406320000000  0.4308820000000 1.0
C      1  0.5124920000000  0.4701370000000  0.5676140000000 1.0
C      1  0.4333970000000  0.4993990000000  0.4722520000000 1.0
C      1  0.4333720000000  0.4939990000000  0.5005990000000 1.0
C      1  0.4508600000000  0.4855840000000  0.4535140000000 1.0
C      1  0.5668000000000  0.5316460000000  0.4659130000000 1.0
C      1  0.5331280000000  0.5133320000000  0.5539700000000 1.0
C      1  0.5277490000000  0.4750270000000  0.4413440000000 1.0
C      1  0.4982440000000  0.4805550000000  0.4352300000000 1.0
C      1  0.4704390000000  0.5313470000000  0.5457590000000 1.0
C      1  0.4777300000000  0.4954680000000  0.4480650000000 1.0
C      1  0.4861420000000  0.5828740000000  0.5049820000000 1.0
C      1  0.5124020000000  0.5268400000000  0.4696000000000 1.0
C      1  0.4923570000000  0.4641080000000  0.4117250000000 1.0
C      1  0.4584500000000  0.5370370000000  0.4989940000000 1.0
C      1  0.5142140000000  0.4487200000000  0.4047390000000 1.0
C      1  0.4981750000000  0.4095650000000  0.5451990000000 1.0
C      1  0.5369810000000  0.5323840000000  0.5324040000000 1.0
C      1  0.4274010000000  0.5502580000000  0.4671200000000 1.0
C      1  0.4886910000000  0.4217830000000  0.5234860000000 1.0
C      1  0.4337140000000  0.4995410000000  0.5288510000000 1.0
C      1  0.4852610000000  0.5179800000000  0.4634660000000 1.0
C      1  0.4413740000000  0.4624170000000  0.4410830000000 1.0
C      1  0.4092810000000  0.4984630000000  0.5416780000000 1.0
C      1  0.5484960000000  0.4862920000000  0.4573460000000 1.0
C      1  0.4914480000000  0.4864970000000  0.5782110000000 1.0
C      1  0.4215660000000  0.5239170000000  0.4634360000000 1.0
C      1  0.5792690000000  0.5117150000000  0.3970980000000 1.0
C      1  0.5149720000000  0.4431710000000  0.5741520000000 1.0
END
