TITL C-247197-3123-234 0.0255741722776435 125000 -196.071685904151 0 0 34 (C1) n - 1
REM
REM in /home/nfs/bkarasulu/CARBON/AIRSS/Generating-Clusters/LCBOP/Only-C1/SD-CG/FIRE-HFTN
REM
REM
REM
REM
REM
REM ./C.cell (11c1c37f851c82e70ff6c80c92926a4b)
REM AIRSS Version 0.9.1 bugfix July 2018 build 013d7b7c2542+ Fri, 06 Jul 2018 19:26:36 +0100
REM compiler GCC version 9.2.1 20190827 (Red Hat 9.2.1-1)
REM options -cpp -mtune=generic -march=x86-64 -g -O0 -fpre-include=/usr/include/finclude/math-vector-fortran.h
REM seed -1689628211 -569903706 -739843621 1504618200 1868377985 1810016990 -999190901 520701944 866389743 2050246789 903221118 830432840 -1965705314 -40612150 1040873760 -2078479360 728272877 112617788 1958214265 -69159860 -361053382 807257394 1222484904 -1385867662 -305310777 -286438323 235294465 -638199421 -1136096117 813304248 -1052328113 113072992 -1549503939
REM
CELL 1.54180   50.00000   50.00000   50.00000   90.00000   90.00000   90.00000
LATT -1
SFAC C  
C      1  0.4145640000000  0.5729280000000  0.4363230000000 1.0
C      1  0.3983350000000  0.5902290000000  0.4255110000000 1.0
C      1  0.5228950000000  0.4694960000000  0.5372210000000 1.0
C      1  0.4595450000000  0.4636380000000  0.4536750000000 1.0
C      1  0.5314180000000  0.4965230000000  0.5367340000000 1.0
C      1  0.4839310000000  0.5240320000000  0.4889920000000 1.0
C      1  0.5154990000000  0.5169010000000  0.5488530000000 1.0
C      1  0.4824430000000  0.5549150000000  0.5409580000000 1.0
C      1  0.4623030000000  0.5656840000000  0.5266740000000 1.0
C      1  0.5059940000000  0.5321070000000  0.5048240000000 1.0
C      1  0.4525670000000  0.5110890000000  0.4454930000000 1.0
C      1  0.5733480000000  0.4973950000000  0.5090940000000 1.0
C      1  0.4643400000000  0.4897310000000  0.4604100000000 1.0
C      1  0.5773200000000  0.4728600000000  0.4962800000000 1.0
C      1  0.4927140000000  0.4767350000000  0.4988730000000 1.0
C      1  0.4394230000000  0.5045460000000  0.3935400000000 1.0
C      1  0.5477120000000  0.4065550000000  0.6200550000000 1.0
C      1  0.5946730000000  0.5128530000000  0.5164650000000 1.0
C      1  0.5325470000000  0.5243000000000  0.4983100000000 1.0
C      1  0.5077730000000  0.4594030000000  0.5151040000000 1.0
C      1  0.4310480000000  0.5552590000000  0.4471830000000 1.0
C      1  0.4459020000000  0.5074950000000  0.4186100000000 1.0
C      1  0.4483720000000  0.5363610000000  0.4581390000000 1.0
C      1  0.5353690000000  0.4376140000000  0.5794700000000 1.0
C      1  0.4808450000000  0.4963210000000  0.4826910000000 1.0
C      1  0.5083400000000  0.4326250000000  0.5092880000000 1.0
C      1  0.4543810000000  0.5604310000000  0.5015010000000 1.0
C      1  0.5777110000000  0.4486630000000  0.4854970000000 1.0
C      1  0.5415920000000  0.4219560000000  0.5999310000000 1.0
C      1  0.5769100000000  0.4246440000000  0.4753980000000 1.0
C      1  0.4623720000000  0.5415570000000  0.4822390000000 1.0
C      1  0.5016490000000  0.5360580000000  0.5332620000000 1.0
C      1  0.5470380000000  0.5059010000000  0.5144190000000 1.0
C      1  0.5291250000000  0.4531970000000  0.5589830000000 1.0
END
