TITL C-247196-3112-78 76568.8467588095 125000 -818.377273178653 0 0 136 (C1) n - 1
REM
REM in /home/nfs/bkarasulu/CARBON/AIRSS/Generating-Clusters/LCBOP/Only-C1/SD-CG/FIRE-HFTN
REM
REM
REM
REM
REM
REM ./C.cell (11c1c37f851c82e70ff6c80c92926a4b)
REM AIRSS Version 0.9.1 bugfix July 2018 build 013d7b7c2542+ Fri, 06 Jul 2018 19:26:36 +0100
REM compiler GCC version 9.2.1 20190827 (Red Hat 9.2.1-1)
REM options -cpp -mtune=generic -march=x86-64 -g -O0 -fpre-include=/usr/include/finclude/math-vector-fortran.h
REM seed -1541010248 -163773945 -2064417922 1936318335 1010733014 -972101056 2025624217 1222164745 -1943606940 863673666 -104203890 -360824102 -631528826 -267861487 -1893293058 -187485753 -2044207893 -1132207094 1238438081 1711530905 2124995972 1498334144 133328494 557467776 906526906 1988664602 -1428057763 -484351723 -264835654 -311969823 479540955 574083615 -202060887
REM
CELL 1.54180   50.00000   50.00000   50.00000   90.00000   90.00000   90.00000
LATT -1
SFAC C  
C      1  0.5198070000000  0.3261920000000  0.5317140000000 1.0
C      1  0.4917650000000  0.4902790000000  0.4239960000000 1.0
C      1  0.4016310000000  0.4850830000000  0.5386340000000 1.0
C      1  0.4444800000000  0.5702280000000  0.5721660000000 1.0
C      1  0.5457650000000  0.5050220000000  0.4813970000000 1.0
C      1  0.5058640000000  0.5461170000000  0.4509040000000 1.0
C      1  0.5479150000000  0.4470950000000  0.4367650000000 1.0
C      1  0.5857150000000  0.5817350000000  0.5614150000000 1.0
C      1  0.4348530000000  0.5429540000000  0.4170760000000 1.0
C      1  0.4819170000000  0.2713160000000  0.4952120000000 1.0
C      1  0.4413660000000  0.4568850000000  0.4722340000000 1.0
C      1  0.5026130000000  0.5851360000000  0.5683010000000 1.0
C      1  0.4504810000000  0.5662290000000  0.4162930000000 1.0
C      1  0.4547010000000  0.5034840000000  0.5710630000000 1.0
C      1  0.4791660000000  0.5124320000000  0.5574370000000 1.0
C      1  0.5936650000000  0.4305640000000  0.5113530000000 1.0
C      1  0.4722140000000  0.5830080000000  0.4221340000000 1.0
C      1  0.5540350000000  0.4935920000000  0.5271910000000 1.0
C      1  0.4274530000000  0.5096030000000  0.5071530000000 1.0
C      1  0.5228610000000  0.5197890000000  0.5505030000000 1.0
C      1  0.5398750000000  0.5298870000000  0.5711700000000 1.0
C      1  0.4169320000000  0.5673200000000  0.4872590000000 1.0
C      1  0.4756080000000  0.5994200000000  0.5174030000000 1.0
C      1  0.4228080000000  0.4825980000000  0.5191510000000 1.0
C      1  0.4854580000000  0.5857120000000  0.5914020000000 1.0
C      1  0.4514590000000  0.4708610000000  0.5572670000000 1.0
C      1  0.5431910000000  0.3632760000000  0.5517250000000 1.0
C      1  0.5753280000000  0.5008740000000  0.4806930000000 1.0
C      1  0.3818800000000  0.4535300000000  0.4015880000000 1.0
C      1  0.3724410000000  0.5650640000000  0.4534290000000 1.0
C      1  0.5578540000000  0.5696580000000  0.3647350000000 1.0
C      1  0.5434680000000  0.3427200000000  0.5312370000000 1.0
C      1  0.5860020000000  0.4487370000000  0.4668490000000 1.0
C      1  0.4664170000000  0.5383240000000  0.5250480000000 1.0
C      1  0.4203940000000  0.5176110000000  0.4799240000000 1.0
C      1  0.5281210000000  0.4450700000000  0.4163010000000 1.0
C      1  0.4756800000000  0.4379790000000  0.4135540000000 1.0
C      1  0.5876420000000  0.5168190000000  0.5014720000000 1.0
C      1  0.4062100000000  0.5048690000000  0.5572000000000 1.0
C      1  0.4053760000000  0.4614950000000  0.4095640000000 1.0
C      1  0.5771590000000  0.5958290000000  0.5048890000000 1.0
C      1  0.4872040000000  0.5252960000000  0.3927060000000 1.0
C      1  0.5286550000000  0.4678470000000  0.3991680000000 1.0
C      1  0.5709260000000  0.4100700000000  0.5562070000000 1.0
C      1  0.5359800000000  0.5057700000000  0.5076720000000 1.0
C      1  0.4496610000000  0.4831080000000  0.4713220000000 1.0
C      1  0.5339020000000  0.5318470000000  0.3783960000000 1.0
C      1  0.4463970000000  0.5169060000000  0.4183020000000 1.0
C      1  0.4915300000000  0.6153490000000  0.5341760000000 1.0
C      1  0.4303720000000  0.4999400000000  0.4595620000000 1.0
C      1  0.4497570000000  0.5867800000000  0.5204630000000 1.0
C      1  0.4719000000000  0.4972100000000  0.4830570000000 1.0
C      1  0.5378740000000  0.5990690000000  0.5358630000000 1.0
C      1  0.4304130000000  0.4702510000000  0.4186160000000 1.0
C      1  0.4461900000000  0.4672010000000  0.5290450000000 1.0
C      1  0.4694170000000  0.4595070000000  0.5123660000000 1.0
C      1  0.4797930000000  0.5240380000000  0.4826630000000 1.0
C      1  0.4888700000000  0.5316200000000  0.5082160000000 1.0
C      1  0.4744100000000  0.5387260000000  0.6030390000000 1.0
C      1  0.4970620000000  0.5601010000000  0.5560510000000 1.0
C      1  0.4320690000000  0.5175220000000  0.5555940000000 1.0
C      1  0.5490950000000  0.4475250000000  0.5860920000000 1.0
C      1  0.6036640000000  0.4389080000000  0.4864630000000 1.0
C      1  0.4886060000000  0.5880990000000  0.4951760000000 1.0
C      1  0.5332060000000  0.5616820000000  0.3780010000000 1.0
C      1  0.4890240000000  0.4910340000000  0.6036760000000 1.0
C      1  0.5523950000000  0.4740640000000  0.4472510000000 1.0
C      1  0.4780580000000  0.5910690000000  0.4487630000000 1.0
C      1  0.5347540000000  0.4935460000000  0.4581570000000 1.0
C      1  0.4107270000000  0.5431770000000  0.4728810000000 1.0
C      1  0.5691010000000  0.4323030000000  0.4496760000000 1.0
C      1  0.3947450000000  0.5850700000000  0.4898550000000 1.0
C      1  0.4431360000000  0.5752010000000  0.4934120000000 1.0
C      1  0.4796500000000  0.4427130000000  0.4905030000000 1.0
C      1  0.4077710000000  0.5451920000000  0.4246030000000 1.0
C      1  0.4809000000000  0.5455180000000  0.4650380000000 1.0
C      1  0.5297100000000  0.5516180000000  0.4630100000000 1.0
C      1  0.5000830000000  0.3684540000000  0.5865910000000 1.0
C      1  0.4825340000000  0.4839860000000  0.5057980000000 1.0
C      1  0.3946340000000  0.5478470000000  0.4491720000000 1.0
C      1  0.5022980000000  0.4325370000000  0.4161580000000 1.0
C      1  0.5053260000000  0.6008360000000  0.4563600000000 1.0
C      1  0.4893900000000  0.4524510000000  0.4661060000000 1.0
C      1  0.5197150000000  0.5285890000000  0.5196590000000 1.0
C      1  0.5090690000000  0.3057040000000  0.5163240000000 1.0
C      1  0.5272270000000  0.5359950000000  0.5958470000000 1.0
C      1  0.4643940000000  0.5650140000000  0.5925320000000 1.0
C      1  0.5359830000000  0.4691670000000  0.5739890000000 1.0
C      1  0.5145650000000  0.4913820000000  0.4044850000000 1.0
C      1  0.4916940000000  0.4524900000000  0.5764430000000 1.0
C      1  0.5132910000000  0.5779750000000  0.3883820000000 1.0
C      1  0.4407190000000  0.5797680000000  0.5467640000000 1.0
C      1  0.4656840000000  0.2960260000000  0.5338180000000 1.0
C      1  0.6305070000000  0.4375570000000  0.4813080000000 1.0
C      1  0.5856210000000  0.5195170000000  0.5529010000000 1.0
C      1  0.4769980000000  0.3529950000000  0.5861160000000 1.0
C      1  0.4792810000000  0.5398440000000  0.5500480000000 1.0
C      1  0.5579990000000  0.6103140000000  0.5184020000000 1.0
C      1  0.4854390000000  0.2903040000000  0.5144440000000 1.0
C      1  0.4623610000000  0.3127730000000  0.5545740000000 1.0
C      1  0.6045020000000  0.5973270000000  0.5705310000000 1.0
C      1  0.5794350000000  0.5075700000000  0.5278340000000 1.0
C      1  0.5656980000000  0.5375270000000  0.5626450000000 1.0
C      1  0.4922030000000  0.5858950000000  0.4025330000000 1.0
C      1  0.5332560000000  0.5558790000000  0.5133460000000 1.0
C      1  0.5039190000000  0.5005220000000  0.5595030000000 1.0
C      1  0.4783940000000  0.3325660000000  0.5657590000000 1.0
C      1  0.5588220000000  0.5244490000000  0.3654510000000 1.0
C      1  0.5883140000000  0.5717090000000  0.4988730000000 1.0
C      1  0.4689060000000  0.5742490000000  0.4746160000000 1.0
C      1  0.5448730000000  0.5708450000000  0.5351130000000 1.0
C      1  0.4733540000000  0.5110880000000  0.4133490000000 1.0
C      1  0.5464030000000  0.4769240000000  0.5484340000000 1.0
C      1  0.5662760000000  0.5638040000000  0.5526110000000 1.0
C      1  0.5045910000000  0.3365740000000  0.5538800000000 1.0
C      1  0.4655520000000  0.4510650000000  0.5706520000000 1.0
C      1  0.5189250000000  0.3597960000000  0.5666880000000 1.0
C      1  0.6085260000000  0.5140620000000  0.5666230000000 1.0
C      1  0.5139850000000  0.5158390000000  0.3890910000000 1.0
C      1  0.5304780000000  0.5677210000000  0.4865140000000 1.0
C      1  0.5725740000000  0.5472320000000  0.3575680000000 1.0
C      1  0.5852130000000  0.4208950000000  0.5346240000000 1.0
C      1  0.5776130000000  0.4765240000000  0.4642220000000 1.0
C      1  0.3731040000000  0.5836170000000  0.4733740000000 1.0
C      1  0.5032190000000  0.5395640000000  0.6078450000000 1.0
C      1  0.5072990000000  0.4782680000000  0.5804520000000 1.0
C      1  0.4316420000000  0.4964380000000  0.4312180000000 1.0
C      1  0.5139470000000  0.5910350000000  0.4826240000000 1.0
C      1  0.5630990000000  0.4263490000000  0.5777080000000 1.0
C      1  0.5613460000000  0.3838590000000  0.5547950000000 1.0
C      1  0.4529230000000  0.4527600000000  0.4147680000000 1.0
C      1  0.4401290000000  0.5262400000000  0.5275530000000 1.0
C      1  0.4912600000000  0.4716420000000  0.4461890000000 1.0
C      1  0.4654680000000  0.5099610000000  0.5995340000000 1.0
C      1  0.5925580000000  0.5448970000000  0.4979270000000 1.0
C      1  0.5128830000000  0.6045130000000  0.5494910000000 1.0
END
