TITL C-247199-3331-34 403.669295646686 125000 -990.93097967773 0 0 162 (C1) n - 1
REM
REM in /home/nfs/bkarasulu/CARBON/AIRSS/Generating-Clusters/LCBOP/Only-C1/SD-CG/FIRE-HFTN
REM
REM
REM
REM
REM
REM ./C.cell (11c1c37f851c82e70ff6c80c92926a4b)
REM AIRSS Version 0.9.1 bugfix July 2018 build 013d7b7c2542+ Fri, 06 Jul 2018 19:26:36 +0100
REM compiler GCC version 9.2.1 20190827 (Red Hat 9.2.1-1)
REM options -cpp -mtune=generic -march=x86-64 -g -O0 -fpre-include=/usr/include/finclude/math-vector-fortran.h
REM seed 758844536 1880718536 254188042 -1620608174 -1875259373 876980126 378583320 1672677462 -335042612 1503297304 1602569074 368078442 468731784 1586089459 12242807 1817363890 -667384022 1586975848 -1094059768 487155123 650332048 1237594282 -1721637919 1435747052 -943022574 2015541035 563354710 -229601110 -149217596 -427537466 1534562696 289499775 -1460989320
REM
CELL 1.54180   50.00000   50.00000   50.00000   90.00000   90.00000   90.00000
LATT -1
SFAC C  
C      1  0.4579890000000  0.3910240000000  0.5018440000000 1.0
C      1  0.4248290000000  0.5851850000000  0.5539980000000 1.0
C      1  0.5360650000000  0.5274090000000  0.5267530000000 1.0
C      1  0.5319660000000  0.5399470000000  0.5982490000000 1.0
C      1  0.3988460000000  0.5332530000000  0.5526970000000 1.0
C      1  0.4831270000000  0.4034020000000  0.4605200000000 1.0
C      1  0.4502210000000  0.4428590000000  0.4137320000000 1.0
C      1  0.4892820000000  0.6487880000000  0.5581320000000 1.0
C      1  0.5910450000000  0.5414230000000  0.5768640000000 1.0
C      1  0.5816080000000  0.4717000000000  0.4446250000000 1.0
C      1  0.6353100000000  0.5677750000000  0.5891790000000 1.0
C      1  0.4740080000000  0.4624220000000  0.6081520000000 1.0
C      1  0.5273950000000  0.4440510000000  0.4564380000000 1.0
C      1  0.6130520000000  0.5544260000000  0.5838060000000 1.0
C      1  0.4633410000000  0.6296940000000  0.5230690000000 1.0
C      1  0.4865660000000  0.6309620000000  0.5375180000000 1.0
C      1  0.4243320000000  0.5979210000000  0.4261720000000 1.0
C      1  0.3921570000000  0.4718140000000  0.5317590000000 1.0
C      1  0.4517380000000  0.5224330000000  0.4688250000000 1.0
C      1  0.4401900000000  0.3898290000000  0.5482710000000 1.0
C      1  0.5105090000000  0.4423680000000  0.4824170000000 1.0
C      1  0.4501110000000  0.4881440000000  0.3825270000000 1.0
C      1  0.5912550000000  0.4550620000000  0.5690030000000 1.0
C      1  0.4351940000000  0.4102300000000  0.4626720000000 1.0
C      1  0.5213260000000  0.5859670000000  0.4195600000000 1.0
C      1  0.5099110000000  0.5154640000000  0.4415530000000 1.0
C      1  0.5628340000000  0.4343130000000  0.4274270000000 1.0
C      1  0.4041660000000  0.4455260000000  0.5309930000000 1.0
C      1  0.4481390000000  0.4182450000000  0.5068940000000 1.0
C      1  0.4878840000000  0.5029860000000  0.5239220000000 1.0
C      1  0.5071400000000  0.5465510000000  0.4771100000000 1.0
C      1  0.5554650000000  0.5347110000000  0.4899990000000 1.0
C      1  0.5897810000000  0.4401590000000  0.4765160000000 1.0
C      1  0.5525040000000  0.5058250000000  0.4852040000000 1.0
C      1  0.5080520000000  0.5192010000000  0.5612980000000 1.0
C      1  0.4853350000000  0.4753370000000  0.4236240000000 1.0
C      1  0.6130180000000  0.5096320000000  0.5194970000000 1.0
C      1  0.4850200000000  0.5856380000000  0.4514430000000 1.0
C      1  0.4881400000000  0.5572690000000  0.5784510000000 1.0
C      1  0.5276150000000  0.3972260000000  0.4981490000000 1.0
C      1  0.4053600000000  0.4376900000000  0.5015020000000 1.0
C      1  0.5593460000000  0.5916200000000  0.5237490000000 1.0
C      1  0.5531300000000  0.4656650000000  0.5109890000000 1.0
C      1  0.5408930000000  0.4311230000000  0.5809260000000 1.0
C      1  0.4587320000000  0.4960490000000  0.4593940000000 1.0
C      1  0.4496470000000  0.4735370000000  0.5956620000000 1.0
C      1  0.5481320000000  0.4779400000000  0.3955330000000 1.0
C      1  0.4446930000000  0.4311510000000  0.4422290000000 1.0
C      1  0.4941440000000  0.4231880000000  0.4160120000000 1.0
C      1  0.5987390000000  0.4652860000000  0.5174620000000 1.0
C      1  0.4528820000000  0.5388090000000  0.5137320000000 1.0
C      1  0.4917130000000  0.4021400000000  0.4333600000000 1.0
C      1  0.5469270000000  0.5201340000000  0.5839550000000 1.0
C      1  0.5564760000000  0.5974700000000  0.4739030000000 1.0
C      1  0.5233160000000  0.6162650000000  0.5068620000000 1.0
C      1  0.4092490000000  0.5839670000000  0.5316260000000 1.0
C      1  0.4174890000000  0.5569010000000  0.4877850000000 1.0
C      1  0.4500000000000  0.4852600000000  0.5521450000000 1.0
C      1  0.4547910000000  0.4702300000000  0.4687080000000 1.0
C      1  0.4914440000000  0.4440000000000  0.5935000000000 1.0
C      1  0.4542800000000  0.5560680000000  0.5334390000000 1.0
C      1  0.4852570000000  0.4308140000000  0.4704280000000 1.0
C      1  0.6184700000000  0.4791000000000  0.4743180000000 1.0
C      1  0.4586570000000  0.5521260000000  0.5788990000000 1.0
C      1  0.5350820000000  0.5447070000000  0.4720370000000 1.0
C      1  0.4242350000000  0.4193720000000  0.4899840000000 1.0
C      1  0.4003020000000  0.5011880000000  0.4536910000000 1.0
C      1  0.3955850000000  0.5376260000000  0.5247290000000 1.0
C      1  0.4799360000000  0.4478170000000  0.4139330000000 1.0
C      1  0.4525080000000  0.4679110000000  0.5119050000000 1.0
C      1  0.4348270000000  0.5273490000000  0.4142120000000 1.0
C      1  0.4152740000000  0.5301780000000  0.5738180000000 1.0
C      1  0.4594660000000  0.4398680000000  0.5211610000000 1.0
C      1  0.5360580000000  0.5261950000000  0.4484280000000 1.0
C      1  0.4523670000000  0.3780310000000  0.5266640000000 1.0
C      1  0.4588710000000  0.3917870000000  0.4719740000000 1.0
C      1  0.4228530000000  0.4408150000000  0.5549130000000 1.0
C      1  0.4865450000000  0.5556530000000  0.4072880000000 1.0
C      1  0.5873950000000  0.5180810000000  0.4128950000000 1.0
C      1  0.5586080000000  0.5871800000000  0.4490870000000 1.0
C      1  0.4467620000000  0.5030190000000  0.5982240000000 1.0
C      1  0.5413110000000  0.4229950000000  0.4426520000000 1.0
C      1  0.4300220000000  0.4128910000000  0.5585990000000 1.0
C      1  0.4361400000000  0.4676880000000  0.4880750000000 1.0
C      1  0.5391770000000  0.4591240000000  0.5349550000000 1.0
C      1  0.4976720000000  0.4713830000000  0.5572570000000 1.0
C      1  0.4781220000000  0.4899340000000  0.5484260000000 1.0
C      1  0.4860740000000  0.4833280000000  0.5041780000000 1.0
C      1  0.5566350000000  0.4531590000000  0.4051220000000 1.0
C      1  0.5555980000000  0.5537920000000  0.4104520000000 1.0
C      1  0.5416720000000  0.3965630000000  0.4517530000000 1.0
C      1  0.6130910000000  0.4469230000000  0.5839050000000 1.0
C      1  0.5472550000000  0.5765670000000  0.4253020000000 1.0
C      1  0.4994900000000  0.5693830000000  0.5520090000000 1.0
C      1  0.6032050000000  0.5339580000000  0.5096860000000 1.0
C      1  0.5541080000000  0.5062640000000  0.4566860000000 1.0
C      1  0.5333180000000  0.4176880000000  0.5565410000000 1.0
C      1  0.3965020000000  0.4738570000000  0.4621040000000 1.0
C      1  0.5814270000000  0.4434500000000  0.4483380000000 1.0
C      1  0.4923580000000  0.5345760000000  0.4546780000000 1.0
C      1  0.4742220000000  0.4337560000000  0.5445580000000 1.0
C      1  0.4642440000000  0.4462110000000  0.4592190000000 1.0
C      1  0.6179030000000  0.4496360000000  0.4751220000000 1.0
C      1  0.5778440000000  0.4527870000000  0.5015970000000 1.0
C      1  0.4916840000000  0.5309520000000  0.6210910000000 1.0
C      1  0.5477880000000  0.6029590000000  0.5001690000000 1.0
C      1  0.4387460000000  0.4670840000000  0.4005320000000 1.0
C      1  0.5403280000000  0.5067560000000  0.3952860000000 1.0
C      1  0.4176860000000  0.5065750000000  0.4290720000000 1.0
C      1  0.5118450000000  0.5156910000000  0.3907910000000 1.0
C      1  0.4619690000000  0.4905330000000  0.4311860000000 1.0
C      1  0.5586720000000  0.5314810000000  0.5406400000000 1.0
C      1  0.4564400000000  0.5160420000000  0.3933690000000 1.0
C      1  0.5612340000000  0.5263970000000  0.4042690000000 1.0
C      1  0.5556710000000  0.4820370000000  0.4447120000000 1.0
C      1  0.4356480000000  0.5745440000000  0.4283380000000 1.0
C      1  0.4054310000000  0.5625250000000  0.5135810000000 1.0
C      1  0.5657500000000  0.4456460000000  0.5786800000000 1.0
C      1  0.4840320000000  0.5843430000000  0.4792640000000 1.0
C      1  0.6043320000000  0.4884620000000  0.4504930000000 1.0
C      1  0.4849990000000  0.5287100000000  0.3952000000000 1.0
C      1  0.4403730000000  0.5385520000000  0.4891630000000 1.0
C      1  0.4647530000000  0.5394500000000  0.4495510000000 1.0
C      1  0.5294860000000  0.4319720000000  0.5324530000000 1.0
C      1  0.4087290000000  0.4924570000000  0.5214760000000 1.0
C      1  0.5974730000000  0.4715070000000  0.5461450000000 1.0
C      1  0.5086580000000  0.4867120000000  0.4351450000000 1.0
C      1  0.5041110000000  0.5459140000000  0.6004080000000 1.0
C      1  0.4952890000000  0.5636400000000  0.4969020000000 1.0
C      1  0.6571910000000  0.5810640000000  0.5941070000000 1.0
C      1  0.3981320000000  0.5465820000000  0.4699360000000 1.0
C      1  0.4088590000000  0.4607780000000  0.4837290000000 1.0
C      1  0.5187330000000  0.4359620000000  0.5990340000000 1.0
C      1  0.3942250000000  0.5188920000000  0.4760730000000 1.0
C      1  0.4853020000000  0.4799200000000  0.6274590000000 1.0
C      1  0.5063760000000  0.5256430000000  0.5314510000000 1.0
C      1  0.3971440000000  0.5142620000000  0.5064550000000 1.0
C      1  0.4363750000000  0.4873200000000  0.5279060000000 1.0
C      1  0.5374760000000  0.4836610000000  0.4954750000000 1.0
C      1  0.5808490000000  0.5435290000000  0.4982280000000 1.0
C      1  0.5080120000000  0.6137620000000  0.5310650000000 1.0
C      1  0.4893880000000  0.5062030000000  0.6312320000000 1.0
C      1  0.5367040000000  0.3856110000000  0.4757480000000 1.0
C      1  0.6051640000000  0.5097440000000  0.4317600000000 1.0
C      1  0.4951860000000  0.5769190000000  0.4253020000000 1.0
C      1  0.5096040000000  0.4724820000000  0.4923330000000 1.0
C      1  0.5262700000000  0.4764040000000  0.5551090000000 1.0
C      1  0.4463700000000  0.5673540000000  0.5576810000000 1.0
C      1  0.5450150000000  0.5879940000000  0.5467740000000 1.0
C      1  0.4414010000000  0.5287670000000  0.5862160000000 1.0
C      1  0.5214350000000  0.4237230000000  0.5058360000000 1.0
C      1  0.4388480000000  0.4641990000000  0.5697390000000 1.0
C      1  0.6078730000000  0.4989110000000  0.5461680000000 1.0
C      1  0.5300070000000  0.4697090000000  0.4437920000000 1.0
C      1  0.5674980000000  0.5303770000000  0.5673060000000 1.0
C      1  0.6134530000000  0.4866260000000  0.5018250000000 1.0
C      1  0.4976120000000  0.5546330000000  0.5257720000000 1.0
C      1  0.4340720000000  0.4836730000000  0.4233640000000 1.0
C      1  0.5298020000000  0.5014340000000  0.5698830000000 1.0
C      1  0.5167450000000  0.5922920000000  0.5486540000000 1.0
C      1  0.4457960000000  0.5487280000000  0.4302150000000 1.0
C      1  0.4876630000000  0.4465050000000  0.5653210000000 1.0
END
