TITL C-247200-3482-405 0.00723435486321871 125000 -880.716945347692 0 0 144 (C1) n - 1
REM
REM in /home/nfs/bkarasulu/CARBON/AIRSS/Generating-Clusters/LCBOP/Only-C1/SD-CG/FIRE-HFTN
REM
REM
REM
REM
REM
REM ./C.cell (11c1c37f851c82e70ff6c80c92926a4b)
REM AIRSS Version 0.9.1 bugfix July 2018 build 013d7b7c2542+ Fri, 06 Jul 2018 19:26:36 +0100
REM compiler GCC version 9.2.1 20190827 (Red Hat 9.2.1-1)
REM options -cpp -mtune=generic -march=x86-64 -g -O0 -fpre-include=/usr/include/finclude/math-vector-fortran.h
REM seed -65865168 932439653 162755621 -677905058 1451221315 1378288445 -1462341582 -1377920440 -1379501346 1602211697 -1476242216 -2043088281 -681426780 1062765988 -1669647032 271283505 -2127317392 -1619172514 1856369170 2018253022 -1035133142 678455167 -821650890 1817507645 1625877236 9556684 -1518861056 -110532734 1969948292 -79232405 -313867287 325144111 1419815288
REM
CELL 1.54180   50.00000   50.00000   50.00000   90.00000   90.00000   90.00000
LATT -1
SFAC C  
C      1  0.5322150000000  0.5394840000000  0.4593180000000 1.0
C      1  0.5317070000000  0.4607470000000  0.5997790000000 1.0
C      1  0.5155830000000  0.5421390000000  0.5755490000000 1.0
C      1  0.4883200000000  0.3845600000000  0.4940220000000 1.0
C      1  0.3980890000000  0.5320360000000  0.4895440000000 1.0
C      1  0.4489490000000  0.5545040000000  0.5571490000000 1.0
C      1  0.4921700000000  0.4551600000000  0.5089630000000 1.0
C      1  0.4722660000000  0.5400150000000  0.5624050000000 1.0
C      1  0.5175920000000  0.4176930000000  0.4280470000000 1.0
C      1  0.4862850000000  0.5277760000000  0.5406940000000 1.0
C      1  0.5488060000000  0.4998660000000  0.4931070000000 1.0
C      1  0.5540460000000  0.4936820000000  0.4195710000000 1.0
C      1  0.5692960000000  0.4995690000000  0.4705680000000 1.0
C      1  0.4104990000000  0.4972620000000  0.5406220000000 1.0
C      1  0.4696040000000  0.6241710000000  0.4288520000000 1.0
C      1  0.4542150000000  0.4511480000000  0.5506860000000 1.0
C      1  0.4254340000000  0.4649050000000  0.4226290000000 1.0
C      1  0.4685600000000  0.3979260000000  0.5103180000000 1.0
C      1  0.5221680000000  0.4143420000000  0.5172830000000 1.0
C      1  0.4734090000000  0.5297600000000  0.5887870000000 1.0
C      1  0.4649050000000  0.4948450000000  0.3980560000000 1.0
C      1  0.4943540000000  0.5653070000000  0.4617160000000 1.0
C      1  0.4424500000000  0.4793110000000  0.4070180000000 1.0
C      1  0.4157050000000  0.4301770000000  0.4634630000000 1.0
C      1  0.4625870000000  0.5279240000000  0.4631070000000 1.0
C      1  0.4996420000000  0.3865820000000  0.4693810000000 1.0
C      1  0.5092570000000  0.5068350000000  0.6112380000000 1.0
C      1  0.4187080000000  0.4755090000000  0.5237330000000 1.0
C      1  0.5645230000000  0.5738870000000  0.5338830000000 1.0
C      1  0.5993690000000  0.4462910000000  0.4949820000000 1.0
C      1  0.5961810000000  0.4906080000000  0.4764310000000 1.0
C      1  0.4150520000000  0.5690680000000  0.5158890000000 1.0
C      1  0.4645800000000  0.4610650000000  0.4979020000000 1.0
C      1  0.5087330000000  0.5747890000000  0.4849270000000 1.0
C      1  0.4095880000000  0.4488750000000  0.5308280000000 1.0
C      1  0.5577260000000  0.5158900000000  0.5721410000000 1.0
C      1  0.3742320000000  0.5562670000000  0.4542510000000 1.0
C      1  0.5017990000000  0.4284350000000  0.5069170000000 1.0
C      1  0.5152770000000  0.5681950000000  0.5587600000000 1.0
C      1  0.5261540000000  0.5553260000000  0.4065380000000 1.0
C      1  0.5175230000000  0.4351970000000  0.5919360000000 1.0
C      1  0.4971790000000  0.5090730000000  0.4285670000000 1.0
C      1  0.4841310000000  0.4784690000000  0.4586320000000 1.0
C      1  0.5432310000000  0.4233430000000  0.5335510000000 1.0
C      1  0.5710280000000  0.5410170000000  0.5703540000000 1.0
C      1  0.5804920000000  0.4251620000000  0.4984480000000 1.0
C      1  0.4999290000000  0.4388910000000  0.4187390000000 1.0
C      1  0.4558290000000  0.5770060000000  0.5413220000000 1.0
C      1  0.6084070000000  0.5746870000000  0.5126530000000 1.0
C      1  0.3741870000000  0.4641620000000  0.5017680000000 1.0
C      1  0.5769460000000  0.5275600000000  0.5238600000000 1.0
C      1  0.4115460000000  0.5260600000000  0.5372730000000 1.0
C      1  0.5664340000000  0.5619930000000  0.4338820000000 1.0
C      1  0.4252210000000  0.4460000000000  0.5551810000000 1.0
C      1  0.5759360000000  0.4591740000000  0.4504020000000 1.0
C      1  0.5362390000000  0.4744110000000  0.4078160000000 1.0
C      1  0.5225410000000  0.4671470000000  0.5564430000000 1.0
C      1  0.5692390000000  0.4194240000000  0.5236490000000 1.0
C      1  0.3814040000000  0.4864400000000  0.4882930000000 1.0
C      1  0.5721190000000  0.5832840000000  0.4828250000000 1.0
C      1  0.4982960000000  0.5594780000000  0.4117750000000 1.0
C      1  0.5647750000000  0.4861300000000  0.4446300000000 1.0
C      1  0.4780830000000  0.5451930000000  0.3973570000000 1.0
C      1  0.5609620000000  0.5191690000000  0.4071840000000 1.0
C      1  0.4682780000000  0.4585580000000  0.4694140000000 1.0
C      1  0.4910980000000  0.5750250000000  0.4352030000000 1.0
C      1  0.4755110000000  0.5059260000000  0.5033990000000 1.0
C      1  0.3911200000000  0.4422230000000  0.5091200000000 1.0
C      1  0.4029570000000  0.5043690000000  0.4849530000000 1.0
C      1  0.5296600000000  0.4544410000000  0.4632890000000 1.0
C      1  0.4896770000000  0.5379630000000  0.4704650000000 1.0
C      1  0.4421580000000  0.5767640000000  0.5159900000000 1.0
C      1  0.4260490000000  0.5372030000000  0.5604670000000 1.0
C      1  0.5519750000000  0.5458990000000  0.4149450000000 1.0
C      1  0.5312680000000  0.5414280000000  0.5090960000000 1.0
C      1  0.5946610000000  0.5166360000000  0.3648290000000 1.0
C      1  0.5801160000000  0.4591790000000  0.6042380000000 1.0
C      1  0.5356540000000  0.4440660000000  0.5509610000000 1.0
C      1  0.5973620000000  0.4618940000000  0.4710680000000 1.0
C      1  0.6001960000000  0.5110290000000  0.5232000000000 1.0
C      1  0.4587390000000  0.5680360000000  0.4949810000000 1.0
C      1  0.5546940000000  0.4381810000000  0.4547360000000 1.0
C      1  0.6071210000000  0.4612480000000  0.5178340000000 1.0
C      1  0.5784550000000  0.5179270000000  0.3851950000000 1.0
C      1  0.5205650000000  0.4989570000000  0.4814160000000 1.0
C      1  0.4383820000000  0.4741500000000  0.5035090000000 1.0
C      1  0.5074110000000  0.3975560000000  0.4459300000000 1.0
C      1  0.5183630000000  0.4938150000000  0.5581580000000 1.0
C      1  0.4988880000000  0.5162060000000  0.4884410000000 1.0
C      1  0.4225870000000  0.5597710000000  0.4599780000000 1.0
C      1  0.5123250000000  0.4765950000000  0.4655720000000 1.0
C      1  0.5668700000000  0.4800190000000  0.5387360000000 1.0
C      1  0.4915490000000  0.4884610000000  0.4078200000000 1.0
C      1  0.5433260000000  0.5778060000000  0.5560410000000 1.0
C      1  0.4549570000000  0.5082490000000  0.5898960000000 1.0
C      1  0.4936830000000  0.6116810000000  0.5400880000000 1.0
C      1  0.5450770000000  0.4235640000000  0.4307330000000 1.0
C      1  0.3987410000000  0.4276180000000  0.4860040000000 1.0
C      1  0.4994930000000  0.6370700000000  0.5405720000000 1.0
C      1  0.5000120000000  0.5307040000000  0.5982060000000 1.0
C      1  0.4047950000000  0.5425860000000  0.5152590000000 1.0
C      1  0.4530970000000  0.5120200000000  0.4864260000000 1.0
C      1  0.5298250000000  0.5185060000000  0.5659940000000 1.0
C      1  0.4736090000000  0.4304750000000  0.5576030000000 1.0
C      1  0.5089250000000  0.4788970000000  0.6054230000000 1.0
C      1  0.5089120000000  0.4655380000000  0.4086710000000 1.0
C      1  0.6234140000000  0.5263360000000  0.5181480000000 1.0
C      1  0.5191680000000  0.5235800000000  0.4405040000000 1.0
C      1  0.5714600000000  0.5753480000000  0.4569080000000 1.0
C      1  0.5638610000000  0.4874270000000  0.5679450000000 1.0
C      1  0.5942080000000  0.4837080000000  0.5288550000000 1.0
C      1  0.4147480000000  0.4635000000000  0.5757840000000 1.0
C      1  0.4726860000000  0.4082790000000  0.5379290000000 1.0
C      1  0.4420810000000  0.4199780000000  0.4681280000000 1.0
C      1  0.4847100000000  0.4671080000000  0.5928730000000 1.0
C      1  0.4901350000000  0.4393350000000  0.5814450000000 1.0
C      1  0.4648410000000  0.4797830000000  0.5506480000000 1.0
C      1  0.5454640000000  0.4787420000000  0.5163050000000 1.0
C      1  0.5645390000000  0.4197000000000  0.4757750000000 1.0
C      1  0.5309660000000  0.5557510000000  0.4841470000000 1.0
C      1  0.3972590000000  0.5497380000000  0.4672130000000 1.0
C      1  0.4668380000000  0.4845590000000  0.5796390000000 1.0
C      1  0.5766950000000  0.5480210000000  0.5428700000000 1.0
C      1  0.4879070000000  0.5832180000000  0.5382590000000 1.0
C      1  0.4745480000000  0.5036980000000  0.4467940000000 1.0
C      1  0.4284550000000  0.5141220000000  0.5799370000000 1.0
C      1  0.4619400000000  0.4354550000000  0.4548490000000 1.0
C      1  0.5167430000000  0.4703850000000  0.5140520000000 1.0
C      1  0.4750270000000  0.5019690000000  0.5318790000000 1.0
C      1  0.6247400000000  0.5531870000000  0.5142710000000 1.0
C      1  0.4637160000000  0.5228360000000  0.3914610000000 1.0
C      1  0.4477390000000  0.4074920000000  0.4931900000000 1.0
C      1  0.4804890000000  0.6006260000000  0.4313440000000 1.0
C      1  0.4133270000000  0.4913200000000  0.5697170000000 1.0
C      1  0.5529320000000  0.5238830000000  0.5100430000000 1.0
C      1  0.4480920000000  0.5548750000000  0.4706050000000 1.0
C      1  0.5582850000000  0.4691400000000  0.5905800000000 1.0
C      1  0.5583510000000  0.5657770000000  0.5794530000000 1.0
C      1  0.4919000000000  0.5694220000000  0.5105150000000 1.0
C      1  0.5044080000000  0.5423860000000  0.5218320000000 1.0
C      1  0.4735480000000  0.4346820000000  0.4290450000000 1.0
C      1  0.4141080000000  0.4485230000000  0.4412570000000 1.0
C      1  0.4303860000000  0.4960130000000  0.4862510000000 1.0
C      1  0.5804380000000  0.5814570000000  0.5101010000000 1.0
END
