TITL C-247202-1916-79 -0.000517374239258766 125000 -370.606742637743 0 0 61 (C1) n - 1
REM
REM in /home/nfs/bkarasulu/CARBON/AIRSS/Generating-Clusters/LCBOP/Only-C1/SD-CG/FIRE-HFTN
REM
REM
REM
REM
REM
REM ./C.cell (11c1c37f851c82e70ff6c80c92926a4b)
REM AIRSS Version 0.9.1 bugfix July 2018 build 013d7b7c2542+ Fri, 06 Jul 2018 19:26:36 +0100
REM compiler GCC version 9.2.1 20190827 (Red Hat 9.2.1-1)
REM options -cpp -mtune=generic -march=x86-64 -g -O0 -fpre-include=/usr/include/finclude/math-vector-fortran.h
REM seed 1796325427 197299928 -1112562297 494591275 1437557629 1795865229 1618613117 605609650 916898236 -1001361233 408962527 206202525 763967128 1125671457 378044858 1189479983 1660275633 968696814 489314291 1845938318 626930988 1398148114 -270693396 565545441 434510255 699651856 1476344868 381526735 -117163996 2034416899 -1865481329 -1440376508 547483655
REM
CELL 1.54180   50.00000   50.00000   50.00000   90.00000   90.00000   90.00000
LATT -1
SFAC C  
C      1  0.4368490000000  0.5528080000000  0.4484060000000 1.0
C      1  0.4375290000000  0.5666080000000  0.4989010000000 1.0
C      1  0.5203660000000  0.5015040000000  0.4386570000000 1.0
C      1  0.4907480000000  0.5074800000000  0.5963590000000 1.0
C      1  0.4504890000000  0.4719650000000  0.5449740000000 1.0
C      1  0.5051880000000  0.4824120000000  0.5422490000000 1.0
C      1  0.4750240000000  0.5110980000000  0.5731420000000 1.0
C      1  0.5738700000000  0.5218930000000  0.4404880000000 1.0
C      1  0.5080720000000  0.5369790000000  0.5459250000000 1.0
C      1  0.4737150000000  0.5132710000000  0.4800430000000 1.0
C      1  0.5629310000000  0.4831580000000  0.5015980000000 1.0
C      1  0.3803600000000  0.4443100000000  0.4850090000000 1.0
C      1  0.4367200000000  0.4883120000000  0.5265880000000 1.0
C      1  0.4563460000000  0.5372600000000  0.5354490000000 1.0
C      1  0.6209150000000  0.5241950000000  0.5005090000000 1.0
C      1  0.5950300000000  0.4920250000000  0.4712930000000 1.0
C      1  0.5537780000000  0.5756140000000  0.4868590000000 1.0
C      1  0.5210890000000  0.5005700000000  0.4872160000000 1.0
C      1  0.5733510000000  0.4728850000000  0.4763450000000 1.0
C      1  0.4857430000000  0.4382520000000  0.4892170000000 1.0
C      1  0.5001090000000  0.4589820000000  0.4481000000000 1.0
C      1  0.5265120000000  0.4547820000000  0.5087360000000 1.0
C      1  0.4902550000000  0.4897410000000  0.5209190000000 1.0
C      1  0.4975390000000  0.4580500000000  0.6024520000000 1.0
C      1  0.5066400000000  0.5785580000000  0.4961320000000 1.0
C      1  0.5581410000000  0.5227700000000  0.5295740000000 1.0
C      1  0.4474000000000  0.5616120000000  0.5238780000000 1.0
C      1  0.5942280000000  0.5051040000000  0.4463240000000 1.0
C      1  0.5330760000000  0.5214500000000  0.5442100000000 1.0
C      1  0.5267550000000  0.4948290000000  0.5528610000000 1.0
C      1  0.4922000000000  0.5585730000000  0.4862550000000 1.0
C      1  0.4283640000000  0.4606350000000  0.4711970000000 1.0
C      1  0.4757110000000  0.4347390000000  0.5621440000000 1.0
C      1  0.4448150000000  0.5392950000000  0.4263960000000 1.0
C      1  0.4767270000000  0.4512730000000  0.4650200000000 1.0
C      1  0.5251420000000  0.4491180000000  0.4614810000000 1.0
C      1  0.5355600000000  0.4808630000000  0.5027030000000 1.0
C      1  0.4544020000000  0.4688810000000  0.4664620000000 1.0
C      1  0.5752630000000  0.5069950000000  0.5123650000000 1.0
C      1  0.4884530000000  0.4396600000000  0.5852070000000 1.0
C      1  0.4941640000000  0.5025200000000  0.4962010000000 1.0
C      1  0.5581510000000  0.5537050000000  0.4724320000000 1.0
C      1  0.4729860000000  0.4983490000000  0.4345100000000 1.0
C      1  0.4591230000000  0.4881060000000  0.5669160000000 1.0
C      1  0.5532890000000  0.4576700000000  0.4612260000000 1.0
C      1  0.4404740000000  0.5150400000000  0.5267110000000 1.0
C      1  0.4983810000000  0.4845420000000  0.4342100000000 1.0
C      1  0.4040650000000  0.4523300000000  0.4777090000000 1.0
C      1  0.4617780000000  0.4957010000000  0.4609800000000 1.0
C      1  0.5147510000000  0.4398760000000  0.4880650000000 1.0
C      1  0.4797410000000  0.5313790000000  0.5523380000000 1.0
C      1  0.5319630000000  0.5869610000000  0.4973910000000 1.0
C      1  0.4607330000000  0.5185990000000  0.4193290000000 1.0
C      1  0.5313780000000  0.5122460000000  0.4625220000000 1.0
C      1  0.4636350000000  0.4468440000000  0.5395350000000 1.0
C      1  0.5533170000000  0.5301960000000  0.4582790000000 1.0
C      1  0.4709820000000  0.4380370000000  0.5134100000000 1.0
C      1  0.4714510000000  0.5414350000000  0.4789010000000 1.0
C      1  0.4462800000000  0.5544270000000  0.4748550000000 1.0
C      1  0.4990900000000  0.4843740000000  0.6075590000000 1.0
C      1  0.5988590000000  0.5091540000000  0.4952800000000 1.0
END
