TITL C-247198-3593-239 2.32526985996039e-07 125000 -776.934258475442 0 0 127 (C1) n - 1
REM
REM in /home/nfs/bkarasulu/CARBON/AIRSS/Generating-Clusters/LCBOP/Only-C1/SD-CG/FIRE-HFTN
REM
REM
REM
REM
REM
REM ./C.cell (11c1c37f851c82e70ff6c80c92926a4b)
REM AIRSS Version 0.9.1 bugfix July 2018 build 013d7b7c2542+ Fri, 06 Jul 2018 19:26:36 +0100
REM compiler GCC version 9.2.1 20190827 (Red Hat 9.2.1-1)
REM options -cpp -mtune=generic -march=x86-64 -g -O0 -fpre-include=/usr/include/finclude/math-vector-fortran.h
REM seed 918927356 1660942809 -1055841509 364737736 597645569 -78020376 -810547182 929465693 -1831903700 -1652102736 -2138827369 2036544741 2036411705 5446685 1857596591 1634488121 872405164 556878592 -578606466 2106452732 -1110472157 1815242239 -995612063 1419292486 1022915339 -570431394 2120437047 1707933757 127994800 -368402726 790850242 1257092015 1368952653
REM
CELL 1.54180   50.00000   50.00000   50.00000   90.00000   90.00000   90.00000
LATT -1
SFAC C  
C      1  0.5710000000000  0.4466500000000  0.5614830000000 1.0
C      1  0.6152470000000  0.4811650000000  0.5127720000000 1.0
C      1  0.5362250000000  0.5697210000000  0.4309650000000 1.0
C      1  0.4385150000000  0.5689480000000  0.4497090000000 1.0
C      1  0.5153800000000  0.3926560000000  0.5222920000000 1.0
C      1  0.5315270000000  0.4477020000000  0.4961100000000 1.0
C      1  0.5264100000000  0.5467730000000  0.4166300000000 1.0
C      1  0.5565300000000  0.4166320000000  0.4732080000000 1.0
C      1  0.5199010000000  0.4771180000000  0.5295220000000 1.0
C      1  0.4260830000000  0.5445300000000  0.4626950000000 1.0
C      1  0.4324680000000  0.4831700000000  0.4089540000000 1.0
C      1  0.5123660000000  0.5181140000000  0.5116760000000 1.0
C      1  0.5741470000000  0.5270740000000  0.5910750000000 1.0
C      1  0.4361590000000  0.5047900000000  0.3932730000000 1.0
C      1  0.5415820000000  0.4992840000000  0.5705300000000 1.0
C      1  0.4808320000000  0.3983290000000  0.5565830000000 1.0
C      1  0.5243160000000  0.5248620000000  0.4665220000000 1.0
C      1  0.5800290000000  0.5066250000000  0.4945050000000 1.0
C      1  0.4697350000000  0.3950490000000  0.4544250000000 1.0
C      1  0.4366410000000  0.4145830000000  0.4862170000000 1.0
C      1  0.4484860000000  0.5254450000000  0.4714430000000 1.0
C      1  0.4194250000000  0.5475080000000  0.5347260000000 1.0
C      1  0.3997870000000  0.4907970000000  0.5469660000000 1.0
C      1  0.5436820000000  0.5947200000000  0.5010220000000 1.0
C      1  0.5221060000000  0.5436570000000  0.5762540000000 1.0
C      1  0.4362470000000  0.4075210000000  0.5395710000000 1.0
C      1  0.4078250000000  0.4654410000000  0.5358940000000 1.0
C      1  0.4285660000000  0.4094140000000  0.5134090000000 1.0
C      1  0.4103690000000  0.5536960000000  0.4864890000000 1.0
C      1  0.4536270000000  0.5985330000000  0.5159670000000 1.0
C      1  0.5126360000000  0.4813740000000  0.4096940000000 1.0
C      1  0.5292590000000  0.4965430000000  0.4631110000000 1.0
C      1  0.5402490000000  0.5459250000000  0.4827620000000 1.0
C      1  0.4941020000000  0.4553130000000  0.5591450000000 1.0
C      1  0.4751080000000  0.5587660000000  0.5783530000000 1.0
C      1  0.5262750000000  0.5377660000000  0.5296000000000 1.0
C      1  0.5099850000000  0.4059800000000  0.4975610000000 1.0
C      1  0.5870430000000  0.4646690000000  0.5466630000000 1.0
C      1  0.4826510000000  0.4156600000000  0.4960470000000 1.0
C      1  0.4677590000000  0.4870020000000  0.4906660000000 1.0
C      1  0.5305690000000  0.4966380000000  0.5137840000000 1.0
C      1  0.4743430000000  0.4560980000000  0.5794450000000 1.0
C      1  0.4854560000000  0.4092740000000  0.4378640000000 1.0
C      1  0.4597850000000  0.5931420000000  0.4889790000000 1.0
C      1  0.5297740000000  0.5224340000000  0.5570810000000 1.0
C      1  0.4885150000000  0.4889550000000  0.4184390000000 1.0
C      1  0.3874770000000  0.5137660000000  0.4400660000000 1.0
C      1  0.5259180000000  0.5815230000000  0.4548990000000 1.0
C      1  0.4636820000000  0.5469410000000  0.4071540000000 1.0
C      1  0.4678450000000  0.4935600000000  0.4373240000000 1.0
C      1  0.4907600000000  0.5594130000000  0.5037900000000 1.0
C      1  0.4413450000000  0.4837610000000  0.5645020000000 1.0
C      1  0.5567140000000  0.4746510000000  0.4313520000000 1.0
C      1  0.4991100000000  0.4336180000000  0.4411830000000 1.0
C      1  0.4894890000000  0.4524870000000  0.4603010000000 1.0
C      1  0.4705120000000  0.5173730000000  0.4530620000000 1.0
C      1  0.5501590000000  0.5435510000000  0.5107140000000 1.0
C      1  0.3832220000000  0.4877000000000  0.4438560000000 1.0
C      1  0.5096920000000  0.4353050000000  0.5442120000000 1.0
C      1  0.3988880000000  0.4669460000000  0.4498390000000 1.0
C      1  0.5447730000000  0.4750470000000  0.4773400000000 1.0
C      1  0.4065070000000  0.5318480000000  0.4443430000000 1.0
C      1  0.4845150000000  0.5793960000000  0.4841370000000 1.0
C      1  0.5693060000000  0.5025480000000  0.5775500000000 1.0
C      1  0.5202440000000  0.6054910000000  0.5149810000000 1.0
C      1  0.4974270000000  0.5812410000000  0.4580290000000 1.0
C      1  0.4081660000000  0.5571900000000  0.5126740000000 1.0
C      1  0.4558650000000  0.4504760000000  0.5256800000000 1.0
C      1  0.4739050000000  0.4421770000000  0.5048090000000 1.0
C      1  0.5432130000000  0.5830440000000  0.5496180000000 1.0
C      1  0.5872140000000  0.4927140000000  0.5573040000000 1.0
C      1  0.5338020000000  0.4734310000000  0.5789730000000 1.0
C      1  0.4414470000000  0.5911510000000  0.4675410000000 1.0
C      1  0.4803390000000  0.5096420000000  0.5879070000000 1.0
C      1  0.5605280000000  0.5856960000000  0.5249410000000 1.0
C      1  0.5316010000000  0.4213250000000  0.4861710000000 1.0
C      1  0.5165640000000  0.5868520000000  0.5372620000000 1.0
C      1  0.4558690000000  0.5918200000000  0.5418620000000 1.0
C      1  0.4966600000000  0.4808760000000  0.5451690000000 1.0
C      1  0.5459290000000  0.5631010000000  0.5710240000000 1.0
C      1  0.5999300000000  0.5461960000000  0.4771880000000 1.0
C      1  0.5960530000000  0.5148340000000  0.5405020000000 1.0
C      1  0.5615190000000  0.5036080000000  0.4277130000000 1.0
C      1  0.5875690000000  0.5215290000000  0.4710350000000 1.0
C      1  0.5067560000000  0.5617750000000  0.5277780000000 1.0
C      1  0.4780690000000  0.5015070000000  0.5409340000000 1.0
C      1  0.5988940000000  0.4588420000000  0.5201870000000 1.0
C      1  0.4224530000000  0.5049860000000  0.5578190000000 1.0
C      1  0.4623730000000  0.4031240000000  0.4802390000000 1.0
C      1  0.4556640000000  0.4109590000000  0.5605600000000 1.0
C      1  0.6009930000000  0.5056790000000  0.5141110000000 1.0
C      1  0.5639650000000  0.4621600000000  0.4576440000000 1.0
C      1  0.4951640000000  0.5269640000000  0.4659470000000 1.0
C      1  0.5750150000000  0.4391140000000  0.4724930000000 1.0
C      1  0.5906590000000  0.5411690000000  0.5514800000000 1.0
C      1  0.4435690000000  0.4767790000000  0.4348150000000 1.0
C      1  0.4574920000000  0.5164770000000  0.5278850000000 1.0
C      1  0.5726110000000  0.5497770000000  0.5733010000000 1.0
C      1  0.5290180000000  0.3692440000000  0.5244980000000 1.0
C      1  0.5241770000000  0.4501300000000  0.5230030000000 1.0
C      1  0.4571390000000  0.5658640000000  0.4286820000000 1.0
C      1  0.5488200000000  0.4509520000000  0.5763410000000 1.0
C      1  0.4303260000000  0.4369950000000  0.4691320000000 1.0
C      1  0.5398540000000  0.5755670000000  0.4786160000000 1.0
C      1  0.4782070000000  0.4618920000000  0.4845250000000 1.0
C      1  0.4491300000000  0.5282270000000  0.3931810000000 1.0
C      1  0.5045820000000  0.4072820000000  0.5442790000000 1.0
C      1  0.5432260000000  0.5231760000000  0.4161340000000 1.0
C      1  0.5723360000000  0.5614010000000  0.5157290000000 1.0
C      1  0.4263380000000  0.4597240000000  0.4519450000000 1.0
C      1  0.4614450000000  0.5161770000000  0.4983150000000 1.0
C      1  0.3914250000000  0.4485490000000  0.5224980000000 1.0
C      1  0.4572770000000  0.4328570000000  0.5793070000000 1.0
C      1  0.5813360000000  0.5141250000000  0.4449190000000 1.0
C      1  0.4632230000000  0.5774960000000  0.5633050000000 1.0
C      1  0.4364870000000  0.4630930000000  0.5425140000000 1.0
C      1  0.4893050000000  0.5304480000000  0.4957440000000 1.0
C      1  0.5949440000000  0.5610600000000  0.4991160000000 1.0
C      1  0.4989420000000  0.5493380000000  0.4111800000000 1.0
C      1  0.4933320000000  0.5372650000000  0.5838120000000 1.0
C      1  0.5895780000000  0.4437450000000  0.4974130000000 1.0
C      1  0.4838970000000  0.5734280000000  0.4350570000000 1.0
C      1  0.5330400000000  0.4640430000000  0.4188060000000 1.0
C      1  0.4341940000000  0.5251060000000  0.5418530000000 1.0
C      1  0.5552750000000  0.4925100000000  0.4994480000000 1.0
C      1  0.5227250000000  0.4391390000000  0.4269510000000 1.0
C      1  0.4642620000000  0.4839830000000  0.5824170000000 1.0
END
