TITL C-247201-3759-632 0.276730039239681 125000 -253.667636904982 0 0 43 (C1) n - 1
REM
REM in /home/nfs/bkarasulu/CARBON/AIRSS/Generating-Clusters/LCBOP/Only-C1/SD-CG/FIRE-HFTN
REM
REM
REM
REM
REM
REM ./C.cell (11c1c37f851c82e70ff6c80c92926a4b)
REM AIRSS Version 0.9.1 bugfix July 2018 build 013d7b7c2542+ Fri, 06 Jul 2018 19:26:36 +0100
REM compiler GCC version 9.2.1 20190827 (Red Hat 9.2.1-1)
REM options -cpp -mtune=generic -march=x86-64 -g -O0 -fpre-include=/usr/include/finclude/math-vector-fortran.h
REM seed 454342095 1973960149 -535277568 -1145078596 -1128911876 382195726 2135696777 475052198 -416218950 1703789878 718643523 282884357 -1298753458 533423947 1419746573 820913955 922631142 1677233150 565073752 1450661026 -488614413 864031539 -1553600825 -1598350166 -1744152080 925942697 530071179 1743120174 -290907576 -24333068 -1622441560 407331518 -76405001
REM
CELL 1.54180   50.00000   50.00000   50.00000   90.00000   90.00000   90.00000
LATT -1
SFAC C  
C      1  0.4328470000000  0.5431920000000  0.3931510000000 1.0
C      1  0.4728490000000  0.5256640000000  0.5467340000000 1.0
C      1  0.4379990000000  0.5041460000000  0.5191110000000 1.0
C      1  0.5091000000000  0.4519190000000  0.4715030000000 1.0
C      1  0.4385430000000  0.5273900000000  0.4136540000000 1.0
C      1  0.5328380000000  0.6195920000000  0.5182550000000 1.0
C      1  0.5110090000000  0.5542510000000  0.5427400000000 1.0
C      1  0.6030920000000  0.3982630000000  0.5931470000000 1.0
C      1  0.6177220000000  0.3825520000000  0.6079390000000 1.0
C      1  0.5156910000000  0.5680280000000  0.5187180000000 1.0
C      1  0.5641380000000  0.4282330000000  0.5090690000000 1.0
C      1  0.4777820000000  0.4941670000000  0.4652630000000 1.0
C      1  0.4986980000000  0.5324220000000  0.5553970000000 1.0
C      1  0.5306700000000  0.5444400000000  0.4761810000000 1.0
C      1  0.5220240000000  0.5203860000000  0.4628420000000 1.0
C      1  0.5473710000000  0.4755950000000  0.4571300000000 1.0
C      1  0.5705280000000  0.4265900000000  0.5347550000000 1.0
C      1  0.4282760000000  0.4894950000000  0.4990930000000 1.0
C      1  0.4870340000000  0.5383000000000  0.4891380000000 1.0
C      1  0.4130300000000  0.4653310000000  0.4596460000000 1.0
C      1  0.3813210000000  0.4315830000000  0.4347780000000 1.0
C      1  0.5530310000000  0.4367240000000  0.4865180000000 1.0
C      1  0.5410930000000  0.6443150000000  0.5177820000000 1.0
C      1  0.4442880000000  0.5117660000000  0.4342530000000 1.0
C      1  0.5588050000000  0.4524780000000  0.5738840000000 1.0
C      1  0.4302400000000  0.4835800000000  0.4717800000000 1.0
C      1  0.5286820000000  0.4953140000000  0.5796860000000 1.0
C      1  0.5882240000000  0.4142290000000  0.5781150000000 1.0
C      1  0.5244600000000  0.5944610000000  0.5187020000000 1.0
C      1  0.4507320000000  0.4965970000000  0.4567580000000 1.0
C      1  0.4451040000000  0.5617960000000  0.4949460000000 1.0
C      1  0.4272440000000  0.5587370000000  0.3729860000000 1.0
C      1  0.4883070000000  0.4684520000000  0.4692580000000 1.0
C      1  0.4565130000000  0.5244790000000  0.5240730000000 1.0
C      1  0.5392430000000  0.5007870000000  0.4533200000000 1.0
C      1  0.5109510000000  0.5541640000000  0.4947250000000 1.0
C      1  0.4938930000000  0.5168210000000  0.4706270000000 1.0
C      1  0.3970310000000  0.4482930000000  0.4471720000000 1.0
C      1  0.5131380000000  0.5154510000000  0.5721560000000 1.0
C      1  0.5725550000000  0.4310600000000  0.5622840000000 1.0
C      1  0.4625060000000  0.5420930000000  0.5023850000000 1.0
C      1  0.5442270000000  0.4738150000000  0.5798260000000 1.0
C      1  0.5371690000000  0.4530450000000  0.4705160000000 1.0
END
