TITL C-247202-1916-413 0.000217604893799713 125000 -1170.18468627771 0 0 191 (C1) n - 1
REM
REM in /home/nfs/bkarasulu/CARBON/AIRSS/Generating-Clusters/LCBOP/Only-C1/SD-CG/FIRE-HFTN
REM
REM
REM
REM
REM
REM ./C.cell (11c1c37f851c82e70ff6c80c92926a4b)
REM AIRSS Version 0.9.1 bugfix July 2018 build 013d7b7c2542+ Fri, 06 Jul 2018 19:26:36 +0100
REM compiler GCC version 9.2.1 20190827 (Red Hat 9.2.1-1)
REM options -cpp -mtune=generic -march=x86-64 -g -O0 -fpre-include=/usr/include/finclude/math-vector-fortran.h
REM seed 1430262667 -572600291 1248509909 -360413776 922584957 -806737252 -820604814 -1208146537 147030448 1001971747 322844027 -1650429901 -326491583 -21795897 2087929897 1520073493 937342742 -1137965392 1795961063 -1553271435 567939627 -465486644 614483372 -1447214021 1018368257 -1762757475 -119616955 -1501711701 -1348685145 1871405803 1933606797 854370308 -1547296416
REM
CELL 1.54180   50.00000   50.00000   50.00000   90.00000   90.00000   90.00000
LATT -1
SFAC C  
C      1  0.4795470000000  0.3970150000000  0.5049330000000 1.0
C      1  0.3933910000000  0.4565930000000  0.4978200000000 1.0
C      1  0.5083980000000  0.4589230000000  0.5398920000000 1.0
C      1  0.5092030000000  0.4290250000000  0.5926110000000 1.0
C      1  0.4377830000000  0.4064570000000  0.4794600000000 1.0
C      1  0.4327190000000  0.4383140000000  0.4270770000000 1.0
C      1  0.4230140000000  0.4273580000000  0.4704110000000 1.0
C      1  0.5813450000000  0.5693870000000  0.4787560000000 1.0
C      1  0.4517650000000  0.5783990000000  0.5600830000000 1.0
C      1  0.5646990000000  0.5725250000000  0.4235350000000 1.0
C      1  0.5870720000000  0.5547140000000  0.4288220000000 1.0
C      1  0.4966400000000  0.4336380000000  0.5364850000000 1.0
C      1  0.5415000000000  0.4886970000000  0.6231050000000 1.0
C      1  0.4172210000000  0.4562290000000  0.4789540000000 1.0
C      1  0.6037420000000  0.4244310000000  0.4457130000000 1.0
C      1  0.6130660000000  0.5042160000000  0.4171930000000 1.0
C      1  0.5459350000000  0.4691400000000  0.5177720000000 1.0
C      1  0.4917440000000  0.5507100000000  0.3962010000000 1.0
C      1  0.3996890000000  0.5839700000000  0.5141600000000 1.0
C      1  0.5188920000000  0.4286180000000  0.3685150000000 1.0
C      1  0.4988550000000  0.5577940000000  0.4713990000000 1.0
C      1  0.4900090000000  0.5291580000000  0.5897150000000 1.0
C      1  0.5322040000000  0.5818860000000  0.4947780000000 1.0
C      1  0.4653370000000  0.5535990000000  0.3873620000000 1.0
C      1  0.4975980000000  0.4969850000000  0.6270450000000 1.0
C      1  0.4641090000000  0.4837280000000  0.5313710000000 1.0
C      1  0.5945270000000  0.5556890000000  0.4569630000000 1.0
C      1  0.5365640000000  0.5096880000000  0.5992850000000 1.0
C      1  0.5091100000000  0.3908060000000  0.5544140000000 1.0
C      1  0.4176450000000  0.6039360000000  0.5114550000000 1.0
C      1  0.5673580000000  0.5605770000000  0.5332820000000 1.0
C      1  0.4809670000000  0.5180650000000  0.4306120000000 1.0
C      1  0.5961610000000  0.5064380000000  0.4596750000000 1.0
C      1  0.5162730000000  0.4737070000000  0.6286670000000 1.0
C      1  0.5697780000000  0.5232350000000  0.4998030000000 1.0
C      1  0.5404050000000  0.6054770000000  0.5079400000000 1.0
C      1  0.4638720000000  0.5309490000000  0.6397500000000 1.0
C      1  0.4048600000000  0.4115930000000  0.5204590000000 1.0
C      1  0.5165140000000  0.5159360000000  0.5327500000000 1.0
C      1  0.5271540000000  0.4965230000000  0.3604510000000 1.0
C      1  0.4604440000000  0.4380910000000  0.3898860000000 1.0
C      1  0.5581750000000  0.4263170000000  0.5850450000000 1.0
C      1  0.5535250000000  0.3940020000000  0.4981670000000 1.0
C      1  0.4298390000000  0.5575110000000  0.5596510000000 1.0
C      1  0.5586970000000  0.4911810000000  0.5288910000000 1.0
C      1  0.5348190000000  0.4177780000000  0.5951320000000 1.0
C      1  0.5730420000000  0.4766920000000  0.4183290000000 1.0
C      1  0.4213030000000  0.5628460000000  0.3989940000000 1.0
C      1  0.4936130000000  0.4243950000000  0.5072760000000 1.0
C      1  0.4647450000000  0.5265200000000  0.4996600000000 1.0
C      1  0.3624550000000  0.4943190000000  0.5050450000000 1.0
C      1  0.4639270000000  0.4129440000000  0.5647090000000 1.0
C      1  0.4554660000000  0.5525670000000  0.5041460000000 1.0
C      1  0.5462050000000  0.5132410000000  0.4218830000000 1.0
C      1  0.6013150000000  0.5306810000000  0.4155290000000 1.0
C      1  0.4388540000000  0.5475550000000  0.3844610000000 1.0
C      1  0.6072180000000  0.5316770000000  0.4638260000000 1.0
C      1  0.5433290000000  0.4412050000000  0.4269720000000 1.0
C      1  0.4604130000000  0.5088860000000  0.5429810000000 1.0
C      1  0.5421890000000  0.5404240000000  0.4693760000000 1.0
C      1  0.4324970000000  0.4072420000000  0.5266620000000 1.0
C      1  0.4116470000000  0.4674630000000  0.5523990000000 1.0
C      1  0.5286720000000  0.5827270000000  0.5636280000000 1.0
C      1  0.4501810000000  0.3996740000000  0.5045060000000 1.0
C      1  0.4344910000000  0.5816570000000  0.4163890000000 1.0
C      1  0.4225360000000  0.4622790000000  0.5982800000000 1.0
C      1  0.4596120000000  0.6002060000000  0.4832800000000 1.0
C      1  0.5579930000000  0.4491460000000  0.5018460000000 1.0
C      1  0.4076900000000  0.5570520000000  0.5161920000000 1.0
C      1  0.5535510000000  0.5767020000000  0.5511070000000 1.0
C      1  0.5178550000000  0.4878590000000  0.4662600000000 1.0
C      1  0.5002060000000  0.3801940000000  0.4910510000000 1.0
C      1  0.5481160000000  0.4220790000000  0.5060570000000 1.0
C      1  0.4937140000000  0.3764290000000  0.4633820000000 1.0
C      1  0.5191340000000  0.4692180000000  0.5639230000000 1.0
C      1  0.4808270000000  0.5664690000000  0.5120690000000 1.0
C      1  0.4946020000000  0.4320170000000  0.4348550000000 1.0
C      1  0.5415300000000  0.5415880000000  0.5925770000000 1.0
C      1  0.4354150000000  0.4502920000000  0.5502090000000 1.0
C      1  0.6124230000000  0.4677620000000  0.5515860000000 1.0
C      1  0.5566620000000  0.5375770000000  0.5218150000000 1.0
C      1  0.4530340000000  0.4230400000000  0.4134800000000 1.0
C      1  0.3838510000000  0.5143190000000  0.5707180000000 1.0
C      1  0.4993770000000  0.5284130000000  0.4117780000000 1.0
C      1  0.4805130000000  0.3872500000000  0.4421590000000 1.0
C      1  0.4751250000000  0.4117020000000  0.4285930000000 1.0
C      1  0.6064530000000  0.4534260000000  0.4444600000000 1.0
C      1  0.3988800000000  0.5173030000000  0.5462970000000 1.0
C      1  0.5336220000000  0.6166560000000  0.5316300000000 1.0
C      1  0.5156670000000  0.4922570000000  0.3851400000000 1.0
C      1  0.4982450000000  0.4692350000000  0.3880060000000 1.0
C      1  0.4366900000000  0.5361910000000  0.5775290000000 1.0
C      1  0.4552400000000  0.5804150000000  0.4615200000000 1.0
C      1  0.4355960000000  0.4666900000000  0.4325540000000 1.0
C      1  0.3848860000000  0.4913660000000  0.5852180000000 1.0
C      1  0.4509120000000  0.5162930000000  0.5668280000000 1.0
C      1  0.5092310000000  0.4994120000000  0.5113670000000 1.0
C      1  0.5793260000000  0.5006330000000  0.5126650000000 1.0
C      1  0.4590610000000  0.5888650000000  0.4052130000000 1.0
C      1  0.5139660000000  0.6040320000000  0.5491380000000 1.0
C      1  0.5211800000000  0.4241750000000  0.4959110000000 1.0
C      1  0.4215650000000  0.4779010000000  0.4565700000000 1.0
C      1  0.5035290000000  0.5764460000000  0.3999760000000 1.0
C      1  0.5063130000000  0.4548930000000  0.6064390000000 1.0
C      1  0.4021950000000  0.4895410000000  0.5343960000000 1.0
C      1  0.4909510000000  0.4767900000000  0.4572430000000 1.0
C      1  0.4591560000000  0.4656940000000  0.5532460000000 1.0
C      1  0.3867580000000  0.4810090000000  0.5114290000000 1.0
C      1  0.4894990000000  0.5578800000000  0.5371960000000 1.0
C      1  0.3398350000000  0.4882260000000  0.5192870000000 1.0
C      1  0.4416800000000  0.4220310000000  0.5491770000000 1.0
C      1  0.6042290000000  0.4861700000000  0.4795770000000 1.0
C      1  0.5746710000000  0.4377320000000  0.3897300000000 1.0
C      1  0.5704190000000  0.5007270000000  0.4329730000000 1.0
C      1  0.4717740000000  0.4871290000000  0.4791950000000 1.0
C      1  0.4574030000000  0.5554780000000  0.6307700000000 1.0
C      1  0.5743230000000  0.3924960000000  0.4782290000000 1.0
C      1  0.4984840000000  0.4766640000000  0.5845870000000 1.0
C      1  0.5985280000000  0.5762790000000  0.5013960000000 1.0
C      1  0.4699260000000  0.4650910000000  0.3939330000000 1.0
C      1  0.5271000000000  0.3792130000000  0.5056920000000 1.0
C      1  0.5224840000000  0.3782070000000  0.5345010000000 1.0
C      1  0.5217870000000  0.5114640000000  0.4061240000000 1.0
C      1  0.5176280000000  0.4726100000000  0.5172910000000 1.0
C      1  0.5217370000000  0.5629840000000  0.5835470000000 1.0
C      1  0.6175460000000  0.5958350000000  0.4987730000000 1.0
C      1  0.5948660000000  0.5627250000000  0.5265440000000 1.0
C      1  0.4149230000000  0.5553870000000  0.4520970000000 1.0
C      1  0.5236980000000  0.4138700000000  0.3475760000000 1.0
C      1  0.4530110000000  0.4854530000000  0.6259420000000 1.0
C      1  0.5924340000000  0.4627790000000  0.4682560000000 1.0
C      1  0.5666880000000  0.4495910000000  0.5718560000000 1.0
C      1  0.5440800000000  0.5158880000000  0.5357730000000 1.0
C      1  0.4100750000000  0.5444670000000  0.5413570000000 1.0
C      1  0.4321470000000  0.5768440000000  0.4444190000000 1.0
C      1  0.5471310000000  0.4881680000000  0.4692410000000 1.0
C      1  0.4852800000000  0.5963050000000  0.4048590000000 1.0
C      1  0.5624830000000  0.4597850000000  0.4728730000000 1.0
C      1  0.4459700000000  0.6014370000000  0.5107040000000 1.0
C      1  0.5931630000000  0.4529690000000  0.5629830000000 1.0
C      1  0.4392690000000  0.4605360000000  0.4987450000000 1.0
C      1  0.4876120000000  0.6095910000000  0.5363800000000 1.0
C      1  0.5798980000000  0.5159900000000  0.5716300000000 1.0
C      1  0.4696570000000  0.5735570000000  0.5846040000000 1.0
C      1  0.4741220000000  0.5584830000000  0.4582820000000 1.0
C      1  0.4029960000000  0.4703310000000  0.5798760000000 1.0
C      1  0.4268790000000  0.5486640000000  0.4971130000000 1.0
C      1  0.5567150000000  0.5165420000000  0.4755860000000 1.0
C      1  0.5448640000000  0.5893660000000  0.4326580000000 1.0
C      1  0.3616460000000  0.5128420000000  0.4849260000000 1.0
C      1  0.4174910000000  0.5065890000000  0.4641660000000 1.0
C      1  0.5048640000000  0.6129630000000  0.4618800000000 1.0
C      1  0.6054190000000  0.4911860000000  0.5087700000000 1.0
C      1  0.6034290000000  0.5164010000000  0.5521050000000 1.0
C      1  0.4883020000000  0.4476000000000  0.4579520000000 1.0
C      1  0.4909780000000  0.6234610000000  0.5102610000000 1.0
C      1  0.5638980000000  0.4514680000000  0.4106590000000 1.0
C      1  0.5169910000000  0.4367790000000  0.4173210000000 1.0
C      1  0.4491060000000  0.4710400000000  0.6020990000000 1.0
C      1  0.4938660000000  0.4160260000000  0.5626920000000 1.0
C      1  0.5478740000000  0.4712840000000  0.5700540000000 1.0
C      1  0.3891650000000  0.4312680000000  0.5104640000000 1.0
C      1  0.5910280000000  0.4048350000000  0.4602970000000 1.0
C      1  0.5521200000000  0.5659130000000  0.4799700000000 1.0
C      1  0.6159820000000  0.4769520000000  0.4267910000000 1.0
C      1  0.4789990000000  0.4900320000000  0.4330680000000 1.0
C      1  0.6142610000000  0.4921520000000  0.5371660000000 1.0
C      1  0.4183030000000  0.5352840000000  0.4721240000000 1.0
C      1  0.4682350000000  0.5310890000000  0.4519930000000 1.0
C      1  0.4590220000000  0.4771090000000  0.4180670000000 1.0
C      1  0.4604010000000  0.5975090000000  0.5377320000000 1.0
C      1  0.4686310000000  0.4708320000000  0.5801030000000 1.0
C      1  0.4850480000000  0.6151370000000  0.4831860000000 1.0
C      1  0.4802420000000  0.4382800000000  0.4835870000000 1.0
C      1  0.4612340000000  0.4765130000000  0.5038110000000 1.0
C      1  0.5462490000000  0.4408750000000  0.4548350000000 1.0
C      1  0.5037300000000  0.5733340000000  0.4945100000000 1.0
C      1  0.4574010000000  0.5736010000000  0.6106420000000 1.0
C      1  0.4716710000000  0.5041800000000  0.6350950000000 1.0
C      1  0.6099430000000  0.5423250000000  0.5400790000000 1.0
C      1  0.4652330000000  0.5141470000000  0.4751770000000 1.0
C      1  0.5698630000000  0.5409620000000  0.5837980000000 1.0
C      1  0.5042820000000  0.5048910000000  0.5973450000000 1.0
C      1  0.5251490000000  0.6032520000000  0.4459560000000 1.0
C      1  0.5148100000000  0.5350190000000  0.4723390000000 1.0
C      1  0.5123030000000  0.4443520000000  0.3904440000000 1.0
C      1  0.4937720000000  0.5568420000000  0.5856570000000 1.0
C      1  0.5571660000000  0.4971340000000  0.5785200000000 1.0
C      1  0.5103430000000  0.5094920000000  0.4846310000000 1.0
C      1  0.5014250000000  0.5354280000000  0.5439880000000 1.0
C      1  0.5261970000000  0.4261490000000  0.4681960000000 1.0
END
