TITL C-247202-1916-280 -2.73069842463951e-06 125000 -1042.55642204934 0 0 171 (C1) n - 1
REM
REM in /home/nfs/bkarasulu/CARBON/AIRSS/Generating-Clusters/LCBOP/Only-C1/SD-CG/FIRE-HFTN
REM
REM
REM
REM
REM
REM ./C.cell (11c1c37f851c82e70ff6c80c92926a4b)
REM AIRSS Version 0.9.1 bugfix July 2018 build 013d7b7c2542+ Fri, 06 Jul 2018 19:26:36 +0100
REM compiler GCC version 9.2.1 20190827 (Red Hat 9.2.1-1)
REM options -cpp -mtune=generic -march=x86-64 -g -O0 -fpre-include=/usr/include/finclude/math-vector-fortran.h
REM seed 1018508753 -2021696638 -2103339816 137642335 438395658 -710751181 -1887424340 -597934691 -1110570494 767486330 -156552625 1947148531 -893463730 219377451 1429331673 -1326574750 -361530333 9676644 -1829134801 1032859742 1147348012 -1569406629 -1337267300 1247500540 428548478 1200203746 1995188395 -1203091835 -1172354558 630520306 -1903847213 -1916765058 -1277213169
REM
CELL 1.54180   50.00000   50.00000   50.00000   90.00000   90.00000   90.00000
LATT -1
SFAC C  
C      1  0.5159980000000  0.4187140000000  0.4545350000000 1.0
C      1  0.5468510000000  0.6002050000000  0.4976270000000 1.0
C      1  0.4371290000000  0.5130580000000  0.5617060000000 1.0
C      1  0.3737420000000  0.4769510000000  0.4964000000000 1.0
C      1  0.4193770000000  0.4460490000000  0.5427170000000 1.0
C      1  0.5391520000000  0.5764260000000  0.6071850000000 1.0
C      1  0.5672120000000  0.5712510000000  0.5705520000000 1.0
C      1  0.5187430000000  0.4636830000000  0.3971340000000 1.0
C      1  0.4783610000000  0.5762640000000  0.5634310000000 1.0
C      1  0.5708790000000  0.5936680000000  0.5132740000000 1.0
C      1  0.5944860000000  0.5082110000000  0.4343740000000 1.0
C      1  0.4761130000000  0.4272130000000  0.4235530000000 1.0
C      1  0.4970560000000  0.3901570000000  0.4870680000000 1.0
C      1  0.4243190000000  0.4274660000000  0.4541230000000 1.0
C      1  0.5252000000000  0.4445660000000  0.5661980000000 1.0
C      1  0.5208990000000  0.3816100000000  0.4972190000000 1.0
C      1  0.4942650000000  0.5751930000000  0.4660760000000 1.0
C      1  0.5682320000000  0.5491670000000  0.4264790000000 1.0
C      1  0.4768840000000  0.4827630000000  0.5341200000000 1.0
C      1  0.5893190000000  0.4446740000000  0.4679210000000 1.0
C      1  0.4200330000000  0.4123200000000  0.4778390000000 1.0
C      1  0.4771360000000  0.5275500000000  0.6075200000000 1.0
C      1  0.4448330000000  0.5840190000000  0.4866940000000 1.0
C      1  0.4625290000000  0.5735420000000  0.4638490000000 1.0
C      1  0.5063200000000  0.4407330000000  0.6101100000000 1.0
C      1  0.5285750000000  0.4912250000000  0.4967560000000 1.0
C      1  0.4801380000000  0.5954980000000  0.5230470000000 1.0
C      1  0.3945080000000  0.4139150000000  0.4895540000000 1.0
C      1  0.6069060000000  0.4837560000000  0.5550880000000 1.0
C      1  0.5804030000000  0.5331940000000  0.5481220000000 1.0
C      1  0.3950090000000  0.4620670000000  0.5386380000000 1.0
C      1  0.5462080000000  0.4829350000000  0.5396590000000 1.0
C      1  0.5930610000000  0.4438740000000  0.5118710000000 1.0
C      1  0.5653960000000  0.5182740000000  0.5695020000000 1.0
C      1  0.3803820000000  0.4564400000000  0.5144930000000 1.0
C      1  0.4999130000000  0.5598890000000  0.4898270000000 1.0
C      1  0.4555870000000  0.4473720000000  0.4195970000000 1.0
C      1  0.5027300000000  0.4249780000000  0.5211960000000 1.0
C      1  0.4364260000000  0.6101180000000  0.4863390000000 1.0
C      1  0.5693290000000  0.4272340000000  0.5681510000000 1.0
C      1  0.5086810000000  0.5109900000000  0.4982390000000 1.0
C      1  0.5047910000000  0.4245360000000  0.4277830000000 1.0
C      1  0.5867310000000  0.5626280000000  0.5510960000000 1.0
C      1  0.6066830000000  0.4952380000000  0.4588270000000 1.0
C      1  0.5517710000000  0.5285900000000  0.5923070000000 1.0
C      1  0.5635070000000  0.5197650000000  0.5056910000000 1.0
C      1  0.5666710000000  0.4363220000000  0.5068530000000 1.0
C      1  0.4627480000000  0.5155850000000  0.3975920000000 1.0
C      1  0.5249970000000  0.5676250000000  0.5446850000000 1.0
C      1  0.5193610000000  0.5834750000000  0.4535790000000 1.0
C      1  0.4894160000000  0.5184910000000  0.4395200000000 1.0
C      1  0.4405600000000  0.4011520000000  0.4939840000000 1.0
C      1  0.5709150000000  0.4528340000000  0.5827800000000 1.0
C      1  0.4484190000000  0.4795250000000  0.5357240000000 1.0
C      1  0.5575240000000  0.5567050000000  0.5960000000000 1.0
C      1  0.5889650000000  0.5002930000000  0.4065000000000 1.0
C      1  0.4462860000000  0.4700030000000  0.4618750000000 1.0
C      1  0.4945510000000  0.4694500000000  0.4478420000000 1.0
C      1  0.5285120000000  0.4835450000000  0.6078190000000 1.0
C      1  0.4185210000000  0.5799660000000  0.3817490000000 1.0
C      1  0.4873640000000  0.5705520000000  0.5116690000000 1.0
C      1  0.5691520000000  0.4266200000000  0.4623390000000 1.0
C      1  0.4617620000000  0.4700480000000  0.4022920000000 1.0
C      1  0.5911460000000  0.5756180000000  0.5245360000000 1.0
C      1  0.5426780000000  0.4783770000000  0.4042280000000 1.0
C      1  0.6160270000000  0.4470480000000  0.5251110000000 1.0
C      1  0.4590620000000  0.4000050000000  0.5135540000000 1.0
C      1  0.5128080000000  0.5353500000000  0.4445610000000 1.0
C      1  0.4803100000000  0.4093740000000  0.5301260000000 1.0
C      1  0.4739380000000  0.4599070000000  0.4631200000000 1.0
C      1  0.4360310000000  0.5657690000000  0.5071360000000 1.0
C      1  0.5060670000000  0.5660560000000  0.4050290000000 1.0
C      1  0.5377780000000  0.4708500000000  0.4788450000000 1.0
C      1  0.5498380000000  0.4959380000000  0.5142210000000 1.0
C      1  0.4420300000000  0.4943870000000  0.5822650000000 1.0
C      1  0.4380900000000  0.5397920000000  0.5710290000000 1.0
C      1  0.4523780000000  0.5848040000000  0.4383040000000 1.0
C      1  0.4556410000000  0.5421750000000  0.5940140000000 1.0
C      1  0.5439580000000  0.4130090000000  0.4675990000000 1.0
C      1  0.5033550000000  0.4688920000000  0.6143460000000 1.0
C      1  0.5425220000000  0.4490310000000  0.4974330000000 1.0
C      1  0.5512130000000  0.5119960000000  0.4550290000000 1.0
C      1  0.5480650000000  0.4822590000000  0.4543230000000 1.0
C      1  0.5720380000000  0.5248660000000  0.4401320000000 1.0
C      1  0.4766910000000  0.4380230000000  0.4812020000000 1.0
C      1  0.5594830000000  0.4099280000000  0.5172790000000 1.0
C      1  0.3785960000000  0.4929790000000  0.4741590000000 1.0
C      1  0.4207140000000  0.5089310000000  0.4122270000000 1.0
C      1  0.5313710000000  0.5307190000000  0.4647280000000 1.0
C      1  0.4977580000000  0.4062300000000  0.5758640000000 1.0
C      1  0.6054240000000  0.4657360000000  0.4558720000000 1.0
C      1  0.4718290000000  0.5059490000000  0.6250020000000 1.0
C      1  0.4545070000000  0.4704070000000  0.5953760000000 1.0
C      1  0.5225100000000  0.4451500000000  0.5185230000000 1.0
C      1  0.5441930000000  0.3977980000000  0.4943190000000 1.0
C      1  0.4026630000000  0.5052230000000  0.4337780000000 1.0
C      1  0.4642110000000  0.4505130000000  0.5045140000000 1.0
C      1  0.5007590000000  0.5597720000000  0.5577000000000 1.0
C      1  0.4371560000000  0.5729950000000  0.5353290000000 1.0
C      1  0.6030820000000  0.4576490000000  0.4282630000000 1.0
C      1  0.5638660000000  0.4108410000000  0.5462970000000 1.0
C      1  0.4315490000000  0.5106700000000  0.5054620000000 1.0
C      1  0.6045010000000  0.5078610000000  0.5386000000000 1.0
C      1  0.6143240000000  0.5046290000000  0.5117910000000 1.0
C      1  0.4990060000000  0.5004350000000  0.3741740000000 1.0
C      1  0.3943790000000  0.5288160000000  0.4496850000000 1.0
C      1  0.4734690000000  0.5184300000000  0.4657470000000 1.0
C      1  0.4794430000000  0.4778000000000  0.5055040000000 1.0
C      1  0.5516040000000  0.4653390000000  0.6020290000000 1.0
C      1  0.5770630000000  0.4530560000000  0.4214200000000 1.0
C      1  0.5416790000000  0.5842990000000  0.5614060000000 1.0
C      1  0.4591250000000  0.4313850000000  0.5662080000000 1.0
C      1  0.5012380000000  0.5339270000000  0.5677010000000 1.0
C      1  0.5584140000000  0.5364770000000  0.5277210000000 1.0
C      1  0.3767090000000  0.5392390000000  0.4962910000000 1.0
C      1  0.5192550000000  0.5380890000000  0.4927860000000 1.0
C      1  0.5832750000000  0.4747410000000  0.5683040000000 1.0
C      1  0.4720240000000  0.4562460000000  0.5745130000000 1.0
C      1  0.4544770000000  0.5722390000000  0.4133700000000 1.0
C      1  0.4297290000000  0.4510890000000  0.5937970000000 1.0
C      1  0.4585000000000  0.5427990000000  0.4658910000000 1.0
C      1  0.5616070000000  0.4917910000000  0.5612640000000 1.0
C      1  0.3899680000000  0.4839460000000  0.4488370000000 1.0
C      1  0.5281280000000  0.5126720000000  0.6013480000000 1.0
C      1  0.4988070000000  0.4916930000000  0.4344140000000 1.0
C      1  0.4610480000000  0.5875980000000  0.5437200000000 1.0
C      1  0.4411790000000  0.4538860000000  0.5241490000000 1.0
C      1  0.4304820000000  0.5386610000000  0.5008470000000 1.0
C      1  0.4211290000000  0.5365840000000  0.4028790000000 1.0
C      1  0.4447970000000  0.4941160000000  0.4031780000000 1.0
C      1  0.5247010000000  0.5767770000000  0.4251570000000 1.0
C      1  0.6020550000000  0.5400940000000  0.4864700000000 1.0
C      1  0.4757420000000  0.4791290000000  0.6160020000000 1.0
C      1  0.4832460000000  0.5022730000000  0.4889770000000 1.0
C      1  0.3807610000000  0.5222570000000  0.4744900000000 1.0
C      1  0.4218410000000  0.5556810000000  0.5531930000000 1.0
C      1  0.5188680000000  0.4369840000000  0.4067860000000 1.0
C      1  0.4877320000000  0.4728770000000  0.5577130000000 1.0
C      1  0.4302990000000  0.4364210000000  0.5679720000000 1.0
C      1  0.6236960000000  0.4634380000000  0.5450170000000 1.0
C      1  0.4311740000000  0.5630340000000  0.3991990000000 1.0
C      1  0.5104540000000  0.5249660000000  0.3732280000000 1.0
C      1  0.4764000000000  0.5309430000000  0.4160240000000 1.0
C      1  0.4760870000000  0.4106390000000  0.5581380000000 1.0
C      1  0.5649190000000  0.4940450000000  0.3937620000000 1.0
C      1  0.4351160000000  0.4900330000000  0.4823330000000 1.0
C      1  0.5303750000000  0.4588790000000  0.5424840000000 1.0
C      1  0.3967840000000  0.5415310000000  0.5445820000000 1.0
C      1  0.5428620000000  0.5841070000000  0.4733530000000 1.0
C      1  0.5250400000000  0.6148710000000  0.5084820000000 1.0
C      1  0.3830810000000  0.5485250000000  0.5206800000000 1.0
C      1  0.5304810000000  0.5934010000000  0.5869100000000 1.0
C      1  0.6083530000000  0.5614550000000  0.5052600000000 1.0
C      1  0.4938400000000  0.4763570000000  0.3888570000000 1.0
C      1  0.4791070000000  0.5586390000000  0.4107650000000 1.0
C      1  0.5129590000000  0.4279700000000  0.5857200000000 1.0
C      1  0.4997960000000  0.6152220000000  0.5184250000000 1.0
C      1  0.5348890000000  0.5501590000000  0.5244910000000 1.0
C      1  0.3900630000000  0.5146610000000  0.5536890000000 1.0
C      1  0.5025070000000  0.5246100000000  0.5939980000000 1.0
C      1  0.6121340000000  0.5123050000000  0.4838660000000 1.0
C      1  0.5518390000000  0.5694400000000  0.4203170000000 1.0
C      1  0.3797340000000  0.4301300000000  0.5047410000000 1.0
C      1  0.5734820000000  0.5384820000000  0.4854240000000 1.0
C      1  0.3898660000000  0.4875090000000  0.5511810000000 1.0
C      1  0.5539790000000  0.4684150000000  0.4295530000000 1.0
C      1  0.4350990000000  0.5038100000000  0.5339210000000 1.0
C      1  0.4360080000000  0.4505510000000  0.4421020000000 1.0
C      1  0.4939950000000  0.4156070000000  0.4742950000000 1.0
C      1  0.5159820000000  0.5494640000000  0.3835550000000 1.0
C      1  0.5604320000000  0.5612930000000  0.4741910000000 1.0
END
