TITL C-247196-3112-592 1.2764041048931e-07 125000 -703.39907047443 0 0 115 (C1) n - 1
REM
REM in /home/nfs/bkarasulu/CARBON/AIRSS/Generating-Clusters/LCBOP/Only-C1/SD-CG/FIRE-HFTN
REM
REM
REM
REM
REM
REM ./C.cell (11c1c37f851c82e70ff6c80c92926a4b)
REM AIRSS Version 0.9.1 bugfix July 2018 build 013d7b7c2542+ Fri, 06 Jul 2018 19:26:36 +0100
REM compiler GCC version 9.2.1 20190827 (Red Hat 9.2.1-1)
REM options -cpp -mtune=generic -march=x86-64 -g -O0 -fpre-include=/usr/include/finclude/math-vector-fortran.h
REM seed -1847613328 -299802220 -32584720 1052717601 -2101969436 1874771870 -2100075935 1254847774 -271261250 -1569314784 -1440032298 -57870316 532805895 1405885523 2021069212 760714056 505608565 1510209771 -1301065093 1657187290 1080067245 251961961 -1004577389 -592501224 1701331499 167069088 919069660 -1360050536 -158136778 -1236816858 525352977 446631159 318513294
REM
CELL 1.54180   50.00000   50.00000   50.00000   90.00000   90.00000   90.00000
LATT -1
SFAC C  
C      1  0.6029310000000  0.5026140000000  0.4412650000000 1.0
C      1  0.4876290000000  0.5415130000000  0.4126450000000 1.0
C      1  0.4107930000000  0.5261590000000  0.4852210000000 1.0
C      1  0.6064410000000  0.5191750000000  0.5151020000000 1.0
C      1  0.4253850000000  0.4572320000000  0.4569330000000 1.0
C      1  0.4501810000000  0.4924980000000  0.5090750000000 1.0
C      1  0.4482030000000  0.4723230000000  0.4663160000000 1.0
C      1  0.5427480000000  0.5201670000000  0.5416220000000 1.0
C      1  0.5234840000000  0.5411770000000  0.5490340000000 1.0
C      1  0.5365020000000  0.4008850000000  0.5254820000000 1.0
C      1  0.4702320000000  0.4554920000000  0.4726820000000 1.0
C      1  0.5359430000000  0.5534080000000  0.4415570000000 1.0
C      1  0.4891600000000  0.3837620000000  0.5392630000000 1.0
C      1  0.5797950000000  0.4609090000000  0.4933990000000 1.0
C      1  0.4899780000000  0.5392130000000  0.5884640000000 1.0
C      1  0.5482640000000  0.5314460000000  0.4621080000000 1.0
C      1  0.4688860000000  0.4016220000000  0.5474760000000 1.0
C      1  0.4855300000000  0.5618590000000  0.4340270000000 1.0
C      1  0.4581030000000  0.4699400000000  0.5753280000000 1.0
C      1  0.5820470000000  0.5211550000000  0.5918500000000 1.0
C      1  0.4906080000000  0.5111430000000  0.5960390000000 1.0
C      1  0.4381290000000  0.5048450000000  0.5502570000000 1.0
C      1  0.4793800000000  0.5922730000000  0.4732810000000 1.0
C      1  0.4641050000000  0.5519540000000  0.5884840000000 1.0
C      1  0.3922150000000  0.5072080000000  0.4415100000000 1.0
C      1  0.4455200000000  0.5611120000000  0.5709950000000 1.0
C      1  0.5463790000000  0.5058320000000  0.4436010000000 1.0
C      1  0.5923320000000  0.5038150000000  0.4672220000000 1.0
C      1  0.4248430000000  0.5288340000000  0.5427960000000 1.0
C      1  0.4680020000000  0.4303400000000  0.4880270000000 1.0
C      1  0.5882650000000  0.5014350000000  0.4186590000000 1.0
C      1  0.4836830000000  0.5162240000000  0.5348080000000 1.0
C      1  0.4822430000000  0.6003320000000  0.5013680000000 1.0
C      1  0.4319960000000  0.4562300000000  0.4279710000000 1.0
C      1  0.4987080000000  0.4352460000000  0.4400060000000 1.0
C      1  0.5131330000000  0.5489480000000  0.4956610000000 1.0
C      1  0.4466090000000  0.4215370000000  0.5051580000000 1.0
C      1  0.5364760000000  0.4487410000000  0.5156030000000 1.0
C      1  0.5793140000000  0.5636490000000  0.5635920000000 1.0
C      1  0.5340650000000  0.6009620000000  0.5168870000000 1.0
C      1  0.4643330000000  0.5723020000000  0.4545090000000 1.0
C      1  0.4406540000000  0.4723980000000  0.5491670000000 1.0
C      1  0.4668340000000  0.5924580000000  0.5249010000000 1.0
C      1  0.5760820000000  0.5261350000000  0.4771940000000 1.0
C      1  0.5300190000000  0.4220490000000  0.5073420000000 1.0
C      1  0.4815900000000  0.5255060000000  0.4641860000000 1.0
C      1  0.5538510000000  0.5856380000000  0.5267120000000 1.0
C      1  0.3912200000000  0.5157820000000  0.4671040000000 1.0
C      1  0.5965460000000  0.4834440000000  0.4866800000000 1.0
C      1  0.4079090000000  0.4534050000000  0.4796550000000 1.0
C      1  0.4997350000000  0.5803930000000  0.5653020000000 1.0
C      1  0.5192650000000  0.4212440000000  0.4544440000000 1.0
C      1  0.5124880000000  0.5703650000000  0.4450010000000 1.0
C      1  0.4315080000000  0.5066290000000  0.4927970000000 1.0
C      1  0.4316590000000  0.4832920000000  0.4161200000000 1.0
C      1  0.5941010000000  0.4405410000000  0.5074500000000 1.0
C      1  0.4061340000000  0.5756220000000  0.4839820000000 1.0
C      1  0.4076980000000  0.4977280000000  0.4216410000000 1.0
C      1  0.4844020000000  0.5426940000000  0.5284000000000 1.0
C      1  0.4172900000000  0.4608620000000  0.5325770000000 1.0
C      1  0.4557700000000  0.4983730000000  0.4103360000000 1.0
C      1  0.4995140000000  0.5000180000000  0.5166710000000 1.0
C      1  0.4359660000000  0.5556010000000  0.5444810000000 1.0
C      1  0.5613560000000  0.5026010000000  0.4200440000000 1.0
C      1  0.4251400000000  0.4081960000000  0.4943880000000 1.0
C      1  0.4516830000000  0.4370950000000  0.4195460000000 1.0
C      1  0.4772400000000  0.4279250000000  0.4226500000000 1.0
C      1  0.5131500000000  0.5429050000000  0.3993940000000 1.0
C      1  0.4674940000000  0.5506790000000  0.5069620000000 1.0
C      1  0.5850360000000  0.3775320000000  0.5270680000000 1.0
C      1  0.4074300000000  0.4565780000000  0.5071450000000 1.0
C      1  0.4908970000000  0.5072850000000  0.4437740000000 1.0
C      1  0.4665350000000  0.5097490000000  0.5559140000000 1.0
C      1  0.5226180000000  0.4663290000000  0.5348140000000 1.0
C      1  0.4198750000000  0.5529470000000  0.4775910000000 1.0
C      1  0.4821360000000  0.3825480000000  0.4914590000000 1.0
C      1  0.4432470000000  0.5524620000000  0.4609630000000 1.0
C      1  0.4782580000000  0.5143340000000  0.4183610000000 1.0
C      1  0.5043450000000  0.4831590000000  0.4484880000000 1.0
C      1  0.4635860000000  0.4726000000000  0.5268290000000 1.0
C      1  0.4830990000000  0.3697380000000  0.5152660000000 1.0
C      1  0.5712580000000  0.4970980000000  0.5872230000000 1.0
C      1  0.5162310000000  0.3906750000000  0.5421850000000 1.0
C      1  0.5364850000000  0.5471440000000  0.4132140000000 1.0
C      1  0.5812680000000  0.5301130000000  0.5060960000000 1.0
C      1  0.5516820000000  0.4634190000000  0.4963360000000 1.0
C      1  0.5635480000000  0.5364240000000  0.5272930000000 1.0
C      1  0.6254470000000  0.4720370000000  0.5237210000000 1.0
C      1  0.4917270000000  0.4589500000000  0.4543060000000 1.0
C      1  0.5621260000000  0.3899160000000  0.5260440000000 1.0
C      1  0.5549890000000  0.4834990000000  0.5707260000000 1.0
C      1  0.5314820000000  0.4852400000000  0.4556490000000 1.0
C      1  0.6159270000000  0.4465170000000  0.5226700000000 1.0
C      1  0.4880580000000  0.4097120000000  0.4862770000000 1.0
C      1  0.5848590000000  0.5463680000000  0.5833390000000 1.0
C      1  0.5154940000000  0.4168390000000  0.4826770000000 1.0
C      1  0.5667060000000  0.5632960000000  0.5383510000000 1.0
C      1  0.5392970000000  0.4903280000000  0.5477290000000 1.0
C      1  0.4430720000000  0.5002960000000  0.4667390000000 1.0
C      1  0.5052300000000  0.5018160000000  0.6170440000000 1.0
C      1  0.4816670000000  0.5937030000000  0.5497690000000 1.0
C      1  0.5356960000000  0.4823630000000  0.4834290000000 1.0
C      1  0.4527420000000  0.4170740000000  0.5324700000000 1.0
C      1  0.5060600000000  0.5933670000000  0.4604100000000 1.0
C      1  0.5094380000000  0.6076900000000  0.5082850000000 1.0
C      1  0.4745310000000  0.4946420000000  0.5792940000000 1.0
C      1  0.4497290000000  0.5686640000000  0.5217060000000 1.0
C      1  0.6133670000000  0.4926390000000  0.5086720000000 1.0
C      1  0.4943600000000  0.4730520000000  0.5269820000000 1.0
C      1  0.5295810000000  0.5287180000000  0.4863600000000 1.0
C      1  0.4862670000000  0.5448750000000  0.4847710000000 1.0
C      1  0.4534410000000  0.5254050000000  0.4587200000000 1.0
C      1  0.5089510000000  0.5532800000000  0.5714170000000 1.0
C      1  0.5113330000000  0.5513390000000  0.5244530000000 1.0
C      1  0.5220130000000  0.5031490000000  0.4975620000000 1.0
END
