TITL C-247195-3186-116 0.000240620522992359 125000 -703.666227065652 0 0 116 (C1) n - 1
REM
REM in /home/nfs/bkarasulu/CARBON/AIRSS/Generating-Clusters/LCBOP/Only-C1/SD-CG/FIRE-HFTN
REM
REM
REM
REM
REM
REM ./C.cell (11c1c37f851c82e70ff6c80c92926a4b)
REM AIRSS Version 0.9.1 bugfix July 2018 build 013d7b7c2542+ Fri, 06 Jul 2018 19:26:36 +0100
REM compiler GCC version 9.2.1 20190827 (Red Hat 9.2.1-1)
REM options -cpp -mtune=generic -march=x86-64 -g -O0 -fpre-include=/usr/include/finclude/math-vector-fortran.h
REM seed -654058545 -507869324 591113447 1480069814 579390697 1533108268 1364135623 -462280866 132642118 -412389171 -235904162 -1708828219 -641375813 -576638338 269139065 -991536188 -2132315807 97195082 1321895754 1549315761 -250879227 -197455046 -1550897069 428567897 -1205697147 -259600636 -1268658111 901965459 -1213082228 -1658839822 359786149 591711934 1587617153
REM
CELL 1.54180   50.00000   50.00000   50.00000   90.00000   90.00000   90.00000
LATT -1
SFAC C  
C      1  0.4510040000000  0.4865530000000  0.3982080000000 1.0
C      1  0.4158960000000  0.5497680000000  0.5148420000000 1.0
C      1  0.5126100000000  0.5466380000000  0.5007000000000 1.0
C      1  0.5441950000000  0.5206970000000  0.5938340000000 1.0
C      1  0.4691060000000  0.5718190000000  0.5717210000000 1.0
C      1  0.6001510000000  0.4733860000000  0.5804250000000 1.0
C      1  0.5491580000000  0.4741620000000  0.4918190000000 1.0
C      1  0.4987790000000  0.4887120000000  0.3892050000000 1.0
C      1  0.4210270000000  0.5061020000000  0.4916310000000 1.0
C      1  0.5656980000000  0.4532710000000  0.4825390000000 1.0
C      1  0.4286640000000  0.4938930000000  0.4147640000000 1.0
C      1  0.5515240000000  0.5162750000000  0.5164020000000 1.0
C      1  0.5335550000000  0.5824000000000  0.5614200000000 1.0
C      1  0.5064930000000  0.5268530000000  0.4163510000000 1.0
C      1  0.4929260000000  0.4710870000000  0.4390700000000 1.0
C      1  0.4992710000000  0.3936830000000  0.4438560000000 1.0
C      1  0.5232760000000  0.4710290000000  0.5266430000000 1.0
C      1  0.5640960000000  0.3540230000000  0.3812710000000 1.0
C      1  0.5015620000000  0.4282900000000  0.5232780000000 1.0
C      1  0.5071020000000  0.5330250000000  0.4439660000000 1.0
C      1  0.4618470000000  0.4584480000000  0.3976430000000 1.0
C      1  0.4325280000000  0.4708390000000  0.4586930000000 1.0
C      1  0.4727880000000  0.5046090000000  0.3910520000000 1.0
C      1  0.6042580000000  0.5208540000000  0.5329600000000 1.0
C      1  0.5273310000000  0.6612840000000  0.5036130000000 1.0
C      1  0.4761330000000  0.4058340000000  0.4543220000000 1.0
C      1  0.5157800000000  0.5748640000000  0.5797780000000 1.0
C      1  0.5390340000000  0.5446600000000  0.5121580000000 1.0
C      1  0.4151520000000  0.5388550000000  0.5410600000000 1.0
C      1  0.4969320000000  0.5226700000000  0.5036970000000 1.0
C      1  0.4757290000000  0.5079660000000  0.5779140000000 1.0
C      1  0.4764210000000  0.4706770000000  0.5394770000000 1.0
C      1  0.5743290000000  0.4597180000000  0.6184920000000 1.0
C      1  0.4125090000000  0.4903150000000  0.5132610000000 1.0
C      1  0.4495920000000  0.4140940000000  0.4958090000000 1.0
C      1  0.4492850000000  0.4305350000000  0.5192140000000 1.0
C      1  0.5675630000000  0.4364230000000  0.5070310000000 1.0
C      1  0.4468780000000  0.5162530000000  0.5769220000000 1.0
C      1  0.4890000000000  0.4616630000000  0.3870880000000 1.0
C      1  0.4856860000000  0.5007940000000  0.5479540000000 1.0
C      1  0.5551610000000  0.4373490000000  0.4371870000000 1.0
C      1  0.5788270000000  0.4771850000000  0.5971170000000 1.0
C      1  0.5550090000000  0.4861530000000  0.4432850000000 1.0
C      1  0.4949140000000  0.5317110000000  0.5855440000000 1.0
C      1  0.4341590000000  0.5778110000000  0.4805710000000 1.0
C      1  0.4920280000000  0.5600210000000  0.5832740000000 1.0
C      1  0.5169530000000  0.5069840000000  0.5536470000000 1.0
C      1  0.4600230000000  0.4191400000000  0.4347250000000 1.0
C      1  0.4597430000000  0.5092950000000  0.4594750000000 1.0
C      1  0.5233640000000  0.4454650000000  0.5755770000000 1.0
C      1  0.4334850000000  0.5498660000000  0.4672110000000 1.0
C      1  0.5688040000000  0.4431000000000  0.6377930000000 1.0
C      1  0.5017690000000  0.5042520000000  0.4827660000000 1.0
C      1  0.5194720000000  0.5020690000000  0.4053850000000 1.0
C      1  0.5779740000000  0.5172480000000  0.5307360000000 1.0
C      1  0.4200850000000  0.5412150000000  0.4404970000000 1.0
C      1  0.4722820000000  0.4631150000000  0.4894570000000 1.0
C      1  0.4601640000000  0.5695340000000  0.5452570000000 1.0
C      1  0.5338880000000  0.6385480000000  0.5155550000000 1.0
C      1  0.6241970000000  0.5367470000000  0.5247760000000 1.0
C      1  0.4541750000000  0.4555560000000  0.4686300000000 1.0
C      1  0.4559220000000  0.4361100000000  0.4140520000000 1.0
C      1  0.5332900000000  0.4965270000000  0.5344140000000 1.0
C      1  0.6240520000000  0.5597500000000  0.5108930000000 1.0
C      1  0.4618580000000  0.5380680000000  0.4624350000000 1.0
C      1  0.5210710000000  0.5210120000000  0.5777900000000 1.0
C      1  0.5548470000000  0.5017650000000  0.4897130000000 1.0
C      1  0.4572680000000  0.4628830000000  0.5620490000000 1.0
C      1  0.4367020000000  0.4963280000000  0.4707390000000 1.0
C      1  0.5432540000000  0.4382910000000  0.5570710000000 1.0
C      1  0.4771610000000  0.4922190000000  0.4447070000000 1.0
C      1  0.4267620000000  0.5274100000000  0.5626470000000 1.0
C      1  0.6035060000000  0.5747090000000  0.5023410000000 1.0
C      1  0.4188770000000  0.5338910000000  0.4913070000000 1.0
C      1  0.5013820000000  0.5639330000000  0.4806570000000 1.0
C      1  0.4212770000000  0.5208370000000  0.4222160000000 1.0
C      1  0.5466780000000  0.5066160000000  0.4627220000000 1.0
C      1  0.4432070000000  0.5861010000000  0.5299410000000 1.0
C      1  0.5022450000000  0.4545000000000  0.5359670000000 1.0
C      1  0.5192790000000  0.5142040000000  0.4614160000000 1.0
C      1  0.4302090000000  0.4689560000000  0.5570920000000 1.0
C      1  0.4971980000000  0.4549770000000  0.5860460000000 1.0
C      1  0.5086500000000  0.4497340000000  0.4352260000000 1.0
C      1  0.4148880000000  0.4782990000000  0.5370700000000 1.0
C      1  0.4754460000000  0.6061190000000  0.4747810000000 1.0
C      1  0.5612330000000  0.4985130000000  0.5930400000000 1.0
C      1  0.4962660000000  0.4135480000000  0.5009120000000 1.0
C      1  0.5229470000000  0.4676880000000  0.4985600000000 1.0
C      1  0.4208650000000  0.4732880000000  0.4332320000000 1.0
C      1  0.4633890000000  0.4177020000000  0.5678680000000 1.0
C      1  0.5529790000000  0.5689900000000  0.5178910000000 1.0
C      1  0.5204990000000  0.6833810000000  0.4915860000000 1.0
C      1  0.4891160000000  0.4828410000000  0.5932120000000 1.0
C      1  0.4743300000000  0.4086900000000  0.4828280000000 1.0
C      1  0.4612740000000  0.4575990000000  0.5155740000000 1.0
C      1  0.5360170000000  0.3853200000000  0.4128150000000 1.0
C      1  0.5769510000000  0.5753590000000  0.5047560000000 1.0
C      1  0.5285060000000  0.4297890000000  0.4323660000000 1.0
C      1  0.5389370000000  0.6148290000000  0.5262060000000 1.0
C      1  0.4504580000000  0.4163100000000  0.5439510000000 1.0
C      1  0.4981830000000  0.4761660000000  0.4871670000000 1.0
C      1  0.5216560000000  0.4024080000000  0.4294260000000 1.0
C      1  0.4814500000000  0.5296560000000  0.4020480000000 1.0
C      1  0.4271960000000  0.5758130000000  0.5089910000000 1.0
C      1  0.4800530000000  0.5213820000000  0.5263340000000 1.0
C      1  0.4719620000000  0.4428830000000  0.5773550000000 1.0
C      1  0.4971150000000  0.5915730000000  0.4812260000000 1.0
C      1  0.5500540000000  0.5413530000000  0.6108060000000 1.0
C      1  0.4883890000000  0.5493490000000  0.4589550000000 1.0
C      1  0.5501390000000  0.3695190000000  0.3969140000000 1.0
C      1  0.5643700000000  0.4588000000000  0.4532090000000 1.0
C      1  0.4670240000000  0.5451460000000  0.5329090000000 1.0
C      1  0.4496200000000  0.5994040000000  0.4716440000000 1.0
C      1  0.5579240000000  0.4347340000000  0.5334230000000 1.0
C      1  0.5419800000000  0.5885930000000  0.5354840000000 1.0
C      1  0.5427490000000  0.4907530000000  0.4174710000000 1.0
END
