TITL C-247201-3759-666 0.409140363694659 125000 -156.139967850433 0 0 28 (C1) n - 1
REM
REM in /home/nfs/bkarasulu/CARBON/AIRSS/Generating-Clusters/LCBOP/Only-C1/SD-CG/FIRE-HFTN
REM
REM
REM
REM
REM
REM ./C.cell (11c1c37f851c82e70ff6c80c92926a4b)
REM AIRSS Version 0.9.1 bugfix July 2018 build 013d7b7c2542+ Fri, 06 Jul 2018 19:26:36 +0100
REM compiler GCC version 9.2.1 20190827 (Red Hat 9.2.1-1)
REM options -cpp -mtune=generic -march=x86-64 -g -O0 -fpre-include=/usr/include/finclude/math-vector-fortran.h
REM seed 1894348568 554098817 1536202723 -356258088 -1397561554 -267135185 -76174305 -1156805909 -1390870309 912043622 -1317848133 -982159646 -1023610677 -232087434 390599632 -1706495453 1930165723 -1066802604 -1872445156 1749771819 -619569469 651401706 277635141 1803805045 -798744744 1317049692 -1761597381 -125225855 231224360 -1625146442 891665363 -1101599157 -1355787007
REM
CELL 1.54180   50.00000   50.00000   50.00000   90.00000   90.00000   90.00000
LATT -1
SFAC C  
C      1  0.5561420000000  0.6051080000000  0.5647280000000 1.0
C      1  0.5969510000000  0.5166020000000  0.4782120000000 1.0
C      1  0.5002980000000  0.5142870000000  0.5190390000000 1.0
C      1  0.5366720000000  0.4746350000000  0.4623910000000 1.0
C      1  0.4287030000000  0.4994500000000  0.4997940000000 1.0
C      1  0.4918910000000  0.5556830000000  0.4962920000000 1.0
C      1  0.4859560000000  0.4240660000000  0.4994620000000 1.0
C      1  0.5501690000000  0.5859810000000  0.5480510000000 1.0
C      1  0.4847650000000  0.4928240000000  0.5206190000000 1.0
C      1  0.5110610000000  0.4835930000000  0.4555960000000 1.0
C      1  0.4664940000000  0.4724570000000  0.5147010000000 1.0
C      1  0.5566120000000  0.5326990000000  0.4987460000000 1.0
C      1  0.5555920000000  0.4930990000000  0.4714730000000 1.0
C      1  0.4052760000000  0.4463030000000  0.5431520000000 1.0
C      1  0.4874430000000  0.4930150000000  0.4498770000000 1.0
C      1  0.4438920000000  0.5456260000000  0.4833820000000 1.0
C      1  0.5440390000000  0.5665570000000  0.5311090000000 1.0
C      1  0.5370140000000  0.5462610000000  0.5132960000000 1.0
C      1  0.5098380000000  0.5390160000000  0.5099000000000 1.0
C      1  0.5701060000000  0.5141710000000  0.4827460000000 1.0
C      1  0.5082700000000  0.3804810000000  0.4803280000000 1.0
C      1  0.4969780000000  0.4019020000000  0.4899860000000 1.0
C      1  0.4210970000000  0.4617510000000  0.5293590000000 1.0
C      1  0.4385060000000  0.4777940000000  0.5145640000000 1.0
C      1  0.4300120000000  0.5235350000000  0.4886490000000 1.0
C      1  0.4673120000000  0.5579840000000  0.4862930000000 1.0
C      1  0.4758000000000  0.4469760000000  0.5080320000000 1.0
C      1  0.5431110000000  0.4481450000000  0.4602220000000 1.0
END
