TITL C-247200-3482-272 110314.23357081 125000 -1032.75816001692 0 0 169 (C1) n - 1
REM
REM in /home/nfs/bkarasulu/CARBON/AIRSS/Generating-Clusters/LCBOP/Only-C1/SD-CG/FIRE-HFTN
REM
REM
REM
REM
REM
REM ./C.cell (11c1c37f851c82e70ff6c80c92926a4b)
REM AIRSS Version 0.9.1 bugfix July 2018 build 013d7b7c2542+ Fri, 06 Jul 2018 19:26:36 +0100
REM compiler GCC version 9.2.1 20190827 (Red Hat 9.2.1-1)
REM options -cpp -mtune=generic -march=x86-64 -g -O0 -fpre-include=/usr/include/finclude/math-vector-fortran.h
REM seed 199285300 -244390718 1316062539 -1077119254 -1515788198 -875898068 731625739 670984582 -543744827 947158479 1414616026 -2139415025 -37769803 -317981600 -1688095625 159102403 645493852 173291081 -984401472 1205968410 1725516131 -1742098504 -1308539269 -2039729251 994320777 277466499 237287253 -1788815148 -1297376751 -802512218 -1280512844 1952164166 -868258698
REM
CELL 1.54180   50.00000   50.00000   50.00000   90.00000   90.00000   90.00000
LATT -1
SFAC C  
C      1  0.5843480000000  0.5784830000000  0.5050050000000 1.0
C      1  0.4452680000000  0.5604280000000  0.4535940000000 1.0
C      1  0.4622590000000  0.5837240000000  0.4562440000000 1.0
C      1  0.5653280000000  0.4697820000000  0.5607490000000 1.0
C      1  0.3969580000000  0.5837360000000  0.5630480000000 1.0
C      1  0.5046930000000  0.5292070000000  0.4930500000000 1.0
C      1  0.5359000000000  0.4550610000000  0.4990840000000 1.0
C      1  0.5661810000000  0.5770510000000  0.4574100000000 1.0
C      1  0.4360040000000  0.5077860000000  0.5367620000000 1.0
C      1  0.4580970000000  0.5950440000000  0.5329880000000 1.0
C      1  0.5984180000000  0.5445460000000  0.5389790000000 1.0
C      1  0.5851160000000  0.4626570000000  0.4114790000000 1.0
C      1  0.3814780000000  0.4770580000000  0.5022790000000 1.0
C      1  0.4625220000000  0.4579180000000  0.5719100000000 1.0
C      1  0.5076620000000  0.5002180000000  0.5496020000000 1.0
C      1  0.5553680000000  0.5824220000000  0.5483960000000 1.0
C      1  0.4533430000000  0.3869180000000  0.5845400000000 1.0
C      1  0.4878980000000  0.3924210000000  0.5485420000000 1.0
C      1  0.4833590000000  0.4055860000000  0.5037330000000 1.0
C      1  0.5170360000000  0.3936200000000  0.5467300000000 1.0
C      1  0.4722680000000  0.4053620000000  0.4785300000000 1.0
C      1  0.5705890000000  0.5028700000000  0.5242570000000 1.0
C      1  0.5276320000000  0.5472350000000  0.4483000000000 1.0
C      1  0.4491500000000  0.5786800000000  0.5565510000000 1.0
C      1  0.5169820000000  0.5012110000000  0.3940430000000 1.0
C      1  0.5350060000000  0.5026170000000  0.4682770000000 1.0
C      1  0.5626100000000  0.3809680000000  0.5555210000000 1.0
C      1  0.4509320000000  0.5496020000000  0.5505290000000 1.0
C      1  0.5120630000000  0.4548780000000  0.3830560000000 1.0
C      1  0.5345190000000  0.3918890000000  0.4427470000000 1.0
C      1  0.5622540000000  0.5161260000000  0.4339160000000 1.0
C      1  0.4532640000000  0.5206490000000  0.5943490000000 1.0
C      1  0.4255190000000  0.5401300000000  0.5028020000000 1.0
C      1  0.5482900000000  0.5649020000000  0.4394040000000 1.0
C      1  0.4778810000000  0.5624440000000  0.4157490000000 1.0
C      1  0.5611060000000  0.4512730000000  0.4005640000000 1.0
C      1  0.5433360000000  0.5352050000000  0.5584890000000 1.0
C      1  0.4751140000000  0.4882940000000  0.4075440000000 1.0
C      1  0.3871650000000  0.4572870000000  0.5236430000000 1.0
C      1  0.3755330000000  0.5346970000000  0.4890970000000 1.0
C      1  0.5533610000000  0.5570230000000  0.4118060000000 1.0
C      1  0.5229320000000  0.4402810000000  0.4262220000000 1.0
C      1  0.5276810000000  0.5131510000000  0.5652300000000 1.0
C      1  0.4798250000000  0.4754670000000  0.5885690000000 1.0
C      1  0.4002490000000  0.4987130000000  0.5081790000000 1.0
C      1  0.5204990000000  0.5804300000000  0.4900430000000 1.0
C      1  0.4876340000000  0.6216680000000  0.4520480000000 1.0
C      1  0.4971160000000  0.4252950000000  0.3407260000000 1.0
C      1  0.6168420000000  0.4852900000000  0.5021650000000 1.0
C      1  0.6055700000000  0.4692380000000  0.5234830000000 1.0
C      1  0.5439850000000  0.5606810000000  0.5743860000000 1.0
C      1  0.5060690000000  0.4397040000000  0.5922700000000 1.0
C      1  0.3968020000000  0.4737330000000  0.5462620000000 1.0
C      1  0.4983110000000  0.4785610000000  0.3907200000000 1.0
C      1  0.4237070000000  0.5884360000000  0.5706920000000 1.0
C      1  0.5356410000000  0.5406740000000  0.3708230000000 1.0
C      1  0.5330230000000  0.4469540000000  0.4010960000000 1.0
C      1  0.3908180000000  0.4723940000000  0.5732000000000 1.0
C      1  0.6152290000000  0.5131250000000  0.5080820000000 1.0
C      1  0.3790330000000  0.5752160000000  0.5820050000000 1.0
C      1  0.6192850000000  0.5403500000000  0.4986070000000 1.0
C      1  0.5923960000000  0.4880740000000  0.3997390000000 1.0
C      1  0.4845980000000  0.3882700000000  0.4582200000000 1.0
C      1  0.4554560000000  0.4502060000000  0.5205620000000 1.0
C      1  0.5917470000000  0.5585120000000  0.5883810000000 1.0
C      1  0.5029280000000  0.5784970000000  0.5419210000000 1.0
C      1  0.5611350000000  0.5872430000000  0.5205420000000 1.0
C      1  0.3991760000000  0.4317020000000  0.5230150000000 1.0
C      1  0.5268490000000  0.5082700000000  0.4961830000000 1.0
C      1  0.4362550000000  0.5501970000000  0.4784250000000 1.0
C      1  0.6036150000000  0.5598780000000  0.5144260000000 1.0
C      1  0.5862610000000  0.5144980000000  0.3955800000000 1.0
C      1  0.4522560000000  0.5495110000000  0.4265630000000 1.0
C      1  0.5002390000000  0.5508910000000  0.4540820000000 1.0
C      1  0.4118360000000  0.4947070000000  0.5338090000000 1.0
C      1  0.4643870000000  0.3798420000000  0.4399710000000 1.0
C      1  0.5156390000000  0.5204630000000  0.3732290000000 1.0
C      1  0.5548420000000  0.4088310000000  0.4491260000000 1.0
C      1  0.5586450000000  0.4210520000000  0.5292880000000 1.0
C      1  0.5023640000000  0.5361820000000  0.5925300000000 1.0
C      1  0.5394590000000  0.5403760000000  0.5315340000000 1.0
C      1  0.5052520000000  0.4675720000000  0.5994990000000 1.0
C      1  0.5336300000000  0.5188380000000  0.4427870000000 1.0
C      1  0.5818440000000  0.4391130000000  0.4820180000000 1.0
C      1  0.4210800000000  0.4197490000000  0.5367200000000 1.0
C      1  0.5172610000000  0.4504980000000  0.4515530000000 1.0
C      1  0.5695770000000  0.5318910000000  0.4111410000000 1.0
C      1  0.4005300000000  0.4755760000000  0.5978070000000 1.0
C      1  0.3880840000000  0.5868470000000  0.5366110000000 1.0
C      1  0.4805090000000  0.5019540000000  0.4599800000000 1.0
C      1  0.6034490000000  0.5518370000000  0.5652560000000 1.0
C      1  0.4259510000000  0.4771370000000  0.6096900000000 1.0
C      1  0.4809660000000  0.5090890000000  0.5535510000000 1.0
C      1  0.5199380000000  0.5127210000000  0.5928220000000 1.0
C      1  0.4391340000000  0.4113850000000  0.5833540000000 1.0
C      1  0.5643430000000  0.4475210000000  0.5122760000000 1.0
C      1  0.4984060000000  0.5573810000000  0.3955130000000 1.0
C      1  0.5946710000000  0.5177890000000  0.5289680000000 1.0
C      1  0.5303600000000  0.5589720000000  0.3935950000000 1.0
C      1  0.4008790000000  0.5251370000000  0.4984690000000 1.0
C      1  0.4436160000000  0.6260290000000  0.4754640000000 1.0
C      1  0.4907570000000  0.4566670000000  0.4569890000000 1.0
C      1  0.4433000000000  0.5250990000000  0.4153420000000 1.0
C      1  0.5232730000000  0.3910890000000  0.4874550000000 1.0
C      1  0.5455820000000  0.3991200000000  0.5434530000000 1.0
C      1  0.5538670000000  0.4812750000000  0.4634720000000 1.0
C      1  0.5124660000000  0.4771660000000  0.5345490000000 1.0
C      1  0.4320480000000  0.4128140000000  0.4561470000000 1.0
C      1  0.4542580000000  0.4281750000000  0.4690940000000 1.0
C      1  0.4317830000000  0.6005730000000  0.5956150000000 1.0
C      1  0.3691190000000  0.5609890000000  0.4960880000000 1.0
C      1  0.4720790000000  0.5857260000000  0.5782310000000 1.0
C      1  0.5656540000000  0.5625390000000  0.5938870000000 1.0
C      1  0.4847330000000  0.5949850000000  0.5272830000000 1.0
C      1  0.5749030000000  0.4962330000000  0.4496540000000 1.0
C      1  0.4566510000000  0.5079300000000  0.3969730000000 1.0
C      1  0.6013160000000  0.4977080000000  0.4586020000000 1.0
C      1  0.4381030000000  0.5356290000000  0.5297390000000 1.0
C      1  0.5274290000000  0.4851110000000  0.5988840000000 1.0
C      1  0.4481850000000  0.4229700000000  0.5280650000000 1.0
C      1  0.4908320000000  0.5360910000000  0.3754740000000 1.0
C      1  0.4394710000000  0.4522340000000  0.6127990000000 1.0
C      1  0.5394770000000  0.5949310000000  0.5032530000000 1.0
C      1  0.4980980000000  0.5785170000000  0.5702020000000 1.0
C      1  0.5053530000000  0.4401480000000  0.3604920000000 1.0
C      1  0.5973610000000  0.4520910000000  0.4361300000000 1.0
C      1  0.5408310000000  0.4541150000000  0.4688130000000 1.0
C      1  0.5099010000000  0.5561340000000  0.5008680000000 1.0
C      1  0.4588640000000  0.5986670000000  0.5998490000000 1.0
C      1  0.4592690000000  0.4563810000000  0.4922260000000 1.0
C      1  0.4627180000000  0.6117990000000  0.4625760000000 1.0
C      1  0.4391310000000  0.3907600000000  0.4409540000000 1.0
C      1  0.4706820000000  0.4049530000000  0.5285060000000 1.0
C      1  0.5121970000000  0.4485970000000  0.5396780000000 1.0
C      1  0.5228740000000  0.4809770000000  0.5082200000000 1.0
C      1  0.4187500000000  0.4135700000000  0.5641400000000 1.0
C      1  0.3600510000000  0.4870530000000  0.4867850000000 1.0
C      1  0.4748450000000  0.3797840000000  0.5700230000000 1.0
C      1  0.5149320000000  0.5611610000000  0.5849550000000 1.0
C      1  0.5134720000000  0.3860170000000  0.4607490000000 1.0
C      1  0.5136890000000  0.4369110000000  0.5651830000000 1.0
C      1  0.5168850000000  0.5577270000000  0.5279570000000 1.0
C      1  0.6119660000000  0.4774300000000  0.4753420000000 1.0
C      1  0.5752960000000  0.4711180000000  0.5305210000000 1.0
C      1  0.5183560000000  0.4350050000000  0.5143450000000 1.0
C      1  0.5601070000000  0.4308970000000  0.4657620000000 1.0
C      1  0.3577420000000  0.5137880000000  0.4811450000000 1.0
C      1  0.4544150000000  0.4353490000000  0.5925310000000 1.0
C      1  0.5023800000000  0.6015370000000  0.4400560000000 1.0
C      1  0.4664470000000  0.5221740000000  0.3743260000000 1.0
C      1  0.5482910000000  0.5188890000000  0.5147630000000 1.0
C      1  0.4596850000000  0.4942690000000  0.5420460000000 1.0
C      1  0.4824700000000  0.4263350000000  0.6015170000000 1.0
C      1  0.5512000000000  0.4754170000000  0.5837490000000 1.0
C      1  0.6061230000000  0.6020810000000  0.4682700000000 1.0
C      1  0.4720060000000  0.5299880000000  0.5733000000000 1.0
C      1  0.4884110000000  0.5751030000000  0.4415550000000 1.0
C      1  0.5109250000000  0.4103470000000  0.5036250000000 1.0
C      1  0.4704850000000  0.4396290000000  0.4469260000000 1.0
C      1  0.6271550000000  0.6151390000000  0.4601290000000 1.0
C      1  0.4888810000000  0.5279840000000  0.4693790000000 1.0
C      1  0.3758200000000  0.5795540000000  0.5141150000000 1.0
C      1  0.4591640000000  0.4662310000000  0.5444320000000 1.0
C      1  0.6016930000000  0.4522540000000  0.4659000000000 1.0
C      1  0.4765110000000  0.4758830000000  0.4747150000000 1.0
C      1  0.5148140000000  0.5069420000000  0.4228990000000 1.0
C      1  0.4395620000000  0.5019100000000  0.6078550000000 1.0
C      1  0.4882110000000  0.4980620000000  0.4323020000000 1.0
C      1  0.5850700000000  0.5856600000000  0.4768300000000 1.0
END
