TITL C-247200-3482-494 0.000867581558675036 125000 -384.841284398036 0 0 64 (C1) n - 1
REM
REM in /home/nfs/bkarasulu/CARBON/AIRSS/Generating-Clusters/LCBOP/Only-C1/SD-CG/FIRE-HFTN
REM
REM
REM
REM
REM
REM ./C.cell (11c1c37f851c82e70ff6c80c92926a4b)
REM AIRSS Version 0.9.1 bugfix July 2018 build 013d7b7c2542+ Fri, 06 Jul 2018 19:26:36 +0100
REM compiler GCC version 9.2.1 20190827 (Red Hat 9.2.1-1)
REM options -cpp -mtune=generic -march=x86-64 -g -O0 -fpre-include=/usr/include/finclude/math-vector-fortran.h
REM seed -2080576709 -26680603 -206371394 111697191 1664490871 -1330859417 770045112 -1883358745 1376678451 675733065 695898487 -926536972 521550678 -514337820 -1354622564 -1665208928 2020848477 422990219 146266717 941301470 -1997745969 -27293734 -1274536510 1099571915 1630942427 -1155837001 1826897024 1667477921 2112731771 -824538446 -175202357 361205273 1336894847
REM
CELL 1.54180   50.00000   50.00000   50.00000   90.00000   90.00000   90.00000
LATT -1
SFAC C  
C      1  0.5549150000000  0.4698680000000  0.4860000000000 1.0
C      1  0.5746340000000  0.5144660000000  0.5558330000000 1.0
C      1  0.5392690000000  0.4946400000000  0.3969070000000 1.0
C      1  0.4908500000000  0.5353500000000  0.5623050000000 1.0
C      1  0.4311460000000  0.5555720000000  0.4847430000000 1.0
C      1  0.5821190000000  0.4636180000000  0.4956480000000 1.0
C      1  0.4525980000000  0.4854730000000  0.5257030000000 1.0
C      1  0.5216750000000  0.4934590000000  0.5249650000000 1.0
C      1  0.6377450000000  0.4630200000000  0.5149390000000 1.0
C      1  0.5117050000000  0.4825720000000  0.5693080000000 1.0
C      1  0.4853290000000  0.5307120000000  0.4326610000000 1.0
C      1  0.4470070000000  0.5934660000000  0.5201710000000 1.0
C      1  0.5513020000000  0.4916340000000  0.3739870000000 1.0
C      1  0.3832880000000  0.5479780000000  0.4932250000000 1.0
C      1  0.5112890000000  0.5561840000000  0.5008620000000 1.0
C      1  0.5747620000000  0.5269400000000  0.5302120000000 1.0
C      1  0.3831430000000  0.5090950000000  0.5377720000000 1.0
C      1  0.5884070000000  0.5235370000000  0.4839770000000 1.0
C      1  0.5499410000000  0.5375270000000  0.5211030000000 1.0
C      1  0.4991810000000  0.5363520000000  0.5176640000000 1.0
C      1  0.6355100000000  0.4892240000000  0.5198610000000 1.0
C      1  0.4377400000000  0.5764850000000  0.5020680000000 1.0
C      1  0.4653480000000  0.5429680000000  0.4450390000000 1.0
C      1  0.5956100000000  0.5226070000000  0.5112550000000 1.0
C      1  0.4755700000000  0.4495300000000  0.4668340000000 1.0
C      1  0.5267320000000  0.4975690000000  0.4216830000000 1.0
C      1  0.4204730000000  0.4616420000000  0.5528370000000 1.0
C      1  0.4372910000000  0.4233870000000  0.5264550000000 1.0
C      1  0.5056240000000  0.5156290000000  0.4247470000000 1.0
C      1  0.4267170000000  0.4909700000000  0.4564520000000 1.0
C      1  0.4753930000000  0.4975440000000  0.5365100000000 1.0
C      1  0.6200610000000  0.5109700000000  0.5186070000000 1.0
C      1  0.5253240000000  0.5232420000000  0.5311880000000 1.0
C      1  0.4249230000000  0.4357930000000  0.5468100000000 1.0
C      1  0.5834890000000  0.4184970000000  0.4833700000000 1.0
C      1  0.5433830000000  0.4452460000000  0.4708550000000 1.0
C      1  0.5545920000000  0.4907300000000  0.4633940000000 1.0
C      1  0.5977050000000  0.4399510000000  0.4951120000000 1.0
C      1  0.4574660000000  0.6088730000000  0.5384130000000 1.0
C      1  0.6236700000000  0.4423560000000  0.5051470000000 1.0
C      1  0.4502410000000  0.4780540000000  0.4980280000000 1.0
C      1  0.4309560000000  0.4937400000000  0.4838130000000 1.0
C      1  0.4589460000000  0.4524450000000  0.4890660000000 1.0
C      1  0.5189200000000  0.5278300000000  0.5617300000000 1.0
C      1  0.4079320000000  0.5022090000000  0.5265800000000 1.0
C      1  0.5389290000000  0.5571560000000  0.5030070000000 1.0
C      1  0.5720610000000  0.5123600000000  0.4659630000000 1.0
C      1  0.4466040000000  0.5510940000000  0.4619210000000 1.0
C      1  0.5004080000000  0.4838610000000  0.5425420000000 1.0
C      1  0.5578770000000  0.5038760000000  0.5743580000000 1.0
C      1  0.3632310000000  0.5436330000000  0.5106750000000 1.0
C      1  0.4979630000000  0.4501680000000  0.4525100000000 1.0
C      1  0.4231500000000  0.4878880000000  0.4308230000000 1.0
C      1  0.4503860000000  0.4301990000000  0.5040980000000 1.0
C      1  0.5352680000000  0.4824020000000  0.4436890000000 1.0
C      1  0.5250520000000  0.4564250000000  0.4513620000000 1.0
C      1  0.4787750000000  0.5265970000000  0.5370660000000 1.0
C      1  0.4096790000000  0.5382140000000  0.4913490000000 1.0
C      1  0.4150950000000  0.5114990000000  0.4999550000000 1.0
C      1  0.5295840000000  0.5045810000000  0.5757380000000 1.0
C      1  0.3633870000000  0.5261710000000  0.5312470000000 1.0
C      1  0.5584760000000  0.4214780000000  0.4730130000000 1.0
C      1  0.4271040000000  0.4851780000000  0.5389750000000 1.0
C      1  0.5370480000000  0.4782670000000  0.5078700000000 1.0
END
