TITL C-247202-1916-410 0.000840772930060668 125000 -784.973895238919 0 0 129 (C1) n - 1
REM
REM in /home/nfs/bkarasulu/CARBON/AIRSS/Generating-Clusters/LCBOP/Only-C1/SD-CG/FIRE-HFTN
REM
REM
REM
REM
REM
REM ./C.cell (11c1c37f851c82e70ff6c80c92926a4b)
REM AIRSS Version 0.9.1 bugfix July 2018 build 013d7b7c2542+ Fri, 06 Jul 2018 19:26:36 +0100
REM compiler GCC version 9.2.1 20190827 (Red Hat 9.2.1-1)
REM options -cpp -mtune=generic -march=x86-64 -g -O0 -fpre-include=/usr/include/finclude/math-vector-fortran.h
REM seed 282590299 1633115971 -745952383 496260862 -1772751749 -409120345 401418640 1502877427 -717011733 -260139608 1702488251 1185530263 -1414410393 807920327 -242973219 1976097559 -589709542 -1321428994 -1330755318 -2130618629 -1124573210 856250637 635023763 -1866525282 1572728876 -207121480 -2109683591 448695660 -832733076 -1595827486 -265014847 651462851 618988163
REM
CELL 1.54180   50.00000   50.00000   50.00000   90.00000   90.00000   90.00000
LATT -1
SFAC C  
C      1  0.5317210000000  0.5976890000000  0.5491320000000 1.0
C      1  0.4625060000000  0.4534430000000  0.5984220000000 1.0
C      1  0.4720890000000  0.6183250000000  0.5282900000000 1.0
C      1  0.5331720000000  0.3977910000000  0.5632160000000 1.0
C      1  0.4699380000000  0.5729910000000  0.5769700000000 1.0
C      1  0.4565830000000  0.4819800000000  0.4526140000000 1.0
C      1  0.4954940000000  0.6053880000000  0.5196400000000 1.0
C      1  0.5058620000000  0.5962140000000  0.4714610000000 1.0
C      1  0.5062640000000  0.4033030000000  0.5713150000000 1.0
C      1  0.5397150000000  0.4643100000000  0.3614920000000 1.0
C      1  0.5349120000000  0.4929940000000  0.5926200000000 1.0
C      1  0.5470460000000  0.4688500000000  0.5786700000000 1.0
C      1  0.4810970000000  0.4860360000000  0.4374450000000 1.0
C      1  0.5540800000000  0.4908620000000  0.4792940000000 1.0
C      1  0.5379070000000  0.4693480000000  0.4689090000000 1.0
C      1  0.5302700000000  0.4725130000000  0.5150010000000 1.0
C      1  0.5284340000000  0.5416330000000  0.3934850000000 1.0
C      1  0.4312730000000  0.5427630000000  0.4920500000000 1.0
C      1  0.5164380000000  0.4327350000000  0.4477240000000 1.0
C      1  0.5461940000000  0.5330950000000  0.4540210000000 1.0
C      1  0.4651780000000  0.3765730000000  0.5728080000000 1.0
C      1  0.5205250000000  0.5427140000000  0.5275420000000 1.0
C      1  0.4452590000000  0.4891530000000  0.3804260000000 1.0
C      1  0.5081700000000  0.4178700000000  0.4724820000000 1.0
C      1  0.5422640000000  0.5563620000000  0.4746960000000 1.0
C      1  0.4495010000000  0.5843410000000  0.5580380000000 1.0
C      1  0.5581670000000  0.4298200000000  0.5354370000000 1.0
C      1  0.4933440000000  0.5462540000000  0.4891910000000 1.0
C      1  0.4414980000000  0.5426670000000  0.4188090000000 1.0
C      1  0.5213540000000  0.5493420000000  0.4985440000000 1.0
C      1  0.5913440000000  0.4587860000000  0.5125880000000 1.0
C      1  0.4615090000000  0.4796010000000  0.3624310000000 1.0
C      1  0.5379140000000  0.5229120000000  0.5908960000000 1.0
C      1  0.5679400000000  0.4717540000000  0.5581440000000 1.0
C      1  0.5299690000000  0.5794370000000  0.4293500000000 1.0
C      1  0.5145140000000  0.5408230000000  0.5880710000000 1.0
C      1  0.4500670000000  0.5400840000000  0.5477480000000 1.0
C      1  0.5741320000000  0.5840560000000  0.5338170000000 1.0
C      1  0.4542570000000  0.6100090000000  0.5468770000000 1.0
C      1  0.5261530000000  0.5279160000000  0.4356190000000 1.0
C      1  0.4769120000000  0.5927600000000  0.4649310000000 1.0
C      1  0.5177120000000  0.4891180000000  0.4044090000000 1.0
C      1  0.5255790000000  0.5173630000000  0.4089630000000 1.0
C      1  0.4732340000000  0.4313660000000  0.4212690000000 1.0
C      1  0.5762180000000  0.5509330000000  0.5704010000000 1.0
C      1  0.4456780000000  0.5557540000000  0.4441740000000 1.0
C      1  0.5917630000000  0.4357730000000  0.4935930000000 1.0
C      1  0.4513030000000  0.4762320000000  0.5896880000000 1.0
C      1  0.4812480000000  0.4158420000000  0.4826950000000 1.0
C      1  0.5511660000000  0.4931530000000  0.5086380000000 1.0
C      1  0.4906830000000  0.5079640000000  0.5143150000000 1.0
C      1  0.5067310000000  0.5883990000000  0.5397000000000 1.0
C      1  0.4175090000000  0.5064660000000  0.5595580000000 1.0
C      1  0.5908610000000  0.4436940000000  0.4657570000000 1.0
C      1  0.4992430000000  0.4721490000000  0.4205400000000 1.0
C      1  0.6015510000000  0.5108160000000  0.4938060000000 1.0
C      1  0.6034000000000  0.4697230000000  0.4674070000000 1.0
C      1  0.5749070000000  0.4533070000000  0.5363790000000 1.0
C      1  0.4353910000000  0.4951480000000  0.5008530000000 1.0
C      1  0.4418990000000  0.4091870000000  0.5077860000000 1.0
C      1  0.4893900000000  0.4685130000000  0.4894350000000 1.0
C      1  0.4886940000000  0.5484260000000  0.4616630000000 1.0
C      1  0.4005310000000  0.4903960000000  0.5465720000000 1.0
C      1  0.4701130000000  0.4019910000000  0.5065610000000 1.0
C      1  0.5713350000000  0.5581120000000  0.4840160000000 1.0
C      1  0.5002530000000  0.5595000000000  0.5433590000000 1.0
C      1  0.4744500000000  0.5450140000000  0.5336510000000 1.0
C      1  0.4940870000000  0.5038520000000  0.4541610000000 1.0
C      1  0.4354680000000  0.4308470000000  0.4905200000000 1.0
C      1  0.4355620000000  0.5644280000000  0.5404190000000 1.0
C      1  0.5683550000000  0.4384580000000  0.4495640000000 1.0
C      1  0.5773930000000  0.5575770000000  0.5431950000000 1.0
C      1  0.4625000000000  0.4980400000000  0.5752050000000 1.0
C      1  0.4414450000000  0.3885840000000  0.5793310000000 1.0
C      1  0.5081980000000  0.4721730000000  0.5339210000000 1.0
C      1  0.4468920000000  0.5210170000000  0.5019620000000 1.0
C      1  0.4853390000000  0.4396550000000  0.5972810000000 1.0
C      1  0.4846450000000  0.3910970000000  0.5580520000000 1.0
C      1  0.3748120000000  0.4846920000000  0.3961450000000 1.0
C      1  0.4099170000000  0.4504790000000  0.4566460000000 1.0
C      1  0.3998930000000  0.4917140000000  0.3970360000000 1.0
C      1  0.4823600000000  0.3930890000000  0.5299950000000 1.0
C      1  0.5627910000000  0.5356890000000  0.5877660000000 1.0
C      1  0.6178100000000  0.5562200000000  0.5010920000000 1.0
C      1  0.4158940000000  0.4741730000000  0.5016280000000 1.0
C      1  0.4269210000000  0.4984100000000  0.3993530000000 1.0
C      1  0.5179320000000  0.4653050000000  0.4886360000000 1.0
C      1  0.4746680000000  0.5306410000000  0.5071720000000 1.0
C      1  0.4440900000000  0.5160940000000  0.5618530000000 1.0
C      1  0.4603500000000  0.4354800000000  0.4759860000000 1.0
C      1  0.4371060000000  0.5910030000000  0.4972040000000 1.0
C      1  0.6011580000000  0.4821650000000  0.4942810000000 1.0
C      1  0.3987270000000  0.4760520000000  0.5239360000000 1.0
C      1  0.4233290000000  0.4413310000000  0.4348580000000 1.0
C      1  0.5293580000000  0.4765980000000  0.3820040000000 1.0
C      1  0.5012380000000  0.5289880000000  0.4473000000000 1.0
C      1  0.5461300000000  0.4188280000000  0.5119980000000 1.0
C      1  0.5617020000000  0.5115160000000  0.4624080000000 1.0
C      1  0.5300200000000  0.5663930000000  0.4054510000000 1.0
C      1  0.4355420000000  0.5145100000000  0.4206770000000 1.0
C      1  0.4859910000000  0.4800110000000  0.5150760000000 1.0
C      1  0.5272800000000  0.5801260000000  0.4580370000000 1.0
C      1  0.5769090000000  0.5362470000000  0.5244240000000 1.0
C      1  0.4954980000000  0.5576300000000  0.5740750000000 1.0
C      1  0.4329560000000  0.5378200000000  0.4637740000000 1.0
C      1  0.5521360000000  0.6008940000000  0.5295270000000 1.0
C      1  0.4669230000000  0.4626820000000  0.4729870000000 1.0
C      1  0.4909900000000  0.4960750000000  0.5745650000000 1.0
C      1  0.5290860000000  0.4131880000000  0.4918580000000 1.0
C      1  0.5078660000000  0.4298850000000  0.5840520000000 1.0
C      1  0.5080580000000  0.4948580000000  0.5520520000000 1.0
C      1  0.5920890000000  0.5403890000000  0.4988190000000 1.0
C      1  0.4704110000000  0.3507360000000  0.5802320000000 1.0
C      1  0.5475500000000  0.4222210000000  0.5605390000000 1.0
C      1  0.4164360000000  0.4510090000000  0.4844620000000 1.0
C      1  0.4985790000000  0.4433620000000  0.4268600000000 1.0
C      1  0.4305550000000  0.5664150000000  0.5103550000000 1.0
C      1  0.5415310000000  0.4472950000000  0.4515110000000 1.0
C      1  0.4554680000000  0.6023840000000  0.4808870000000 1.0
C      1  0.5064930000000  0.4899760000000  0.5976030000000 1.0
C      1  0.4703610000000  0.5675410000000  0.4525890000000 1.0
C      1  0.4463660000000  0.4331560000000  0.4233900000000 1.0
C      1  0.5410130000000  0.6102980000000  0.5047480000000 1.0
C      1  0.5341910000000  0.4426720000000  0.5778440000000 1.0
C      1  0.5734830000000  0.4980810000000  0.5512420000000 1.0
C      1  0.5131460000000  0.6078610000000  0.4968570000000 1.0
C      1  0.5654410000000  0.5103680000000  0.5273800000000 1.0
C      1  0.4383200000000  0.5058620000000  0.4485180000000 1.0
C      1  0.5114330000000  0.5160270000000  0.5332990000000 1.0
END
