TITL C-247198-3593-431 1149.06242014917 125000 -1110.70853816857 0 0 182 (C1) n - 1
REM
REM in /home/nfs/bkarasulu/CARBON/AIRSS/Generating-Clusters/LCBOP/Only-C1/SD-CG/FIRE-HFTN
REM
REM
REM
REM
REM
REM ./C.cell (11c1c37f851c82e70ff6c80c92926a4b)
REM AIRSS Version 0.9.1 bugfix July 2018 build 013d7b7c2542+ Fri, 06 Jul 2018 19:26:36 +0100
REM compiler GCC version 9.2.1 20190827 (Red Hat 9.2.1-1)
REM options -cpp -mtune=generic -march=x86-64 -g -O0 -fpre-include=/usr/include/finclude/math-vector-fortran.h
REM seed -2088651470 -920079166 2127821712 493283058 148398933 1345956174 1634315423 -1155243454 -7227573 1921149370 -1604100481 629612577 1756892329 2006581253 -856246230 645217154 1176756591 858084914 1864147855 1330793940 94221486 1831454402 -2098821518 -1472187042 -1639015829 -1253819209 873864145 -251912883 -1089515037 -1908368200 -132827944 -1691293429 -1962515083
REM
CELL 1.54180   50.00000   50.00000   50.00000   90.00000   90.00000   90.00000
LATT -1
SFAC C  
C      1  0.4700410000000  0.5971420000000  0.4490590000000 1.0
C      1  0.4865390000000  0.5543930000000  0.4784760000000 1.0
C      1  0.5277790000000  0.5882140000000  0.4022740000000 1.0
C      1  0.4649080000000  0.5610970000000  0.5347770000000 1.0
C      1  0.4812530000000  0.5218980000000  0.5581170000000 1.0
C      1  0.5802530000000  0.4681340000000  0.5221990000000 1.0
C      1  0.6329980000000  0.4999020000000  0.4981390000000 1.0
C      1  0.4060040000000  0.4878830000000  0.5663710000000 1.0
C      1  0.5634560000000  0.4618970000000  0.4096990000000 1.0
C      1  0.5670320000000  0.4348320000000  0.4815540000000 1.0
C      1  0.5816110000000  0.4646000000000  0.5969420000000 1.0
C      1  0.3980010000000  0.4734260000000  0.4654780000000 1.0
C      1  0.5841210000000  0.5370130000000  0.5201540000000 1.0
C      1  0.4930770000000  0.4769660000000  0.6032680000000 1.0
C      1  0.4450810000000  0.4645480000000  0.5307480000000 1.0
C      1  0.5440690000000  0.4968540000000  0.5533500000000 1.0
C      1  0.4440670000000  0.4567850000000  0.4038810000000 1.0
C      1  0.4350620000000  0.5383070000000  0.4636830000000 1.0
C      1  0.5601040000000  0.4884440000000  0.5294900000000 1.0
C      1  0.5275710000000  0.3941730000000  0.5363330000000 1.0
C      1  0.6199410000000  0.5471050000000  0.5438210000000 1.0
C      1  0.5263430000000  0.4851510000000  0.3906390000000 1.0
C      1  0.4310440000000  0.4339900000000  0.4491880000000 1.0
C      1  0.4227740000000  0.5953090000000  0.4772300000000 1.0
C      1  0.6374430000000  0.5757210000000  0.4140080000000 1.0
C      1  0.5223550000000  0.3945820000000  0.4567940000000 1.0
C      1  0.4472940000000  0.5128120000000  0.5238170000000 1.0
C      1  0.5552280000000  0.5136890000000  0.4168780000000 1.0
C      1  0.5509920000000  0.5523520000000  0.6162730000000 1.0
C      1  0.4367370000000  0.4836810000000  0.3981460000000 1.0
C      1  0.5011150000000  0.4025210000000  0.4957770000000 1.0
C      1  0.5796530000000  0.5508310000000  0.5730900000000 1.0
C      1  0.5404570000000  0.5485280000000  0.5087020000000 1.0
C      1  0.4692710000000  0.4938180000000  0.5035630000000 1.0
C      1  0.6159320000000  0.4895410000000  0.5473040000000 1.0
C      1  0.4218350000000  0.5986640000000  0.5322480000000 1.0
C      1  0.5888060000000  0.4923360000000  0.5903790000000 1.0
C      1  0.5575510000000  0.4428310000000  0.4542130000000 1.0
C      1  0.4737880000000  0.4625180000000  0.5331490000000 1.0
C      1  0.4684780000000  0.5892920000000  0.5290720000000 1.0
C      1  0.5969970000000  0.4436640000000  0.5571510000000 1.0
C      1  0.4446830000000  0.4095310000000  0.4957820000000 1.0
C      1  0.6331120000000  0.4996250000000  0.5267520000000 1.0
C      1  0.5361710000000  0.5354910000000  0.4591130000000 1.0
C      1  0.4974950000000  0.5952480000000  0.4384110000000 1.0
C      1  0.4853770000000  0.5444170000000  0.4523970000000 1.0
C      1  0.4532720000000  0.5506690000000  0.5999340000000 1.0
C      1  0.5331380000000  0.5684560000000  0.5607130000000 1.0
C      1  0.5004990000000  0.4760820000000  0.4301550000000 1.0
C      1  0.4543280000000  0.5405830000000  0.5135460000000 1.0
C      1  0.5022800000000  0.4494790000000  0.4748510000000 1.0
C      1  0.4273640000000  0.4029850000000  0.5382820000000 1.0
C      1  0.5109030000000  0.5018030000000  0.5930760000000 1.0
C      1  0.4256540000000  0.5100620000000  0.3980090000000 1.0
C      1  0.4768020000000  0.3803840000000  0.5463460000000 1.0
C      1  0.5959620000000  0.5666810000000  0.4717930000000 1.0
C      1  0.6018670000000  0.4654120000000  0.5403540000000 1.0
C      1  0.5263090000000  0.5422650000000  0.6190990000000 1.0
C      1  0.4783010000000  0.5419120000000  0.6075400000000 1.0
C      1  0.6501870000000  0.4553420000000  0.4807070000000 1.0
C      1  0.5748690000000  0.4472260000000  0.5737630000000 1.0
C      1  0.4473080000000  0.4955810000000  0.6007510000000 1.0
C      1  0.4660430000000  0.4792080000000  0.4809010000000 1.0
C      1  0.5040290000000  0.5281940000000  0.6083570000000 1.0
C      1  0.4883090000000  0.5002050000000  0.4345150000000 1.0
C      1  0.5818730000000  0.5880050000000  0.4858420000000 1.0
C      1  0.4192370000000  0.4998320000000  0.5249780000000 1.0
C      1  0.4252150000000  0.4796580000000  0.5463050000000 1.0
C      1  0.4636460000000  0.4122040000000  0.4017840000000 1.0
C      1  0.5360320000000  0.4189850000000  0.4147700000000 1.0
C      1  0.5440190000000  0.5806160000000  0.4250590000000 1.0
C      1  0.4502160000000  0.3860380000000  0.5439180000000 1.0
C      1  0.4747270000000  0.4074070000000  0.4491320000000 1.0
C      1  0.5547660000000  0.5968960000000  0.4886550000000 1.0
C      1  0.4902630000000  0.5958630000000  0.5115480000000 1.0
C      1  0.4045470000000  0.5757070000000  0.4929320000000 1.0
C      1  0.4045230000000  0.5204980000000  0.4142730000000 1.0
C      1  0.4101610000000  0.4303630000000  0.4695510000000 1.0
C      1  0.6101600000000  0.5477290000000  0.5167030000000 1.0
C      1  0.5633460000000  0.4982750000000  0.4818490000000 1.0
C      1  0.5404410000000  0.4153570000000  0.5213220000000 1.0
C      1  0.3946440000000  0.4887590000000  0.5141560000000 1.0
C      1  0.5015790000000  0.3850990000000  0.4161110000000 1.0
C      1  0.4682480000000  0.4855450000000  0.6143880000000 1.0
C      1  0.5155920000000  0.4845440000000  0.5477520000000 1.0
C      1  0.5120860000000  0.5552390000000  0.5471890000000 1.0
C      1  0.4721380000000  0.4480200000000  0.4771710000000 1.0
C      1  0.3784190000000  0.5089140000000  0.5025650000000 1.0
C      1  0.4866020000000  0.4195690000000  0.5158530000000 1.0
C      1  0.3883340000000  0.5323000000000  0.4343360000000 1.0
C      1  0.5039180000000  0.3831290000000  0.5445760000000 1.0
C      1  0.5446150000000  0.4455900000000  0.5717710000000 1.0
C      1  0.5413170000000  0.5026990000000  0.5831290000000 1.0
C      1  0.4890950000000  0.4519310000000  0.5882800000000 1.0
C      1  0.4227270000000  0.4750890000000  0.4782610000000 1.0
C      1  0.5048250000000  0.4713670000000  0.4025840000000 1.0
C      1  0.5378500000000  0.3958060000000  0.4793520000000 1.0
C      1  0.4327550000000  0.4630940000000  0.5033130000000 1.0
C      1  0.4419650000000  0.5122710000000  0.5787560000000 1.0
C      1  0.4073690000000  0.5760380000000  0.5227410000000 1.0
C      1  0.4220820000000  0.4251320000000  0.5559720000000 1.0
C      1  0.5439900000000  0.5139110000000  0.4430840000000 1.0
C      1  0.4956640000000  0.4465780000000  0.3933170000000 1.0
C      1  0.5289130000000  0.5902600000000  0.5765450000000 1.0
C      1  0.5723060000000  0.5552220000000  0.6001100000000 1.0
C      1  0.5176900000000  0.4280550000000  0.3941480000000 1.0
C      1  0.4828150000000  0.4362490000000  0.5407560000000 1.0
C      1  0.5182210000000  0.4534680000000  0.4989560000000 1.0
C      1  0.4594560000000  0.4315140000000  0.4546970000000 1.0
C      1  0.4452220000000  0.4317930000000  0.5720910000000 1.0
C      1  0.5835750000000  0.4545040000000  0.4958930000000 1.0
C      1  0.4030210000000  0.5562930000000  0.5436970000000 1.0
C      1  0.5264740000000  0.4539000000000  0.5495020000000 1.0
C      1  0.4372370000000  0.5613770000000  0.4474800000000 1.0
C      1  0.4806130000000  0.5356220000000  0.4988100000000 1.0
C      1  0.4536700000000  0.6316610000000  0.5479740000000 1.0
C      1  0.5676470000000  0.5636120000000  0.4263310000000 1.0
C      1  0.4074920000000  0.5399860000000  0.5672830000000 1.0
C      1  0.6155950000000  0.5718460000000  0.4276730000000 1.0
C      1  0.4765640000000  0.3974600000000  0.4220650000000 1.0
C      1  0.4208910000000  0.4095580000000  0.5109580000000 1.0
C      1  0.3883210000000  0.5565150000000  0.4776010000000 1.0
C      1  0.4375280000000  0.5282700000000  0.3801670000000 1.0
C      1  0.5663690000000  0.5390580000000  0.4109050000000 1.0
C      1  0.5210780000000  0.4814660000000  0.5027130000000 1.0
C      1  0.6305060000000  0.4731550000000  0.4859600000000 1.0
C      1  0.5921030000000  0.5670560000000  0.4425880000000 1.0
C      1  0.5380090000000  0.5534040000000  0.4806600000000 1.0
C      1  0.5373020000000  0.5807940000000  0.4729330000000 1.0
C      1  0.4439310000000  0.4891850000000  0.4655290000000 1.0
C      1  0.5402470000000  0.6114560000000  0.5082440000000 1.0
C      1  0.5528590000000  0.4128530000000  0.4953240000000 1.0
C      1  0.4994920000000  0.5026450000000  0.5655350000000 1.0
C      1  0.3953030000000  0.5133540000000  0.5689030000000 1.0
C      1  0.4731160000000  0.5208030000000  0.4435380000000 1.0
C      1  0.4027830000000  0.4299420000000  0.4986170000000 1.0
C      1  0.5001730000000  0.5230010000000  0.5135800000000 1.0
C      1  0.4993130000000  0.4884890000000  0.5217830000000 1.0
C      1  0.6051260000000  0.5054910000000  0.5694830000000 1.0
C      1  0.5021890000000  0.5962280000000  0.4094290000000 1.0
C      1  0.4002570000000  0.4418310000000  0.5455940000000 1.0
C      1  0.4501210000000  0.5458890000000  0.3656700000000 1.0
C      1  0.5142860000000  0.6102530000000  0.5163930000000 1.0
C      1  0.5500080000000  0.4917050000000  0.4582670000000 1.0
C      1  0.6034180000000  0.5351620000000  0.5651290000000 1.0
C      1  0.6021890000000  0.4709780000000  0.4810080000000 1.0
C      1  0.4740540000000  0.4357210000000  0.5693040000000 1.0
C      1  0.3785770000000  0.5281330000000  0.4815260000000 1.0
C      1  0.3768370000000  0.5154260000000  0.4549030000000 1.0
C      1  0.4952830000000  0.3991500000000  0.4678410000000 1.0
C      1  0.5381200000000  0.4472120000000  0.6003840000000 1.0
C      1  0.4317920000000  0.5393520000000  0.5842100000000 1.0
C      1  0.6134590000000  0.5174790000000  0.4831170000000 1.0
C      1  0.4178390000000  0.6222850000000  0.4801610000000 1.0
C      1  0.6117980000000  0.5463750000000  0.4873380000000 1.0
C      1  0.5594620000000  0.4579090000000  0.6149180000000 1.0
C      1  0.4474850000000  0.5148100000000  0.4543750000000 1.0
C      1  0.5257980000000  0.5873330000000  0.4480820000000 1.0
C      1  0.4899440000000  0.5804860000000  0.4879040000000 1.0
C      1  0.5278770000000  0.4406150000000  0.5236930000000 1.0
C      1  0.4649850000000  0.4286930000000  0.4992310000000 1.0
C      1  0.5468590000000  0.4938040000000  0.5045620000000 1.0
C      1  0.5249410000000  0.3961780000000  0.4288170000000 1.0
C      1  0.5129370000000  0.4618370000000  0.4514870000000 1.0
C      1  0.3786260000000  0.4876220000000  0.4539040000000 1.0
C      1  0.4267530000000  0.4442100000000  0.4231640000000 1.0
C      1  0.4849810000000  0.5494070000000  0.5526160000000 1.0
C      1  0.5915360000000  0.4984960000000  0.4786950000000 1.0
C      1  0.4434110000000  0.5872260000000  0.4575450000000 1.0
C      1  0.5570120000000  0.4371830000000  0.4250000000000 1.0
C      1  0.3934900000000  0.4525280000000  0.5183010000000 1.0
C      1  0.5519900000000  0.4880780000000  0.4028810000000 1.0
C      1  0.5405820000000  0.4661020000000  0.4547430000000 1.0
C      1  0.5186360000000  0.5404330000000  0.5236140000000 1.0
C      1  0.5619360000000  0.5512040000000  0.5265130000000 1.0
C      1  0.5650660000000  0.5066960000000  0.5971440000000 1.0
C      1  0.4350560000000  0.5433890000000  0.4913910000000 1.0
C      1  0.3887170000000  0.5582490000000  0.4477490000000 1.0
C      1  0.5593490000000  0.5589390000000  0.5537690000000 1.0
C      1  0.4556070000000  0.5122210000000  0.5538420000000 1.0
C      1  0.4673320000000  0.4400740000000  0.3961540000000 1.0
C      1  0.4481370000000  0.6074450000000  0.5367380000000 1.0
END
