TITL C-247197-3123-489 8.12556902845848 125000 -582.626962161643 0 0 96 (C1) n - 1
REM
REM in /home/nfs/bkarasulu/CARBON/AIRSS/Generating-Clusters/LCBOP/Only-C1/SD-CG/FIRE-HFTN
REM
REM
REM
REM
REM
REM ./C.cell (11c1c37f851c82e70ff6c80c92926a4b)
REM AIRSS Version 0.9.1 bugfix July 2018 build 013d7b7c2542+ Fri, 06 Jul 2018 19:26:36 +0100
REM compiler GCC version 9.2.1 20190827 (Red Hat 9.2.1-1)
REM options -cpp -mtune=generic -march=x86-64 -g -O0 -fpre-include=/usr/include/finclude/math-vector-fortran.h
REM seed -511677068 862887814 40569984 808167760 -116379736 2113031726 -987021702 -1016049198 551876720 176358764 1939574667 -1363900516 909690518 828412772 1997969263 1257103592 -1445882578 1752427210 -1372285901 -2033123793 672882526 -177795040 -2040346672 59973443 617236971 1832607300 -348906474 1674243135 1421120240 -479851813 -249663670 -1711520217 1075381253
REM
CELL 1.54180   50.00000   50.00000   50.00000   90.00000   90.00000   90.00000
LATT -1
SFAC C  
C      1  0.5582980000000  0.5021940000000  0.4905510000000 1.0
C      1  0.4736870000000  0.4665790000000  0.5761040000000 1.0
C      1  0.5819440000000  0.5578200000000  0.5165660000000 1.0
C      1  0.5282590000000  0.4641210000000  0.4711020000000 1.0
C      1  0.5300700000000  0.4619200000000  0.4178410000000 1.0
C      1  0.5489470000000  0.5505170000000  0.4503380000000 1.0
C      1  0.4401130000000  0.4927460000000  0.5512260000000 1.0
C      1  0.5280640000000  0.5419510000000  0.4926050000000 1.0
C      1  0.4818280000000  0.4804290000000  0.5161810000000 1.0
C      1  0.4793850000000  0.5318170000000  0.4907930000000 1.0
C      1  0.5247710000000  0.5129100000000  0.5896470000000 1.0
C      1  0.5018870000000  0.5213330000000  0.5782620000000 1.0
C      1  0.5699350000000  0.4821600000000  0.4724290000000 1.0
C      1  0.4868440000000  0.4414090000000  0.4421450000000 1.0
C      1  0.5626100000000  0.5212280000000  0.5625710000000 1.0
C      1  0.4265130000000  0.5229860000000  0.4484360000000 1.0
C      1  0.4113260000000  0.5242810000000  0.4725370000000 1.0
C      1  0.5607000000000  0.4333890000000  0.4713990000000 1.0
C      1  0.4200240000000  0.5550620000000  0.5152030000000 1.0
C      1  0.4713970000000  0.5371690000000  0.4642840000000 1.0
C      1  0.4883880000000  0.5810470000000  0.5330950000000 1.0
C      1  0.4692070000000  0.5660950000000  0.4628040000000 1.0
C      1  0.4592650000000  0.4576170000000  0.4452250000000 1.0
C      1  0.5222450000000  0.5105340000000  0.4579040000000 1.0
C      1  0.4980030000000  0.4512520000000  0.5709330000000 1.0
C      1  0.4529870000000  0.5132900000000  0.5980940000000 1.0
C      1  0.4844800000000  0.4628000000000  0.4945130000000 1.0
C      1  0.5239420000000  0.4528060000000  0.5823770000000 1.0
C      1  0.4229720000000  0.4759250000000  0.4769960000000 1.0
C      1  0.4767580000000  0.5759430000000  0.4374100000000 1.0
C      1  0.6006260000000  0.5353670000000  0.5191110000000 1.0
C      1  0.5769310000000  0.4572130000000  0.5167390000000 1.0
C      1  0.4884620000000  0.5665760000000  0.4148560000000 1.0
C      1  0.4226800000000  0.4625870000000  0.5228590000000 1.0
C      1  0.4046570000000  0.4985620000000  0.4841160000000 1.0
C      1  0.5684010000000  0.4899910000000  0.4429250000000 1.0
C      1  0.5657130000000  0.5679550000000  0.5378240000000 1.0
C      1  0.4870040000000  0.4781500000000  0.4708180000000 1.0
C      1  0.5465140000000  0.5597300000000  0.4781440000000 1.0
C      1  0.5709880000000  0.5653640000000  0.4914490000000 1.0
C      1  0.5278240000000  0.4297690000000  0.5317320000000 1.0
C      1  0.5364870000000  0.5170670000000  0.4812130000000 1.0
C      1  0.5683260000000  0.5108120000000  0.5375870000000 1.0
C      1  0.5610820000000  0.4788810000000  0.5813550000000 1.0
C      1  0.4557820000000  0.5171800000000  0.4505590000000 1.0
C      1  0.4443390000000  0.5417410000000  0.5574890000000 1.0
C      1  0.5216210000000  0.4145640000000  0.5080980000000 1.0
C      1  0.4179060000000  0.5103360000000  0.4239580000000 1.0
C      1  0.5405680000000  0.5761520000000  0.5433890000000 1.0
C      1  0.5293970000000  0.4829280000000  0.5201910000000 1.0
C      1  0.5142430000000  0.5810380000000  0.5406010000000 1.0
C      1  0.3991130000000  0.5000960000000  0.5141550000000 1.0
C      1  0.4349490000000  0.4902010000000  0.4157210000000 1.0
C      1  0.5019950000000  0.5211450000000  0.5305730000000 1.0
C      1  0.5031710000000  0.5368620000000  0.5062740000000 1.0
C      1  0.5043920000000  0.5479980000000  0.4031510000000 1.0
C      1  0.5527510000000  0.4457110000000  0.5398990000000 1.0
C      1  0.4142080000000  0.4872940000000  0.5364100000000 1.0
C      1  0.5000650000000  0.4188620000000  0.4892190000000 1.0
C      1  0.5518540000000  0.4992540000000  0.5187050000000 1.0
C      1  0.5733230000000  0.4553770000000  0.4861350000000 1.0
C      1  0.4421390000000  0.5596050000000  0.5331400000000 1.0
C      1  0.4571260000000  0.4928230000000  0.5099770000000 1.0
C      1  0.5060960000000  0.4258360000000  0.4613890000000 1.0
C      1  0.5491990000000  0.4567400000000  0.5681030000000 1.0
C      1  0.4536870000000  0.4650390000000  0.5552900000000 1.0
C      1  0.5820970000000  0.5151930000000  0.4382340000000 1.0
C      1  0.5510090000000  0.5054280000000  0.5825050000000 1.0
C      1  0.4663550000000  0.4887650000000  0.5947650000000 1.0
C      1  0.4359300000000  0.4520370000000  0.4638860000000 1.0
C      1  0.4422910000000  0.5371150000000  0.5866690000000 1.0
C      1  0.5744270000000  0.5411320000000  0.4413150000000 1.0
C      1  0.5293280000000  0.4647000000000  0.4992280000000 1.0
C      1  0.5118160000000  0.4847260000000  0.4597010000000 1.0
C      1  0.5233480000000  0.5296220000000  0.4131230000000 1.0
C      1  0.5386760000000  0.5070200000000  0.4047850000000 1.0
C      1  0.5954800000000  0.5081370000000  0.5282040000000 1.0
C      1  0.5336930000000  0.4373170000000  0.4614990000000 1.0
C      1  0.4117900000000  0.5458030000000  0.4911630000000 1.0
C      1  0.5478370000000  0.4842100000000  0.4209680000000 1.0
C      1  0.4644270000000  0.5777130000000  0.4895240000000 1.0
C      1  0.4866110000000  0.5220440000000  0.5544740000000 1.0
C      1  0.4373260000000  0.4302380000000  0.4839550000000 1.0
C      1  0.4566130000000  0.4856390000000  0.4342510000000 1.0
C      1  0.4531690000000  0.4304770000000  0.5094450000000 1.0
C      1  0.4372970000000  0.4752300000000  0.5014860000000 1.0
C      1  0.5036860000000  0.4354510000000  0.5474120000000 1.0
C      1  0.5969100000000  0.4787320000000  0.5239470000000 1.0
C      1  0.4436400000000  0.4456820000000  0.5342860000000 1.0
C      1  0.4643610000000  0.5742550000000  0.5192220000000 1.0
C      1  0.4797800000000  0.4354820000000  0.4997670000000 1.0
C      1  0.4585020000000  0.5195550000000  0.5046100000000 1.0
C      1  0.5045900000000  0.4931600000000  0.5260600000000 1.0
C      1  0.4578460000000  0.5167970000000  0.5510110000000 1.0
C      1  0.5052420000000  0.4511330000000  0.4209690000000 1.0
C      1  0.5274570000000  0.5330750000000  0.4408180000000 1.0
END
