TITL C-247196-3112-647 -0.0153253102821842 125000 -717.003778476219 0 0 117 (C1) n - 1
REM
REM in /home/nfs/bkarasulu/CARBON/AIRSS/Generating-Clusters/LCBOP/Only-C1/SD-CG/FIRE-HFTN
REM
REM
REM
REM
REM
REM ./C.cell (11c1c37f851c82e70ff6c80c92926a4b)
REM AIRSS Version 0.9.1 bugfix July 2018 build 013d7b7c2542+ Fri, 06 Jul 2018 19:26:36 +0100
REM compiler GCC version 9.2.1 20190827 (Red Hat 9.2.1-1)
REM options -cpp -mtune=generic -march=x86-64 -g -O0 -fpre-include=/usr/include/finclude/math-vector-fortran.h
REM seed 934992073 1469963223 -249518680 -1578081390 -1891258598 -1007030417 978945402 156189108 1506432204 -807758791 741564013 -1312807605 2023595411 -1292383316 -981898751 -1218189885 -1339943017 -702422892 -2123276081 923932224 574864564 -945951052 2093615640 -709912921 -2029267833 -1879480379 -551750632 1332836203 -1513389062 -1579644738 1523500758 1766386863 -747202334
REM
CELL 1.54180   50.00000   50.00000   50.00000   90.00000   90.00000   90.00000
LATT -1
SFAC C  
C      1  0.4568890000000  0.4630510000000  0.5053610000000 1.0
C      1  0.5862210000000  0.5612900000000  0.4953070000000 1.0
C      1  0.5131080000000  0.6104350000000  0.5403060000000 1.0
C      1  0.4424950000000  0.4505300000000  0.5481030000000 1.0
C      1  0.4324730000000  0.5268610000000  0.5074680000000 1.0
C      1  0.4233930000000  0.4703950000000  0.5338020000000 1.0
C      1  0.4451330000000  0.5648620000000  0.5411660000000 1.0
C      1  0.4477500000000  0.4253120000000  0.3893420000000 1.0
C      1  0.5426710000000  0.5257210000000  0.4878360000000 1.0
C      1  0.4777500000000  0.6113750000000  0.5058010000000 1.0
C      1  0.4906770000000  0.3952620000000  0.5194160000000 1.0
C      1  0.4521210000000  0.4257190000000  0.5332500000000 1.0
C      1  0.5089040000000  0.4611740000000  0.5521330000000 1.0
C      1  0.5155040000000  0.4696870000000  0.5251110000000 1.0
C      1  0.4993360000000  0.5430100000000  0.5072830000000 1.0
C      1  0.4397930000000  0.4324340000000  0.4792780000000 1.0
C      1  0.4034030000000  0.5269840000000  0.4646310000000 1.0
C      1  0.6079910000000  0.4307590000000  0.5107060000000 1.0
C      1  0.5871490000000  0.5384950000000  0.5537730000000 1.0
C      1  0.5177940000000  0.4028380000000  0.5144680000000 1.0
C      1  0.4977720000000  0.5202700000000  0.6174280000000 1.0
C      1  0.5254220000000  0.3846160000000  0.4368660000000 1.0
C      1  0.4599850000000  0.4151000000000  0.4387030000000 1.0
C      1  0.5883010000000  0.5174060000000  0.5340150000000 1.0
C      1  0.5327300000000  0.4262660000000  0.5097000000000 1.0
C      1  0.4622800000000  0.5138850000000  0.4712820000000 1.0
C      1  0.5138530000000  0.4347970000000  0.5613690000000 1.0
C      1  0.4792130000000  0.3739770000000  0.5067080000000 1.0
C      1  0.5995760000000  0.5341470000000  0.5787600000000 1.0
C      1  0.5467780000000  0.4519430000000  0.4148440000000 1.0
C      1  0.4525700000000  0.5752850000000  0.4397930000000 1.0
C      1  0.4228090000000  0.5228930000000  0.5339810000000 1.0
C      1  0.5579390000000  0.4856430000000  0.3817440000000 1.0
C      1  0.4559120000000  0.5031070000000  0.4308990000000 1.0
C      1  0.4983980000000  0.5160530000000  0.5139440000000 1.0
C      1  0.4174160000000  0.4775250000000  0.4591540000000 1.0
C      1  0.4949750000000  0.5683210000000  0.4965270000000 1.0
C      1  0.4280910000000  0.4669680000000  0.5054460000000 1.0
C      1  0.4233410000000  0.5475700000000  0.4669500000000 1.0
C      1  0.4859310000000  0.4708330000000  0.5653800000000 1.0
C      1  0.4362700000000  0.4687740000000  0.3626460000000 1.0
C      1  0.4006710000000  0.5000270000000  0.4646240000000 1.0
C      1  0.5395720000000  0.5279540000000  0.4602400000000 1.0
C      1  0.4827650000000  0.4927480000000  0.4292670000000 1.0
C      1  0.4543070000000  0.4144370000000  0.4127050000000 1.0
C      1  0.4254290000000  0.4972370000000  0.5469310000000 1.0
C      1  0.5079750000000  0.5031370000000  0.4216890000000 1.0
C      1  0.5601140000000  0.4528440000000  0.4795780000000 1.0
C      1  0.4315840000000  0.5531960000000  0.4947080000000 1.0
C      1  0.4416760000000  0.4206220000000  0.5061680000000 1.0
C      1  0.5035900000000  0.5705060000000  0.5921220000000 1.0
C      1  0.5433550000000  0.5082800000000  0.5096420000000 1.0
C      1  0.4414250000000  0.4444220000000  0.3719800000000 1.0
C      1  0.5511620000000  0.5058410000000  0.4463190000000 1.0
C      1  0.4737830000000  0.5044250000000  0.5148750000000 1.0
C      1  0.5108150000000  0.4508000000000  0.4765330000000 1.0
C      1  0.4337790000000  0.5188590000000  0.3755420000000 1.0
C      1  0.5736400000000  0.5220320000000  0.6211450000000 1.0
C      1  0.5957230000000  0.5429400000000  0.4781370000000 1.0
C      1  0.4024340000000  0.5557010000000  0.5650810000000 1.0
C      1  0.4946120000000  0.6032700000000  0.5602810000000 1.0
C      1  0.4847990000000  0.4671210000000  0.4406400000000 1.0
C      1  0.5392500000000  0.4369430000000  0.4371620000000 1.0
C      1  0.4740810000000  0.4774290000000  0.5188170000000 1.0
C      1  0.4597760000000  0.5154590000000  0.5823610000000 1.0
C      1  0.4766020000000  0.4107720000000  0.5394350000000 1.0
C      1  0.5593520000000  0.4317290000000  0.5003070000000 1.0
C      1  0.6154820000000  0.4559270000000  0.5049770000000 1.0
C      1  0.5251770000000  0.5278460000000  0.5578600000000 1.0
C      1  0.5191270000000  0.4970350000000  0.5167700000000 1.0
C      1  0.4671660000000  0.5614110000000  0.5597140000000 1.0
C      1  0.5627810000000  0.5072970000000  0.5287320000000 1.0
C      1  0.4631280000000  0.4305640000000  0.4621050000000 1.0
C      1  0.5233520000000  0.5325900000000  0.6146780000000 1.0
C      1  0.5440390000000  0.5836900000000  0.4897720000000 1.0
C      1  0.4476170000000  0.5710640000000  0.5120110000000 1.0
C      1  0.4578270000000  0.4688410000000  0.5660800000000 1.0
C      1  0.5646350000000  0.5749890000000  0.5071730000000 1.0
C      1  0.5388840000000  0.5982490000000  0.5409750000000 1.0
C      1  0.4362330000000  0.4834420000000  0.4386940000000 1.0
C      1  0.4458680000000  0.5295100000000  0.4248220000000 1.0
C      1  0.5758200000000  0.4977560000000  0.4596410000000 1.0
C      1  0.4333450000000  0.4952010000000  0.3633320000000 1.0
C      1  0.5158020000000  0.4493130000000  0.5047920000000 1.0
C      1  0.4860320000000  0.4487960000000  0.4619430000000 1.0
C      1  0.4222470000000  0.4570050000000  0.4788880000000 1.0
C      1  0.6051150000000  0.5021690000000  0.5162690000000 1.0
C      1  0.4221760000000  0.5480720000000  0.5479320000000 1.0
C      1  0.4406620000000  0.5508410000000  0.4439400000000 1.0
C      1  0.5832220000000  0.4203980000000  0.5094560000000 1.0
C      1  0.5933640000000  0.5269760000000  0.6037940000000 1.0
C      1  0.4733090000000  0.5338040000000  0.5650750000000 1.0
C      1  0.5411950000000  0.5473670000000  0.5706490000000 1.0
C      1  0.5580570000000  0.5775020000000  0.5352210000000 1.0
C      1  0.5261590000000  0.5537210000000  0.5950230000000 1.0
C      1  0.5203070000000  0.5662400000000  0.4281230000000 1.0
C      1  0.5339300000000  0.4096400000000  0.4350570000000 1.0
C      1  0.5366040000000  0.4500170000000  0.4622780000000 1.0
C      1  0.4999990000000  0.6215460000000  0.5177460000000 1.0
C      1  0.5786940000000  0.4758060000000  0.4788340000000 1.0
C      1  0.5177170000000  0.5810860000000  0.4858010000000 1.0
C      1  0.4856050000000  0.5797940000000  0.5722690000000 1.0
C      1  0.5154660000000  0.3607450000000  0.4401250000000 1.0
C      1  0.5934490000000  0.5199990000000  0.4642010000000 1.0
C      1  0.4935770000000  0.4166910000000  0.5613580000000 1.0
C      1  0.5473110000000  0.5230990000000  0.6257840000000 1.0
C      1  0.6005150000000  0.4792280000000  0.4990070000000 1.0
C      1  0.4545430000000  0.5132880000000  0.4972000000000 1.0
C      1  0.4715640000000  0.5838460000000  0.5026280000000 1.0
C      1  0.5286610000000  0.5491660000000  0.4459820000000 1.0
C      1  0.5635840000000  0.5564680000000  0.5544850000000 1.0
C      1  0.5473270000000  0.4783930000000  0.4057630000000 1.0
C      1  0.4445530000000  0.4947920000000  0.5693090000000 1.0
C      1  0.4987870000000  0.5250510000000  0.5577020000000 1.0
C      1  0.4381630000000  0.5327450000000  0.3978990000000 1.0
C      1  0.4734520000000  0.5134880000000  0.6074210000000 1.0
C      1  0.5359840000000  0.4971930000000  0.4237340000000 1.0
END
