TITL C-247202-1916-597 11.6147634109066 125000 -491.675200274991 0 0 81 (C1) n - 1
REM
REM in /home/nfs/bkarasulu/CARBON/AIRSS/Generating-Clusters/LCBOP/Only-C1/SD-CG/FIRE-HFTN
REM
REM
REM
REM
REM
REM ./C.cell (11c1c37f851c82e70ff6c80c92926a4b)
REM AIRSS Version 0.9.1 bugfix July 2018 build 013d7b7c2542+ Fri, 06 Jul 2018 19:26:36 +0100
REM compiler GCC version 9.2.1 20190827 (Red Hat 9.2.1-1)
REM options -cpp -mtune=generic -march=x86-64 -g -O0 -fpre-include=/usr/include/finclude/math-vector-fortran.h
REM seed 972290966 31073625 1149183396 -610056801 1037145891 -1728941149 -1236578948 1250447308 627732971 -526860025 -824021718 1481282160 2003024062 1858560744 -1579905722 -878673237 -53052407 -382357403 -921969774 -2037672954 -1768425532 -1653161098 1087698592 -1224080536 -543402786 1040555568 -1258313034 1458171068 -461952190 -1176943182 -2125359289 -301289966 1431865580
REM
CELL 1.54180   50.00000   50.00000   50.00000   90.00000   90.00000   90.00000
LATT -1
SFAC C  
C      1  0.4955220000000  0.5845270000000  0.4074440000000 1.0
C      1  0.4526660000000  0.3814930000000  0.4787880000000 1.0
C      1  0.4980080000000  0.5444460000000  0.5783310000000 1.0
C      1  0.6313550000000  0.3917150000000  0.6406570000000 1.0
C      1  0.6072430000000  0.4237250000000  0.6066240000000 1.0
C      1  0.4534840000000  0.5724000000000  0.4600770000000 1.0
C      1  0.5204530000000  0.5329040000000  0.4148000000000 1.0
C      1  0.4322750000000  0.3643390000000  0.4789350000000 1.0
C      1  0.5057060000000  0.5649740000000  0.4922430000000 1.0
C      1  0.4922930000000  0.4828990000000  0.4472780000000 1.0
C      1  0.5790230000000  0.4865880000000  0.4841550000000 1.0
C      1  0.4013240000000  0.3605790000000  0.5178680000000 1.0
C      1  0.4179200000000  0.5030550000000  0.5009740000000 1.0
C      1  0.5444010000000  0.4524340000000  0.4871200000000 1.0
C      1  0.4779920000000  0.4175170000000  0.5097930000000 1.0
C      1  0.4036070000000  0.4319820000000  0.4835900000000 1.0
C      1  0.5733080000000  0.5081440000000  0.4693090000000 1.0
C      1  0.4955720000000  0.6131790000000  0.4026710000000 1.0
C      1  0.5280960000000  0.4350810000000  0.5017900000000 1.0
C      1  0.5694260000000  0.4664570000000  0.5271020000000 1.0
C      1  0.5950900000000  0.4398590000000  0.5894710000000 1.0
C      1  0.4937130000000  0.5241250000000  0.4186660000000 1.0
C      1  0.5291890000000  0.4188360000000  0.4328220000000 1.0
C      1  0.5447510000000  0.4412530000000  0.4389150000000 1.0
C      1  0.4150430000000  0.4531280000000  0.4936510000000 1.0
C      1  0.4736550000000  0.5135380000000  0.5491480000000 1.0
C      1  0.5985890000000  0.5765720000000  0.4964820000000 1.0
C      1  0.4819890000000  0.5399910000000  0.5549260000000 1.0
C      1  0.4868510000000  0.4914500000000  0.5611050000000 1.0
C      1  0.4825320000000  0.4655160000000  0.5550250000000 1.0
C      1  0.4771340000000  0.5445500000000  0.4292010000000 1.0
C      1  0.4118940000000  0.3555440000000  0.4938100000000 1.0
C      1  0.4675030000000  0.4002060000000  0.4904400000000 1.0
C      1  0.5366580000000  0.4581710000000  0.4601560000000 1.0
C      1  0.5493840000000  0.5208720000000  0.4620800000000 1.0
C      1  0.4418080000000  0.4137540000000  0.5428680000000 1.0
C      1  0.4420840000000  0.5802180000000  0.4840920000000 1.0
C      1  0.5233880000000  0.5328140000000  0.5797470000000 1.0
C      1  0.5578340000000  0.4964250000000  0.5636010000000 1.0
C      1  0.5204190000000  0.5800800000000  0.4241930000000 1.0
C      1  0.5236980000000  0.6060030000000  0.4385940000000 1.0
C      1  0.4970950000000  0.5682710000000  0.5185420000000 1.0
C      1  0.4482650000000  0.4772390000000  0.5241060000000 1.0
C      1  0.5052350000000  0.4238490000000  0.5091800000000 1.0
C      1  0.4810440000000  0.4969610000000  0.4703580000000 1.0
C      1  0.5700520000000  0.4729990000000  0.5542990000000 1.0
C      1  0.5432180000000  0.5162290000000  0.5735730000000 1.0
C      1  0.5229240000000  0.6043540000000  0.4665920000000 1.0
C      1  0.4879750000000  0.4966390000000  0.4228260000000 1.0
C      1  0.5754090000000  0.5724710000000  0.4853040000000 1.0
C      1  0.4727210000000  0.5505660000000  0.4577450000000 1.0
C      1  0.4610740000000  0.4291400000000  0.5295990000000 1.0
C      1  0.5116420000000  0.6257240000000  0.4213830000000 1.0
C      1  0.4480600000000  0.5882220000000  0.5859100000000 1.0
C      1  0.5508130000000  0.5670290000000  0.4736040000000 1.0
C      1  0.5829360000000  0.4559950000000  0.5723380000000 1.0
C      1  0.4925810000000  0.5444650000000  0.4771330000000 1.0
C      1  0.4529030000000  0.5834350000000  0.4333510000000 1.0
C      1  0.4723570000000  0.5704740000000  0.4158290000000 1.0
C      1  0.5003470000000  0.5174100000000  0.4785260000000 1.0
C      1  0.4532690000000  0.5060160000000  0.5310610000000 1.0
C      1  0.5674040000000  0.4468630000000  0.4246530000000 1.0
C      1  0.4772320000000  0.5617040000000  0.5371480000000 1.0
C      1  0.4218680000000  0.3966370000000  0.5468260000000 1.0
C      1  0.5268350000000  0.5804700000000  0.4810670000000 1.0
C      1  0.4668350000000  0.5777110000000  0.6019060000000 1.0
C      1  0.5133370000000  0.3984590000000  0.4292580000000 1.0
C      1  0.4260950000000  0.4756530000000  0.5051580000000 1.0
C      1  0.5256440000000  0.5067850000000  0.4681200000000 1.0
C      1  0.4334500000000  0.5203730000000  0.5158600000000 1.0
C      1  0.6193990000000  0.4075880000000  0.6237820000000 1.0
C      1  0.4871450000000  0.5605650000000  0.5985650000000 1.0
C      1  0.4423610000000  0.5870020000000  0.5597780000000 1.0
C      1  0.5205540000000  0.4806750000000  0.4555530000000 1.0
C      1  0.5324800000000  0.5545210000000  0.4290290000000 1.0
C      1  0.5472490000000  0.5477220000000  0.4529840000000 1.0
C      1  0.4636880000000  0.4565400000000  0.5359500000000 1.0
C      1  0.4414630000000  0.5812770000000  0.5107180000000 1.0
C      1  0.4059390000000  0.3769870000000  0.5384480000000 1.0
C      1  0.5655230000000  0.4671800000000  0.4994350000000 1.0
C      1  0.4527030000000  0.5764550000000  0.5359610000000 1.0
END
