TITL C-247201-3759-196 43.9091348055279 125000 -409.249345387279 0 0 70 (C1) n - 1
REM
REM in /home/nfs/bkarasulu/CARBON/AIRSS/Generating-Clusters/LCBOP/Only-C1/SD-CG/FIRE-HFTN
REM
REM
REM
REM
REM
REM ./C.cell (11c1c37f851c82e70ff6c80c92926a4b)
REM AIRSS Version 0.9.1 bugfix July 2018 build 013d7b7c2542+ Fri, 06 Jul 2018 19:26:36 +0100
REM compiler GCC version 9.2.1 20190827 (Red Hat 9.2.1-1)
REM options -cpp -mtune=generic -march=x86-64 -g -O0 -fpre-include=/usr/include/finclude/math-vector-fortran.h
REM seed -1342957219 533217142 1327858525 -172502518 -2070218591 1767055982 783784460 1248377504 563675396 -859322177 1983468191 -112810653 1233062958 -872507975 -1560357845 1975960566 -2000420230 485290361 12404195 1594896686 -312525231 108164607 2059503562 -2120924173 -1145889461 -924057869 740237748 -726978763 -513814559 -1439283130 -1100307681 -1835946563 1547980489
REM
CELL 1.54180   50.00000   50.00000   50.00000   90.00000   90.00000   90.00000
LATT -1
SFAC C  
C      1  0.4552180000000  0.4388400000000  0.5218230000000 1.0
C      1  0.5432410000000  0.4763090000000  0.5669870000000 1.0
C      1  0.4553220000000  0.5424260000000  0.4987450000000 1.0
C      1  0.4669480000000  0.4822530000000  0.4903820000000 1.0
C      1  0.5093270000000  0.4774850000000  0.5140450000000 1.0
C      1  0.4237810000000  0.5006910000000  0.4824600000000 1.0
C      1  0.4446500000000  0.4978220000000  0.5523030000000 1.0
C      1  0.5247280000000  0.5709100000000  0.5141010000000 1.0
C      1  0.5441290000000  0.5110180000000  0.4951130000000 1.0
C      1  0.5136490000000  0.4558550000000  0.5311340000000 1.0
C      1  0.4968940000000  0.6281930000000  0.4424060000000 1.0
C      1  0.4841710000000  0.4911800000000  0.5132020000000 1.0
C      1  0.5069500000000  0.3866270000000  0.5328800000000 1.0
C      1  0.4316200000000  0.4740020000000  0.5437980000000 1.0
C      1  0.4869780000000  0.5197360000000  0.5211460000000 1.0
C      1  0.4716950000000  0.4717090000000  0.4614860000000 1.0
C      1  0.5883380000000  0.5079820000000  0.4993230000000 1.0
C      1  0.5236030000000  0.4906990000000  0.4939630000000 1.0
C      1  0.5766490000000  0.4608020000000  0.5334910000000 1.0
C      1  0.5660670000000  0.4809010000000  0.5496380000000 1.0
C      1  0.5439630000000  0.5208920000000  0.5593060000000 1.0
C      1  0.4500060000000  0.5640360000000  0.5414350000000 1.0
C      1  0.5729370000000  0.5512820000000  0.5170810000000 1.0
C      1  0.4735010000000  0.5054710000000  0.4163070000000 1.0
C      1  0.5362640000000  0.5474670000000  0.5561590000000 1.0
C      1  0.5672600000000  0.5098600000000  0.5446140000000 1.0
C      1  0.5089040000000  0.4187970000000  0.4718890000000 1.0
C      1  0.4989480000000  0.4612420000000  0.4576890000000 1.0
C      1  0.5192010000000  0.3638180000000  0.5358310000000 1.0
C      1  0.5473370000000  0.4538610000000  0.4678670000000 1.0
C      1  0.4912650000000  0.6068430000000  0.4570480000000 1.0
C      1  0.4331180000000  0.4332450000000  0.4479750000000 1.0
C      1  0.4547470000000  0.5169840000000  0.4001960000000 1.0
C      1  0.5533630000000  0.5692310000000  0.5104530000000 1.0
C      1  0.5640650000000  0.4419890000000  0.4872690000000 1.0
C      1  0.4979550000000  0.4359000000000  0.5433440000000 1.0
C      1  0.5024460000000  0.6492000000000  0.4280010000000 1.0
C      1  0.4516150000000  0.4499900000000  0.4554550000000 1.0
C      1  0.4821890000000  0.5327200000000  0.4955700000000 1.0
C      1  0.4855120000000  0.5840670000000  0.4726660000000 1.0
C      1  0.4945150000000  0.4109320000000  0.5288740000000 1.0
C      1  0.5801850000000  0.5238250000000  0.5226050000000 1.0
C      1  0.5200640000000  0.4437100000000  0.4639430000000 1.0
C      1  0.4265900000000  0.5249380000000  0.4692250000000 1.0
C      1  0.4971620000000  0.4986790000000  0.5711840000000 1.0
C      1  0.5257660000000  0.4994780000000  0.5690920000000 1.0
C      1  0.5674870000000  0.4993830000000  0.4816950000000 1.0
C      1  0.5244890000000  0.5009860000000  0.4215910000000 1.0
C      1  0.4615690000000  0.5691380000000  0.4641680000000 1.0
C      1  0.5541120000000  0.4818790000000  0.4607710000000 1.0
C      1  0.5305700000000  0.5352940000000  0.4863580000000 1.0
C      1  0.5037420000000  0.5281840000000  0.4768080000000 1.0
C      1  0.4665280000000  0.4929900000000  0.4405880000000 1.0
C      1  0.4387410000000  0.4803950000000  0.4966820000000 1.0
C      1  0.5008890000000  0.5055470000000  0.4096690000000 1.0
C      1  0.4348610000000  0.5204160000000  0.5382300000000 1.0
C      1  0.5044710000000  0.5791890000000  0.4946150000000 1.0
C      1  0.5171940000000  0.5556640000000  0.5373130000000 1.0
C      1  0.5748480000000  0.4458800000000  0.5114230000000 1.0
C      1  0.4733860000000  0.5577430000000  0.5534790000000 1.0
C      1  0.5104240000000  0.5003960000000  0.4682740000000 1.0
C      1  0.4363790000000  0.4611000000000  0.5185800000000 1.0
C      1  0.4845110000000  0.4137430000000  0.4829890000000 1.0
C      1  0.4437110000000  0.5480880000000  0.4734120000000 1.0
C      1  0.4703530000000  0.4432710000000  0.5471890000000 1.0
C      1  0.4734920000000  0.4180140000000  0.5087630000000 1.0
C      1  0.5312490000000  0.4954160000000  0.4481000000000 1.0
C      1  0.4412290000000  0.5437960000000  0.5237580000000 1.0
C      1  0.4702290000000  0.4977510000000  0.5660840000000 1.0
C      1  0.4926980000000  0.5418420000000  0.5399570000000 1.0
END
