TITL C-247195-3186-1 3715.33940798489 125000 -897.254209786515 0 0 144 (C1) n - 1
REM
REM in /home/nfs/bkarasulu/CARBON/AIRSS/Generating-Clusters/LCBOP/Only-C1/SD-CG/FIRE-HFTN
REM
REM
REM
REM
REM
REM ./C.cell (11c1c37f851c82e70ff6c80c92926a4b)
REM AIRSS Version 0.9.1 bugfix July 2018 build 013d7b7c2542+ Fri, 06 Jul 2018 19:26:36 +0100
REM compiler GCC version 9.2.1 20190827 (Red Hat 9.2.1-1)
REM options -cpp -mtune=generic -march=x86-64 -g -O0 -fpre-include=/usr/include/finclude/math-vector-fortran.h
REM seed 729900741 1867769344 662985572 1179782510 -575046920 800273491 1399597247 -1012080720 1416447975 215964835 2138441627 -2009250369 1339667362 1316865236 -608675030 2011864531 85007131 -1498127187 826232600 -1810533787 -1776557731 -85557126 -1120212338 1062057265 1491639353 271397856 1471718379 -1512961728 2132251275 -507696345 -957036468 -1031345297 -2671802
REM
CELL 1.54180   50.00000   50.00000   50.00000   90.00000   90.00000   90.00000
LATT -1
SFAC C  
C      1  0.5206600000000  0.4557810000000  0.5145470000000 1.0
C      1  0.3582750000000  0.4748010000000  0.5264380000000 1.0
C      1  0.4562030000000  0.5818000000000  0.5289830000000 1.0
C      1  0.6786950000000  0.5728790000000  0.5762080000000 1.0
C      1  0.4616580000000  0.5761680000000  0.5589820000000 1.0
C      1  0.4524970000000  0.4375010000000  0.4280470000000 1.0
C      1  0.5078570000000  0.4532010000000  0.3812740000000 1.0
C      1  0.5110860000000  0.4037430000000  0.5791280000000 1.0
C      1  0.5998860000000  0.5719580000000  0.5700480000000 1.0
C      1  0.4873470000000  0.5088340000000  0.4753730000000 1.0
C      1  0.4926880000000  0.6068930000000  0.4286430000000 1.0
C      1  0.5413920000000  0.3866030000000  0.5138060000000 1.0
C      1  0.4065910000000  0.4918840000000  0.4040230000000 1.0
C      1  0.5339610000000  0.4535820000000  0.3764980000000 1.0
C      1  0.5345050000000  0.4687720000000  0.4921080000000 1.0
C      1  0.5154480000000  0.6208570000000  0.5113030000000 1.0
C      1  0.4480690000000  0.5519890000000  0.5696440000000 1.0
C      1  0.5320770000000  0.4939610000000  0.4481320000000 1.0
C      1  0.5059080000000  0.4540890000000  0.4552180000000 1.0
C      1  0.4432620000000  0.4513500000000  0.6099660000000 1.0
C      1  0.5380880000000  0.5571040000000  0.5113960000000 1.0
C      1  0.5127610000000  0.4070820000000  0.4470930000000 1.0
C      1  0.5204600000000  0.5244110000000  0.3865140000000 1.0
C      1  0.4146450000000  0.4661400000000  0.4049890000000 1.0
C      1  0.5308870000000  0.5500080000000  0.5841250000000 1.0
C      1  0.3098450000000  0.4605090000000  0.5118410000000 1.0
C      1  0.5709700000000  0.3967870000000  0.4770910000000 1.0
C      1  0.5137040000000  0.5052730000000  0.4041260000000 1.0
C      1  0.4405050000000  0.4561370000000  0.4089050000000 1.0
C      1  0.6912470000000  0.4379460000000  0.5148750000000 1.0
C      1  0.5232650000000  0.5337960000000  0.5012630000000 1.0
C      1  0.4441580000000  0.4369300000000  0.4557630000000 1.0
C      1  0.5030290000000  0.5519350000000  0.5783190000000 1.0
C      1  0.5195080000000  0.6337180000000  0.4882580000000 1.0
C      1  0.5449080000000  0.3900970000000  0.4856110000000 1.0
C      1  0.4413480000000  0.4179740000000  0.5756570000000 1.0
C      1  0.5689310000000  0.4163690000000  0.5421810000000 1.0
C      1  0.5212540000000  0.4795800000000  0.6064840000000 1.0
C      1  0.5514680000000  0.4908520000000  0.4993050000000 1.0
C      1  0.5022710000000  0.4314890000000  0.4382580000000 1.0
C      1  0.4916170000000  0.5035690000000  0.5809870000000 1.0
C      1  0.3834450000000  0.4833910000000  0.5349760000000 1.0
C      1  0.4810520000000  0.4352060000000  0.4195820000000 1.0
C      1  0.5153470000000  0.4544340000000  0.6176590000000 1.0
C      1  0.5112720000000  0.4822510000000  0.5782120000000 1.0
C      1  0.4911000000000  0.5437420000000  0.4447900000000 1.0
C      1  0.4283460000000  0.5962420000000  0.4612340000000 1.0
C      1  0.4364360000000  0.5381350000000  0.5225760000000 1.0
C      1  0.5390680000000  0.5261570000000  0.5993570000000 1.0
C      1  0.4610070000000  0.6141560000000  0.4923930000000 1.0
C      1  0.5737290000000  0.5689790000000  0.5671490000000 1.0
C      1  0.6053300000000  0.4370020000000  0.4682360000000 1.0
C      1  0.4524450000000  0.6099340000000  0.4657970000000 1.0
C      1  0.4790320000000  0.4843120000000  0.4848640000000 1.0
C      1  0.5171660000000  0.3911190000000  0.5562870000000 1.0
C      1  0.5554340000000  0.4391480000000  0.5449970000000 1.0
C      1  0.3957900000000  0.5050750000000  0.5222680000000 1.0
C      1  0.4982700000000  0.6027390000000  0.5238190000000 1.0
C      1  0.4100690000000  0.5491110000000  0.4482100000000 1.0
C      1  0.4646560000000  0.4080990000000  0.5880930000000 1.0
C      1  0.4505190000000  0.5333460000000  0.5468910000000 1.0
C      1  0.5400090000000  0.5449800000000  0.4504690000000 1.0
C      1  0.5167710000000  0.6341830000000  0.4616970000000 1.0
C      1  0.5639880000000  0.3931780000000  0.5296550000000 1.0
C      1  0.5539880000000  0.5688910000000  0.4909830000000 1.0
C      1  0.3961840000000  0.4702750000000  0.5562150000000 1.0
C      1  0.5199050000000  0.5088590000000  0.6150890000000 1.0
C      1  0.4917570000000  0.5844910000000  0.4103270000000 1.0
C      1  0.5821050000000  0.4549610000000  0.3965840000000 1.0
C      1  0.5586410000000  0.5891890000000  0.4460810000000 1.0
C      1  0.4739130000000  0.5584510000000  0.4620510000000 1.0
C      1  0.4541250000000  0.5484300000000  0.3987330000000 1.0
C      1  0.4771090000000  0.4758480000000  0.5120720000000 1.0
C      1  0.5598800000000  0.4547310000000  0.3820880000000 1.0
C      1  0.4099890000000  0.4750730000000  0.4647170000000 1.0
C      1  0.4299650000000  0.4416200000000  0.5870040000000 1.0
C      1  0.5429530000000  0.5177620000000  0.4606820000000 1.0
C      1  0.6668560000000  0.4425330000000  0.5068960000000 1.0
C      1  0.4929120000000  0.4377060000000  0.6133590000000 1.0
C      1  0.6262580000000  0.5730420000000  0.5724020000000 1.0
C      1  0.5282510000000  0.4692190000000  0.4635300000000 1.0
C      1  0.5469430000000  0.5624810000000  0.5630600000000 1.0
C      1  0.6002450000000  0.4717480000000  0.5018930000000 1.0
C      1  0.4704830000000  0.6034250000000  0.5166450000000 1.0
C      1  0.4928950000000  0.5272520000000  0.5662850000000 1.0
C      1  0.4762510000000  0.4299450000000  0.5000130000000 1.0
C      1  0.4676500000000  0.4484730000000  0.6209240000000 1.0
C      1  0.5143730000000  0.5666440000000  0.4107190000000 1.0
C      1  0.5053220000000  0.5780810000000  0.5394020000000 1.0
C      1  0.4946340000000  0.5309470000000  0.4924740000000 1.0
C      1  0.3339520000000  0.4674560000000  0.5189300000000 1.0
C      1  0.4617620000000  0.5322680000000  0.6426120000000 1.0
C      1  0.5590730000000  0.5111080000000  0.5853410000000 1.0
C      1  0.4912630000000  0.5138820000000  0.6088580000000 1.0
C      1  0.5343440000000  0.4570490000000  0.5399730000000 1.0
C      1  0.4684700000000  0.5294650000000  0.6162060000000 1.0
C      1  0.5549960000000  0.4938050000000  0.5648560000000 1.0
C      1  0.4621140000000  0.4707620000000  0.3951100000000 1.0
C      1  0.5544070000000  0.5668490000000  0.4626500000000 1.0
C      1  0.5246140000000  0.3929580000000  0.4664410000000 1.0
C      1  0.6526900000000  0.5731290000000  0.5743900000000 1.0
C      1  0.5317300000000  0.4783150000000  0.5587430000000 1.0
C      1  0.4469570000000  0.4024570000000  0.5267990000000 1.0
C      1  0.4134000000000  0.5241400000000  0.5165500000000 1.0
C      1  0.5168110000000  0.3859810000000  0.5283530000000 1.0
C      1  0.5174420000000  0.6179680000000  0.4385550000000 1.0
C      1  0.4596160000000  0.4987980000000  0.3923700000000 1.0
C      1  0.4791710000000  0.5317490000000  0.5427730000000 1.0
C      1  0.5914680000000  0.4131820000000  0.4731040000000 1.0
C      1  0.4091210000000  0.5010440000000  0.4584460000000 1.0
C      1  0.4917150000000  0.5529200000000  0.5287050000000 1.0
C      1  0.5096760000000  0.5010250000000  0.4315520000000 1.0
C      1  0.4910290000000  0.5767420000000  0.5669480000000 1.0
C      1  0.4523880000000  0.5422410000000  0.5960470000000 1.0
C      1  0.5222290000000  0.5512960000000  0.3884090000000 1.0
C      1  0.4448260000000  0.5217420000000  0.4010490000000 1.0
C      1  0.4850240000000  0.4532680000000  0.3969680000000 1.0
C      1  0.6420960000000  0.4472590000000  0.4987390000000 1.0
C      1  0.4902890000000  0.5152890000000  0.4475060000000 1.0
C      1  0.5981860000000  0.4526770000000  0.4175660000000 1.0
C      1  0.4353790000000  0.4083630000000  0.5500930000000 1.0
C      1  0.4706770000000  0.4052240000000  0.5121740000000 1.0
C      1  0.4817410000000  0.4618990000000  0.4677650000000 1.0
C      1  0.5427470000000  0.6067170000000  0.4333450000000 1.0
C      1  0.5338600000000  0.5683120000000  0.5377730000000 1.0
C      1  0.4100860000000  0.4561320000000  0.5738730000000 1.0
C      1  0.4651840000000  0.4393100000000  0.4748400000000 1.0
C      1  0.6161150000000  0.4520880000000  0.4898180000000 1.0
C      1  0.4145250000000  0.5744040000000  0.4549730000000 1.0
C      1  0.6064400000000  0.4468970000000  0.4421050000000 1.0
C      1  0.4725820000000  0.5516290000000  0.4899430000000 1.0
C      1  0.4678260000000  0.5715480000000  0.4015000000000 1.0
C      1  0.4591220000000  0.4827630000000  0.5310980000000 1.0
C      1  0.4130400000000  0.5224890000000  0.4404960000000 1.0
C      1  0.4202410000000  0.4504160000000  0.4625300000000 1.0
C      1  0.4197680000000  0.5151400000000  0.4137490000000 1.0
C      1  0.5417550000000  0.5153480000000  0.4892420000000 1.0
C      1  0.4517750000000  0.5590300000000  0.5098230000000 1.0
C      1  0.5165040000000  0.5530670000000  0.4356950000000 1.0
C      1  0.4697100000000  0.6134280000000  0.4438050000000 1.0
C      1  0.4919260000000  0.3873000000000  0.5155960000000 1.0
C      1  0.4911470000000  0.4155330000000  0.5950300000000 1.0
C      1  0.4921230000000  0.4509430000000  0.5134410000000 1.0
C      1  0.5780740000000  0.4858500000000  0.5058980000000 1.0
END
