TITL C-247201-3759-67 2.56063112085999e-07 125000 -374.867131946458 0 0 63 (C1) n - 1
REM
REM in /home/nfs/bkarasulu/CARBON/AIRSS/Generating-Clusters/LCBOP/Only-C1/SD-CG/FIRE-HFTN
REM
REM
REM
REM
REM
REM ./C.cell (11c1c37f851c82e70ff6c80c92926a4b)
REM AIRSS Version 0.9.1 bugfix July 2018 build 013d7b7c2542+ Fri, 06 Jul 2018 19:26:36 +0100
REM compiler GCC version 9.2.1 20190827 (Red Hat 9.2.1-1)
REM options -cpp -mtune=generic -march=x86-64 -g -O0 -fpre-include=/usr/include/finclude/math-vector-fortran.h
REM seed 1995412660 -747162880 1681412527 1142699841 1731156565 -1060953919 -1656058725 721330985 -57509518 60947121 2046577876 -2096096699 1680841724 330143204 2019387599 1952258070 1231126818 -1532669766 681949850 -1423661310 -1600727102 1645942476 1341141580 78683484 -3661579 -851172423 -821550373 780099674 765867585 142262829 896173780 349708119 1446266385
REM
CELL 1.54180   50.00000   50.00000   50.00000   90.00000   90.00000   90.00000
LATT -1
SFAC C  
C      1  0.5039170000000  0.4946840000000  0.4428380000000 1.0
C      1  0.4562220000000  0.5194510000000  0.4822470000000 1.0
C      1  0.5656020000000  0.5229590000000  0.5422580000000 1.0
C      1  0.5578000000000  0.4370660000000  0.4614530000000 1.0
C      1  0.5308230000000  0.4899890000000  0.4331310000000 1.0
C      1  0.4156340000000  0.4376540000000  0.5319380000000 1.0
C      1  0.4654470000000  0.5360780000000  0.5295080000000 1.0
C      1  0.4343380000000  0.4546580000000  0.5204380000000 1.0
C      1  0.5778250000000  0.5612040000000  0.5157890000000 1.0
C      1  0.5069680000000  0.4725620000000  0.5471920000000 1.0
C      1  0.4761300000000  0.4665250000000  0.5577560000000 1.0
C      1  0.4338530000000  0.4623890000000  0.4920250000000 1.0
C      1  0.5502310000000  0.4697180000000  0.5272620000000 1.0
C      1  0.4060520000000  0.5214150000000  0.5327210000000 1.0
C      1  0.4248480000000  0.5049420000000  0.5786280000000 1.0
C      1  0.4105270000000  0.5213040000000  0.5063870000000 1.0
C      1  0.4112750000000  0.5155130000000  0.5582170000000 1.0
C      1  0.5122720000000  0.5816580000000  0.4554450000000 1.0
C      1  0.5374720000000  0.4190800000000  0.4640180000000 1.0
C      1  0.5780500000000  0.5325390000000  0.4750720000000 1.0
C      1  0.5357030000000  0.4789290000000  0.4086160000000 1.0
C      1  0.5307730000000  0.5377850000000  0.4703560000000 1.0
C      1  0.5053270000000  0.4985340000000  0.4708960000000 1.0
C      1  0.3980060000000  0.4223570000000  0.5435280000000 1.0
C      1  0.4890500000000  0.5613980000000  0.5009210000000 1.0
C      1  0.4562180000000  0.4670380000000  0.5354090000000 1.0
C      1  0.5085010000000  0.4477860000000  0.5269670000000 1.0
C      1  0.5469470000000  0.4948790000000  0.5145390000000 1.0
C      1  0.5627110000000  0.4572470000000  0.4810800000000 1.0
C      1  0.5690850000000  0.4844730000000  0.4728760000000 1.0
C      1  0.5222140000000  0.5084480000000  0.5129320000000 1.0
C      1  0.4753960000000  0.5001040000000  0.4368590000000 1.0
C      1  0.5105350000000  0.5657400000000  0.5172680000000 1.0
C      1  0.5256460000000  0.4358540000000  0.5078830000000 1.0
C      1  0.4658170000000  0.4747940000000  0.5825620000000 1.0
C      1  0.5816420000000  0.5073330000000  0.4896290000000 1.0
C      1  0.4572910000000  0.4773540000000  0.4379180000000 1.0
C      1  0.5506830000000  0.4502830000000  0.5070990000000 1.0
C      1  0.5215540000000  0.4183990000000  0.4861230000000 1.0
C      1  0.5544160000000  0.5259770000000  0.4585120000000 1.0
C      1  0.4214250000000  0.4841130000000  0.4744080000000 1.0
C      1  0.4648720000000  0.5219940000000  0.4530390000000 1.0
C      1  0.4635660000000  0.4910280000000  0.5220660000000 1.0
C      1  0.5317060000000  0.5661920000000  0.4677760000000 1.0
C      1  0.5593500000000  0.5505200000000  0.5350630000000 1.0
C      1  0.5518820000000  0.5031710000000  0.5608240000000 1.0
C      1  0.4676090000000  0.4914730000000  0.4942560000000 1.0
C      1  0.5526380000000  0.4977200000000  0.4511320000000 1.0
C      1  0.5166380000000  0.5184920000000  0.4867550000000 1.0
C      1  0.4770890000000  0.5115870000000  0.5356220000000 1.0
C      1  0.4669040000000  0.5430260000000  0.5013960000000 1.0
C      1  0.4447950000000  0.4903360000000  0.5888370000000 1.0
C      1  0.5325200000000  0.5601610000000  0.5321200000000 1.0
C      1  0.4620500000000  0.4652450000000  0.4829960000000 1.0
C      1  0.5037370000000  0.5021490000000  0.5344080000000 1.0
C      1  0.5766090000000  0.5587620000000  0.4874570000000 1.0
C      1  0.5712310000000  0.5093460000000  0.5165590000000 1.0
C      1  0.5574810000000  0.5761490000000  0.4749710000000 1.0
C      1  0.4292170000000  0.4816160000000  0.4460170000000 1.0
C      1  0.4941640000000  0.5952860000000  0.4425770000000 1.0
C      1  0.4674890000000  0.4578360000000  0.4564310000000 1.0
C      1  0.5384980000000  0.4760900000000  0.5541120000000 1.0
C      1  0.4257300000000  0.5116070000000  0.4848850000000 1.0
END
