TITL C-247197-3123-316 0.0308598953084735 125000 -224.467357067302 0 0 38 (C1) n - 1
REM
REM in /home/nfs/bkarasulu/CARBON/AIRSS/Generating-Clusters/LCBOP/Only-C1/SD-CG/FIRE-HFTN
REM
REM
REM
REM
REM
REM ./C.cell (11c1c37f851c82e70ff6c80c92926a4b)
REM AIRSS Version 0.9.1 bugfix July 2018 build 013d7b7c2542+ Fri, 06 Jul 2018 19:26:36 +0100
REM compiler GCC version 9.2.1 20190827 (Red Hat 9.2.1-1)
REM options -cpp -mtune=generic -march=x86-64 -g -O0 -fpre-include=/usr/include/finclude/math-vector-fortran.h
REM seed 755851499 -1825395642 -2114925372 1512161992 858163782 -778389041 1020916210 630108956 -1413017466 628669107 -1418173865 1627914413 -1725697280 -2050870970 -338417530 666203576 -1004894370 1820828398 -1640451901 -980191049 -1848384332 -160014455 558173896 223996001 63992096 -144952226 1140526017 979722487 -199881293 -1092064643 -1350426741 -859328269 1012990903
REM
CELL 1.54180   50.00000   50.00000   50.00000   90.00000   90.00000   90.00000
LATT -1
SFAC C  
C      1  0.4133630000000  0.5379430000000  0.5451980000000 1.0
C      1  0.5239200000000  0.4509770000000  0.4616540000000 1.0
C      1  0.4576500000000  0.5169580000000  0.5407130000000 1.0
C      1  0.4929350000000  0.5041190000000  0.5056850000000 1.0
C      1  0.4592180000000  0.4725400000000  0.5221660000000 1.0
C      1  0.5199920000000  0.4770440000000  0.4513780000000 1.0
C      1  0.5310350000000  0.5173270000000  0.5378460000000 1.0
C      1  0.5363730000000  0.5233070000000  0.4915030000000 1.0
C      1  0.4719340000000  0.5303990000000  0.5608050000000 1.0
C      1  0.5150280000000  0.4784980000000  0.5738930000000 1.0
C      1  0.4718190000000  0.4981150000000  0.5237140000000 1.0
C      1  0.5807540000000  0.5047190000000  0.5540090000000 1.0
C      1  0.5395230000000  0.5513890000000  0.4939480000000 1.0
C      1  0.4984190000000  0.5275160000000  0.5697250000000 1.0
C      1  0.5564310000000  0.5087780000000  0.5455550000000 1.0
C      1  0.4276240000000  0.4904710000000  0.3690930000000 1.0
C      1  0.5504910000000  0.5025300000000  0.4782140000000 1.0
C      1  0.4874910000000  0.4996020000000  0.4783110000000 1.0
C      1  0.5424990000000  0.4948700000000  0.4518540000000 1.0
C      1  0.4179790000000  0.4900570000000  0.5365820000000 1.0
C      1  0.4439490000000  0.4900930000000  0.3899720000000 1.0
C      1  0.5338590000000  0.4427970000000  0.4853990000000 1.0
C      1  0.5322660000000  0.5674580000000  0.5147410000000 1.0
C      1  0.5596020000000  0.4813720000000  0.4952890000000 1.0
C      1  0.5053250000000  0.5024590000000  0.5814700000000 1.0
C      1  0.4602710000000  0.4897160000000  0.4108450000000 1.0
C      1  0.4328810000000  0.4690990000000  0.5278620000000 1.0
C      1  0.4766230000000  0.4893110000000  0.4316770000000 1.0
C      1  0.5550450000000  0.5035950000000  0.4292990000000 1.0
C      1  0.4288940000000  0.5159060000000  0.5411460000000 1.0
C      1  0.5183230000000  0.5383230000000  0.5525320000000 1.0
C      1  0.5461700000000  0.4583810000000  0.5056070000000 1.0
C      1  0.4115680000000  0.4908430000000  0.3485570000000 1.0
C      1  0.5223050000000  0.5633700000000  0.5398070000000 1.0
C      1  0.5385200000000  0.4560560000000  0.5325940000000 1.0
C      1  0.5265500000000  0.4624870000000  0.5556990000000 1.0
C      1  0.4940990000000  0.4887230000000  0.4532890000000 1.0
C      1  0.5192730000000  0.5128530000000  0.5123670000000 1.0
END
