TITL C-247201-3759-287 4.53265395276538e-07 125000 -450.59926348304 0 0 76 (C1) n - 1
REM
REM in /home/nfs/bkarasulu/CARBON/AIRSS/Generating-Clusters/LCBOP/Only-C1/SD-CG/FIRE-HFTN
REM
REM
REM
REM
REM
REM ./C.cell (11c1c37f851c82e70ff6c80c92926a4b)
REM AIRSS Version 0.9.1 bugfix July 2018 build 013d7b7c2542+ Fri, 06 Jul 2018 19:26:36 +0100
REM compiler GCC version 9.2.1 20190827 (Red Hat 9.2.1-1)
REM options -cpp -mtune=generic -march=x86-64 -g -O0 -fpre-include=/usr/include/finclude/math-vector-fortran.h
REM seed 1818097620 1611847925 -1510101607 -1175874405 521354003 1949861093 -418324720 906955090 -1478436396 -1271861507 -1091848031 -421503211 558957980 1968250941 -613932953 1723573374 1864504350 -1405184840 624646910 -853708936 25616213 -876391262 1611365949 -1754910706 -38438012 774397842 1045057929 -73964302 2022284421 1857255140 -1057959233 -341484915 831746719
REM
CELL 1.54180   50.00000   50.00000   50.00000   90.00000   90.00000   90.00000
LATT -1
SFAC C  
C      1  0.5487750000000  0.5023500000000  0.5166930000000 1.0
C      1  0.4581280000000  0.4648810000000  0.5544710000000 1.0
C      1  0.4457590000000  0.5703370000000  0.5141790000000 1.0
C      1  0.4570260000000  0.4457250000000  0.5322740000000 1.0
C      1  0.5134660000000  0.5016780000000  0.4572770000000 1.0
C      1  0.5640320000000  0.4502330000000  0.4870450000000 1.0
C      1  0.4731950000000  0.5643900000000  0.5223280000000 1.0
C      1  0.4915210000000  0.5012630000000  0.3912160000000 1.0
C      1  0.5204160000000  0.5013130000000  0.5236690000000 1.0
C      1  0.4544490000000  0.5020270000000  0.4224300000000 1.0
C      1  0.4258370000000  0.5698730000000  0.5331120000000 1.0
C      1  0.4857080000000  0.5037960000000  0.5786380000000 1.0
C      1  0.5347050000000  0.5464960000000  0.5448820000000 1.0
C      1  0.5193660000000  0.5276870000000  0.4480020000000 1.0
C      1  0.5274660000000  0.4790910000000  0.5819530000000 1.0
C      1  0.5663210000000  0.4761440000000  0.4750910000000 1.0
C      1  0.4741680000000  0.4964190000000  0.4868770000000 1.0
C      1  0.5143800000000  0.5050430000000  0.5770310000000 1.0
C      1  0.5128050000000  0.4340410000000  0.5595180000000 1.0
C      1  0.5448500000000  0.4426600000000  0.5079740000000 1.0
C      1  0.5191120000000  0.4280500000000  0.4966070000000 1.0
C      1  0.5357770000000  0.5230310000000  0.5639240000000 1.0
C      1  0.4864470000000  0.5433930000000  0.5076830000000 1.0
C      1  0.4765200000000  0.5876640000000  0.4604750000000 1.0
C      1  0.4801840000000  0.5598990000000  0.4575670000000 1.0
C      1  0.4551530000000  0.5965140000000  0.4746460000000 1.0
C      1  0.5042120000000  0.4490730000000  0.5373640000000 1.0
C      1  0.4620480000000  0.4458300000000  0.4825610000000 1.0
C      1  0.5062790000000  0.5219260000000  0.4002650000000 1.0
C      1  0.4325420000000  0.5365640000000  0.4486540000000 1.0
C      1  0.5040260000000  0.5353530000000  0.4248280000000 1.0
C      1  0.4440200000000  0.4518950000000  0.5065800000000 1.0
C      1  0.4446910000000  0.4879490000000  0.4476690000000 1.0
C      1  0.4349200000000  0.4789040000000  0.5084170000000 1.0
C      1  0.5312620000000  0.5546530000000  0.4932130000000 1.0
C      1  0.5727010000000  0.5425230000000  0.5057730000000 1.0
C      1  0.4962350000000  0.5194980000000  0.5232760000000 1.0
C      1  0.5495680000000  0.4763970000000  0.5630120000000 1.0
C      1  0.4089470000000  0.4880650000000  0.5093030000000 1.0
C      1  0.4709660000000  0.4872110000000  0.4042510000000 1.0
C      1  0.4269760000000  0.5586790000000  0.4664020000000 1.0
C      1  0.5144340000000  0.4343770000000  0.5863130000000 1.0
C      1  0.4387520000000  0.5763490000000  0.4864460000000 1.0
C      1  0.5287390000000  0.5462060000000  0.4675390000000 1.0
C      1  0.4729780000000  0.5044290000000  0.5327600000000 1.0
C      1  0.5143350000000  0.5659810000000  0.5508440000000 1.0
C      1  0.5815210000000  0.4301820000000  0.4781370000000 1.0
C      1  0.5785870000000  0.5262740000000  0.4844240000000 1.0
C      1  0.5735830000000  0.5021920000000  0.4727560000000 1.0
C      1  0.4718160000000  0.4593630000000  0.4091370000000 1.0
C      1  0.5980010000000  0.4849090000000  0.5117150000000 1.0
C      1  0.5513600000000  0.4565930000000  0.5390710000000 1.0
C      1  0.4556350000000  0.4601380000000  0.4561370000000 1.0
C      1  0.4785820000000  0.5463900000000  0.4321270000000 1.0
C      1  0.5592690000000  0.5046820000000  0.5639020000000 1.0
C      1  0.4378930000000  0.5120130000000  0.4635310000000 1.0
C      1  0.4880360000000  0.4321240000000  0.4955000000000 1.0
C      1  0.5820590000000  0.5091700000000  0.5487090000000 1.0
C      1  0.3850740000000  0.4984990000000  0.5097990000000 1.0
C      1  0.4657640000000  0.4469580000000  0.4324880000000 1.0
C      1  0.4725340000000  0.5149770000000  0.5998670000000 1.0
C      1  0.4824930000000  0.4359210000000  0.5245610000000 1.0
C      1  0.4709870000000  0.4908760000000  0.5575280000000 1.0
C      1  0.4986190000000  0.4876960000000  0.4763680000000 1.0
C      1  0.5982700000000  0.4112860000000  0.4701230000000 1.0
C      1  0.5774500000000  0.4991850000000  0.5226970000000 1.0
C      1  0.6147730000000  0.3926960000000  0.4622660000000 1.0
C      1  0.5201710000000  0.4577690000000  0.5984580000000 1.0
C      1  0.4591280000000  0.4935070000000  0.5109930000000 1.0
C      1  0.5114000000000  0.4704030000000  0.4934010000000 1.0
C      1  0.4627460000000  0.5188980000000  0.4758490000000 1.0
C      1  0.5469690000000  0.5496920000000  0.5172310000000 1.0
C      1  0.4896890000000  0.5741970000000  0.5430940000000 1.0
C      1  0.4778000000000  0.5421610000000  0.4802760000000 1.0
C      1  0.4532570000000  0.5324630000000  0.4268340000000 1.0
C      1  0.5123380000000  0.4729280000000  0.5219890000000 1.0
END
