TITL C-247200-3482-598 0.158765509045921 125000 -176.625859940281 0 0 31 (C1) n - 1
REM
REM in /home/nfs/bkarasulu/CARBON/AIRSS/Generating-Clusters/LCBOP/Only-C1/SD-CG/FIRE-HFTN
REM
REM
REM
REM
REM
REM ./C.cell (11c1c37f851c82e70ff6c80c92926a4b)
REM AIRSS Version 0.9.1 bugfix July 2018 build 013d7b7c2542+ Fri, 06 Jul 2018 19:26:36 +0100
REM compiler GCC version 9.2.1 20190827 (Red Hat 9.2.1-1)
REM options -cpp -mtune=generic -march=x86-64 -g -O0 -fpre-include=/usr/include/finclude/math-vector-fortran.h
REM seed 1405069390 944048894 -805370327 -528057410 1533480883 1422651878 -108535655 -1583101563 -2068293409 971384115 -1952158621 -1055523512 316085712 712047218 22274589 -1108557983 1286233891 -1144969382 -1087962095 -1422417392 1823378779 1756429202 1593821076 -1345326562 -334078044 -406672833 1308383266 1471474552 -62087884 -269910717 44510045 147529500 1911583303
REM
CELL 1.54180   50.00000   50.00000   50.00000   90.00000   90.00000   90.00000
LATT -1
SFAC C  
C      1  0.5051800000000  0.4142090000000  0.5051330000000 1.0
C      1  0.4251080000000  0.5210350000000  0.5274430000000 1.0
C      1  0.4835500000000  0.4022590000000  0.5147020000000 1.0
C      1  0.5910960000000  0.4976920000000  0.4585870000000 1.0
C      1  0.4243920000000  0.4684170000000  0.5325220000000 1.0
C      1  0.4230860000000  0.4948250000000  0.5306890000000 1.0
C      1  0.5232110000000  0.4316460000000  0.4965640000000 1.0
C      1  0.6250450000000  0.4752190000000  0.4231460000000 1.0
C      1  0.6172540000000  0.5383530000000  0.4630150000000 1.0
C      1  0.5265980000000  0.5288230000000  0.4928690000000 1.0
C      1  0.4223900000000  0.5936320000000  0.5204860000000 1.0
C      1  0.4503120000000  0.3713100000000  0.5304950000000 1.0
C      1  0.4773910000000  0.5475580000000  0.5064320000000 1.0
C      1  0.5706540000000  0.5389830000000  0.4745130000000 1.0
C      1  0.4410320000000  0.4184890000000  0.5302040000000 1.0
C      1  0.4301550000000  0.4425460000000  0.5324730000000 1.0
C      1  0.4090650000000  0.5690710000000  0.5277950000000 1.0
C      1  0.5449160000000  0.5737340000000  0.4952750000000 1.0
C      1  0.6086330000000  0.4860260000000  0.4402650000000 1.0
C      1  0.4482070000000  0.5885670000000  0.5120710000000 1.0
C      1  0.4538380000000  0.5602590000000  0.5132050000000 1.0
C      1  0.5708210000000  0.4824290000000  0.4703430000000 1.0
C      1  0.3837260000000  0.5660990000000  0.5369230000000 1.0
C      1  0.4290520000000  0.5481280000000  0.5231350000000 1.0
C      1  0.5369350000000  0.4531530000000  0.4894170000000 1.0
C      1  0.5009770000000  0.5375480000000  0.4997450000000 1.0
C      1  0.5465150000000  0.4786730000000  0.4836360000000 1.0
C      1  0.5320070000000  0.5014550000000  0.4909160000000 1.0
C      1  0.4581740000000  0.3969480000000  0.5252170000000 1.0
C      1  0.5473950000000  0.5475900000000  0.4875420000000 1.0
C      1  0.5932860000000  0.5253250000000  0.4652420000000 1.0
END
