TITL C-247198-3593-87 0.00468565008265184 125000 -753.545792371708 0 0 125 (C1) n - 1
REM
REM in /home/nfs/bkarasulu/CARBON/AIRSS/Generating-Clusters/LCBOP/Only-C1/SD-CG/FIRE-HFTN
REM
REM
REM
REM
REM
REM ./C.cell (11c1c37f851c82e70ff6c80c92926a4b)
REM AIRSS Version 0.9.1 bugfix July 2018 build 013d7b7c2542+ Fri, 06 Jul 2018 19:26:36 +0100
REM compiler GCC version 9.2.1 20190827 (Red Hat 9.2.1-1)
REM options -cpp -mtune=generic -march=x86-64 -g -O0 -fpre-include=/usr/include/finclude/math-vector-fortran.h
REM seed -667527339 -1175139918 -1637267938 813045877 -1971988228 180795125 -1249187932 1925617194 557355757 872948100 589744690 1009338809 1490417028 1266983060 -551191725 -1384976774 -2147279614 1635806857 2137576139 1055446331 -1390397080 -1745336331 1219225118 737356859 2070005341 1311075391 -1219541146 114900985 -1015057637 314836898 -1964206754 453657561 -1483209683
REM
CELL 1.54180   50.00000   50.00000   50.00000   90.00000   90.00000   90.00000
LATT -1
SFAC C  
C      1  0.5466420000000  0.4021440000000  0.4731380000000 1.0
C      1  0.6106240000000  0.4886870000000  0.5223260000000 1.0
C      1  0.4565850000000  0.4162070000000  0.4585300000000 1.0
C      1  0.5719330000000  0.4292170000000  0.5056010000000 1.0
C      1  0.5185540000000  0.5756040000000  0.4271390000000 1.0
C      1  0.5544600000000  0.5731070000000  0.4639330000000 1.0
C      1  0.4393770000000  0.4342720000000  0.5055130000000 1.0
C      1  0.4178720000000  0.4917960000000  0.5311520000000 1.0
C      1  0.4915250000000  0.4293330000000  0.5641270000000 1.0
C      1  0.5182150000000  0.5151620000000  0.4687260000000 1.0
C      1  0.5138960000000  0.6015370000000  0.4659230000000 1.0
C      1  0.5657870000000  0.4777920000000  0.4316250000000 1.0
C      1  0.5641010000000  0.4051750000000  0.4934420000000 1.0
C      1  0.3848680000000  0.5681010000000  0.4764670000000 1.0
C      1  0.4372650000000  0.4558360000000  0.4348520000000 1.0
C      1  0.4514450000000  0.5035170000000  0.4220800000000 1.0
C      1  0.6025980000000  0.5325670000000  0.4926340000000 1.0
C      1  0.3889740000000  0.5664920000000  0.4488290000000 1.0
C      1  0.4342460000000  0.4847800000000  0.4385610000000 1.0
C      1  0.5072270000000  0.5724520000000  0.5174460000000 1.0
C      1  0.5563140000000  0.5681470000000  0.4928140000000 1.0
C      1  0.5506950000000  0.4616270000000  0.5864860000000 1.0
C      1  0.4818460000000  0.4568180000000  0.4384690000000 1.0
C      1  0.5573560000000  0.5404620000000  0.4994800000000 1.0
C      1  0.5317110000000  0.5855680000000  0.4505390000000 1.0
C      1  0.4357960000000  0.4369910000000  0.4571440000000 1.0
C      1  0.4727930000000  0.4964720000000  0.5871990000000 1.0
C      1  0.4991340000000  0.4623120000000  0.5257380000000 1.0
C      1  0.6108150000000  0.4879570000000  0.4923940000000 1.0
C      1  0.5374210000000  0.4380390000000  0.5766670000000 1.0
C      1  0.5782740000000  0.5213350000000  0.5076070000000 1.0
C      1  0.5868740000000  0.5356580000000  0.4419460000000 1.0
C      1  0.5468040000000  0.4770240000000  0.4127350000000 1.0
C      1  0.5134740000000  0.6074440000000  0.5819990000000 1.0
C      1  0.5125300000000  0.4011620000000  0.5125910000000 1.0
C      1  0.4365430000000  0.5141750000000  0.4771960000000 1.0
C      1  0.4283650000000  0.5064760000000  0.5533080000000 1.0
C      1  0.5030600000000  0.5532770000000  0.4189200000000 1.0
C      1  0.4538540000000  0.4098650000000  0.5030030000000 1.0
C      1  0.5797000000000  0.4490470000000  0.4872790000000 1.0
C      1  0.6149740000000  0.4633330000000  0.5354870000000 1.0
C      1  0.5980080000000  0.5111970000000  0.4511400000000 1.0
C      1  0.4262790000000  0.5457660000000  0.4203360000000 1.0
C      1  0.4740650000000  0.4662950000000  0.5127460000000 1.0
C      1  0.5255220000000  0.5174370000000  0.4419150000000 1.0
C      1  0.5460930000000  0.4248950000000  0.5496530000000 1.0
C      1  0.4433760000000  0.4526380000000  0.5495290000000 1.0
C      1  0.5218730000000  0.4149650000000  0.4690150000000 1.0
C      1  0.5093470000000  0.4365530000000  0.5850580000000 1.0
C      1  0.5608720000000  0.5427900000000  0.5583290000000 1.0
C      1  0.4709220000000  0.4119180000000  0.5677180000000 1.0
C      1  0.5613760000000  0.5667890000000  0.5429150000000 1.0
C      1  0.4791320000000  0.4730090000000  0.6015160000000 1.0
C      1  0.5020160000000  0.4375730000000  0.5392510000000 1.0
C      1  0.4702940000000  0.4311040000000  0.4004130000000 1.0
C      1  0.5004720000000  0.5640650000000  0.4915710000000 1.0
C      1  0.4514330000000  0.4524940000000  0.5235010000000 1.0
C      1  0.5053140000000  0.4396210000000  0.4317350000000 1.0
C      1  0.5748720000000  0.5012300000000  0.5756780000000 1.0
C      1  0.4041590000000  0.5557370000000  0.4934030000000 1.0
C      1  0.4174180000000  0.5321060000000  0.5570220000000 1.0
C      1  0.4969210000000  0.4530260000000  0.6042270000000 1.0
C      1  0.4920610000000  0.5859320000000  0.4754420000000 1.0
C      1  0.4424540000000  0.6027800000000  0.4644800000000 1.0
C      1  0.5520030000000  0.5098150000000  0.5930870000000 1.0
C      1  0.5726270000000  0.5577730000000  0.4479150000000 1.0
C      1  0.5088180000000  0.5897630000000  0.5634300000000 1.0
C      1  0.4933390000000  0.5327670000000  0.6132330000000 1.0
C      1  0.4975520000000  0.4252570000000  0.4083750000000 1.0
C      1  0.5193900000000  0.4830110000000  0.5268960000000 1.0
C      1  0.5116070000000  0.5238810000000  0.5672520000000 1.0
C      1  0.4724560000000  0.4071110000000  0.4812200000000 1.0
C      1  0.4749660000000  0.5483320000000  0.4196990000000 1.0
C      1  0.4260490000000  0.4458860000000  0.4826390000000 1.0
C      1  0.5657370000000  0.4658790000000  0.5413760000000 1.0
C      1  0.5233410000000  0.4808180000000  0.4002850000000 1.0
C      1  0.5048200000000  0.5694700000000  0.5449460000000 1.0
C      1  0.5931550000000  0.5114150000000  0.5324400000000 1.0
C      1  0.5688120000000  0.4745100000000  0.5678530000000 1.0
C      1  0.4497710000000  0.4988560000000  0.5706280000000 1.0
C      1  0.4509310000000  0.5326410000000  0.4217940000000 1.0
C      1  0.3420520000000  0.5933540000000  0.4973860000000 1.0
C      1  0.4074260000000  0.5567960000000  0.5484230000000 1.0
C      1  0.5399380000000  0.5312890000000  0.5768240000000 1.0
C      1  0.4029160000000  0.4816550000000  0.5090010000000 1.0
C      1  0.4150060000000  0.4723580000000  0.4844100000000 1.0
C      1  0.5599490000000  0.5802210000000  0.5188830000000 1.0
C      1  0.4655370000000  0.5921010000000  0.4701390000000 1.0
C      1  0.4008250000000  0.5763610000000  0.5662940000000 1.0
C      1  0.4843560000000  0.4692760000000  0.4645360000000 1.0
C      1  0.4959980000000  0.5437850000000  0.5516000000000 1.0
C      1  0.5200530000000  0.4401030000000  0.4562410000000 1.0
C      1  0.5069160000000  0.5380490000000  0.4816530000000 1.0
C      1  0.4973880000000  0.4871730000000  0.3976010000000 1.0
C      1  0.5174140000000  0.6280080000000  0.4709990000000 1.0
C      1  0.4754030000000  0.5334030000000  0.5356090000000 1.0
C      1  0.5132170000000  0.4654980000000  0.4694350000000 1.0
C      1  0.5819410000000  0.4869640000000  0.4525930000000 1.0
C      1  0.3755280000000  0.4808130000000  0.5110450000000 1.0
C      1  0.5714520000000  0.4369870000000  0.5349020000000 1.0
C      1  0.4044650000000  0.5607710000000  0.5208740000000 1.0
C      1  0.4604680000000  0.4495580000000  0.4200640000000 1.0
C      1  0.4674010000000  0.5224740000000  0.5129120000000 1.0
C      1  0.5232930000000  0.4894930000000  0.4800420000000 1.0
C      1  0.4953780000000  0.5481140000000  0.6341920000000 1.0
C      1  0.5420840000000  0.4843240000000  0.6029780000000 1.0
C      1  0.4923680000000  0.5172910000000  0.5898720000000 1.0
C      1  0.5008870000000  0.4058620000000  0.4865660000000 1.0
C      1  0.3625960000000  0.5811890000000  0.4869360000000 1.0
C      1  0.6022330000000  0.4391520000000  0.5403330000000 1.0
C      1  0.4724460000000  0.4933280000000  0.4054330000000 1.0
C      1  0.5186550000000  0.5299480000000  0.4194700000000 1.0
C      1  0.5369820000000  0.4885230000000  0.5044790000000 1.0
C      1  0.5829370000000  0.4773490000000  0.4818140000000 1.0
C      1  0.6139060000000  0.5125830000000  0.4755410000000 1.0
C      1  0.5227930000000  0.4191770000000  0.5319410000000 1.0
C      1  0.4227100000000  0.5377870000000  0.4824080000000 1.0
C      1  0.4242700000000  0.4918660000000  0.4647550000000 1.0
C      1  0.4715780000000  0.4807180000000  0.4877580000000 1.0
C      1  0.5646200000000  0.4944910000000  0.4996150000000 1.0
C      1  0.4043730000000  0.5580050000000  0.4289180000000 1.0
C      1  0.4604170000000  0.5070560000000  0.4907670000000 1.0
C      1  0.5812380000000  0.5210630000000  0.5563130000000 1.0
C      1  0.5172870000000  0.5003950000000  0.5488270000000 1.0
C      1  0.4571180000000  0.4212220000000  0.3789170000000 1.0
END
