TITL C-247197-3123-564 0.204472974809696 125000 -629.356311558685 0 0 105 (C1) n - 1
REM
REM in /home/nfs/bkarasulu/CARBON/AIRSS/Generating-Clusters/LCBOP/Only-C1/SD-CG/FIRE-HFTN
REM
REM
REM
REM
REM
REM ./C.cell (11c1c37f851c82e70ff6c80c92926a4b)
REM AIRSS Version 0.9.1 bugfix July 2018 build 013d7b7c2542+ Fri, 06 Jul 2018 19:26:36 +0100
REM compiler GCC version 9.2.1 20190827 (Red Hat 9.2.1-1)
REM options -cpp -mtune=generic -march=x86-64 -g -O0 -fpre-include=/usr/include/finclude/math-vector-fortran.h
REM seed 226363081 1492381068 -317974051 -1912635464 1285385890 -1373216779 -700815628 -453215075 -650016796 496350007 -1027888722 -1339282646 760186923 767486614 2127989995 622793457 1546723885 -944940240 -1646484806 523729185 -352671528 352347387 -1307903298 -1681636731 1957606860 425020305 -752938476 1572079176 956768159 286027522 626203173 -1579411344 -1502069062
REM
CELL 1.54180   50.00000   50.00000   50.00000   90.00000   90.00000   90.00000
LATT -1
SFAC C  
C      1  0.5332720000000  0.5026370000000  0.4748580000000 1.0
C      1  0.3871570000000  0.5335640000000  0.4453140000000 1.0
C      1  0.4570850000000  0.5772430000000  0.5157610000000 1.0
C      1  0.5229390000000  0.5583040000000  0.4174000000000 1.0
C      1  0.4898470000000  0.4211210000000  0.4951560000000 1.0
C      1  0.5630450000000  0.4113250000000  0.4547440000000 1.0
C      1  0.4203880000000  0.4804950000000  0.4828810000000 1.0
C      1  0.4894970000000  0.5140970000000  0.4903750000000 1.0
C      1  0.5109490000000  0.4966780000000  0.5504800000000 1.0
C      1  0.4560930000000  0.5431650000000  0.4304470000000 1.0
C      1  0.4641210000000  0.5730980000000  0.4675380000000 1.0
C      1  0.4731660000000  0.5629860000000  0.4420160000000 1.0
C      1  0.5075610000000  0.5363810000000  0.4536320000000 1.0
C      1  0.5504890000000  0.5220360000000  0.5629230000000 1.0
C      1  0.4683820000000  0.4323810000000  0.4792180000000 1.0
C      1  0.4999540000000  0.5030010000000  0.5763470000000 1.0
C      1  0.5645040000000  0.5347430000000  0.4352520000000 1.0
C      1  0.4628950000000  0.4789710000000  0.5094760000000 1.0
C      1  0.5661450000000  0.4238700000000  0.5151240000000 1.0
C      1  0.5645390000000  0.5457130000000  0.5561720000000 1.0
C      1  0.4789330000000  0.4671740000000  0.5300920000000 1.0
C      1  0.5263520000000  0.4431690000000  0.4735940000000 1.0
C      1  0.5453570000000  0.4195870000000  0.5329960000000 1.0
C      1  0.5455450000000  0.5085660000000  0.5880850000000 1.0
C      1  0.3522370000000  0.4649480000000  0.4987460000000 1.0
C      1  0.5212770000000  0.4938140000000  0.5940340000000 1.0
C      1  0.5051380000000  0.4755340000000  0.5335550000000 1.0
C      1  0.5236850000000  0.5296180000000  0.5206920000000 1.0
C      1  0.5211120000000  0.4215150000000  0.5464510000000 1.0
C      1  0.4593800000000  0.5226340000000  0.5251790000000 1.0
C      1  0.5168950000000  0.5163930000000  0.4963330000000 1.0
C      1  0.6058320000000  0.4938630000000  0.5475490000000 1.0
C      1  0.4314640000000  0.4705340000000  0.5551820000000 1.0
C      1  0.5009800000000  0.4752830000000  0.4227090000000 1.0
C      1  0.5632900000000  0.5656370000000  0.5378370000000 1.0
C      1  0.4313570000000  0.5205580000000  0.5303980000000 1.0
C      1  0.5733460000000  0.4778270000000  0.5075620000000 1.0
C      1  0.4369220000000  0.4768120000000  0.5828820000000 1.0
C      1  0.4506690000000  0.5168610000000  0.4305270000000 1.0
C      1  0.4360680000000  0.4305920000000  0.5208460000000 1.0
C      1  0.3948060000000  0.4899630000000  0.4769030000000 1.0
C      1  0.4962950000000  0.5591190000000  0.5938940000000 1.0
C      1  0.5455930000000  0.4719790000000  0.5067400000000 1.0
C      1  0.5183210000000  0.4524130000000  0.4262590000000 1.0
C      1  0.4233670000000  0.4944840000000  0.5402700000000 1.0
C      1  0.4532870000000  0.4993090000000  0.5878020000000 1.0
C      1  0.6210110000000  0.5012780000000  0.5679710000000 1.0
C      1  0.5800340000000  0.4799260000000  0.4532590000000 1.0
C      1  0.5461600000000  0.4538920000000  0.4221300000000 1.0
C      1  0.4570690000000  0.5772470000000  0.5444580000000 1.0
C      1  0.4752910000000  0.4705660000000  0.4370890000000 1.0
C      1  0.5183380000000  0.4659590000000  0.5989390000000 1.0
C      1  0.5689650000000  0.4636200000000  0.4327650000000 1.0
C      1  0.5011550000000  0.5580390000000  0.4365970000000 1.0
C      1  0.5154350000000  0.4993460000000  0.4247740000000 1.0
C      1  0.4981340000000  0.4340710000000  0.5606030000000 1.0
C      1  0.4792660000000  0.5401080000000  0.5333750000000 1.0
C      1  0.5405840000000  0.4918910000000  0.3561590000000 1.0
C      1  0.5730980000000  0.5286270000000  0.4961700000000 1.0
C      1  0.5322740000000  0.5135800000000  0.5424100000000 1.0
C      1  0.3914800000000  0.5122270000000  0.4603990000000 1.0
C      1  0.5735620000000  0.5097520000000  0.4507860000000 1.0
C      1  0.5605740000000  0.5148910000000  0.4763280000000 1.0
C      1  0.6351220000000  0.5091840000000  0.5884150000000 1.0
C      1  0.5075600000000  0.4413760000000  0.4504760000000 1.0
C      1  0.4788850000000  0.4469780000000  0.4552830000000 1.0
C      1  0.5057330000000  0.5493540000000  0.5317130000000 1.0
C      1  0.5317710000000  0.5120410000000  0.4052190000000 1.0
C      1  0.5362780000000  0.5023300000000  0.3796440000000 1.0
C      1  0.5111350000000  0.4400730000000  0.5004570000000 1.0
C      1  0.5067180000000  0.5834350000000  0.4937200000000 1.0
C      1  0.4730460000000  0.4450340000000  0.5477390000000 1.0
C      1  0.5499000000000  0.5736280000000  0.4691750000000 1.0
C      1  0.4190630000000  0.5435400000000  0.5182920000000 1.0
C      1  0.5179930000000  0.5106740000000  0.4506760000000 1.0
C      1  0.4366610000000  0.5670680000000  0.4756730000000 1.0
C      1  0.5133360000000  0.5717780000000  0.5771010000000 1.0
C      1  0.4754230000000  0.5161210000000  0.5831980000000 1.0
C      1  0.5252170000000  0.3934010000000  0.4793850000000 1.0
C      1  0.4447980000000  0.4392180000000  0.4943260000000 1.0
C      1  0.3851030000000  0.5771200000000  0.4159890000000 1.0
C      1  0.3853200000000  0.5553820000000  0.4303770000000 1.0
C      1  0.4780460000000  0.5801760000000  0.4932860000000 1.0
C      1  0.5429880000000  0.5365680000000  0.4149950000000 1.0
C      1  0.5141580000000  0.5688450000000  0.5503130000000 1.0
C      1  0.4419410000000  0.4674800000000  0.4944430000000 1.0
C      1  0.4572930000000  0.5619840000000  0.5671460000000 1.0
C      1  0.5003150000000  0.3952420000000  0.4902630000000 1.0
C      1  0.4735120000000  0.5451410000000  0.5840550000000 1.0
C      1  0.5643330000000  0.5588370000000  0.4516970000000 1.0
C      1  0.5840980000000  0.4634590000000  0.4843280000000 1.0
C      1  0.5409660000000  0.4155730000000  0.4701430000000 1.0
C      1  0.4561750000000  0.4910150000000  0.4350410000000 1.0
C      1  0.4679970000000  0.5056620000000  0.5048980000000 1.0
C      1  0.5888020000000  0.4877930000000  0.5281890000000 1.0
C      1  0.5354900000000  0.5795550000000  0.4931110000000 1.0
C      1  0.3724440000000  0.4771660000000  0.4877190000000 1.0
C      1  0.4436530000000  0.4446070000000  0.5452980000000 1.0
C      1  0.4265540000000  0.4617560000000  0.6031730000000 1.0
C      1  0.5228320000000  0.4600530000000  0.5186240000000 1.0
C      1  0.5362940000000  0.4727090000000  0.4783900000000 1.0
C      1  0.5813660000000  0.4356280000000  0.4946800000000 1.0
C      1  0.5058820000000  0.4456980000000  0.5858290000000 1.0
C      1  0.5511320000000  0.5779090000000  0.5170500000000 1.0
C      1  0.4327010000000  0.5643930000000  0.5040210000000 1.0
END
