TITL C-247195-3186-419 -144.218942153248 125000 -327.295696064788 0 0 55 (C1) n - 1
REM
REM in /home/nfs/bkarasulu/CARBON/AIRSS/Generating-Clusters/LCBOP/Only-C1/SD-CG/FIRE-HFTN
REM
REM
REM
REM
REM
REM ./C.cell (11c1c37f851c82e70ff6c80c92926a4b)
REM AIRSS Version 0.9.1 bugfix July 2018 build 013d7b7c2542+ Fri, 06 Jul 2018 19:26:36 +0100
REM compiler GCC version 9.2.1 20190827 (Red Hat 9.2.1-1)
REM options -cpp -mtune=generic -march=x86-64 -g -O0 -fpre-include=/usr/include/finclude/math-vector-fortran.h
REM seed 810102023 -197078671 -832907966 1605197242 -425434469 -792531733 360208598 -1436610304 -984034000 -643185494 1706987311 237353860 -2079174166 489772743 336035209 -52643416 -1740758922 -257967855 -1580515517 -27949897 -934048751 -1773905275 -1776396355 249779611 1865892057 1987551569 -2004141351 429141394 391856993 -2117611158 -889746577 1846063594 301611359
REM
CELL 1.54180   50.00000   50.00000   50.00000   90.00000   90.00000   90.00000
LATT -1
SFAC C  
C      1  0.4711300000000  0.4549920000000  0.4792630000000 1.0
C      1  0.4805280000000  0.4407590000000  0.5021910000000 1.0
C      1  0.5065380000000  0.4539680000000  0.4456530000000 1.0
C      1  0.5659860000000  0.5342670000000  0.5103910000000 1.0
C      1  0.4631960000000  0.4570960000000  0.5545170000000 1.0
C      1  0.5309190000000  0.5258920000000  0.5449950000000 1.0
C      1  0.4670760000000  0.5544150000000  0.4779470000000 1.0
C      1  0.4719180000000  0.5715690000000  0.5247500000000 1.0
C      1  0.4963670000000  0.4317790000000  0.5243370000000 1.0
C      1  0.5250310000000  0.4231410000000  0.5235770000000 1.0
C      1  0.5399230000000  0.5343700000000  0.4677350000000 1.0
C      1  0.5315800000000  0.4604630000000  0.5461610000000 1.0
C      1  0.5192170000000  0.4818470000000  0.5024590000000 1.0
C      1  0.5266570000000  0.5607750000000  0.5044560000000 1.0
C      1  0.5204310000000  0.5256510000000  0.4247610000000 1.0
C      1  0.5263490000000  0.4871520000000  0.4750620000000 1.0
C      1  0.4150740000000  0.5050280000000  0.5258100000000 1.0
C      1  0.4676850000000  0.4245800000000  0.4403960000000 1.0
C      1  0.4529890000000  0.5037630000000  0.4953110000000 1.0
C      1  0.4793440000000  0.5718240000000  0.4975790000000 1.0
C      1  0.4428970000000  0.5055760000000  0.5223870000000 1.0
C      1  0.5464090000000  0.4386310000000  0.5363480000000 1.0
C      1  0.5229800000000  0.4766140000000  0.4481280000000 1.0
C      1  0.4817060000000  0.4440540000000  0.4545310000000 1.0
C      1  0.5082410000000  0.4617860000000  0.5606300000000 1.0
C      1  0.4971960000000  0.4877910000000  0.5669610000000 1.0
C      1  0.4591900000000  0.5081000000000  0.5462540000000 1.0
C      1  0.5489750000000  0.5475520000000  0.4913170000000 1.0
C      1  0.5354980000000  0.4789490000000  0.5246080000000 1.0
C      1  0.4734880000000  0.5558510000000  0.5465960000000 1.0
C      1  0.5999640000000  0.4505250000000  0.5261600000000 1.0
C      1  0.5408390000000  0.5396280000000  0.4398000000000 1.0
C      1  0.5763290000000  0.4620710000000  0.5286820000000 1.0
C      1  0.5170690000000  0.5420020000000  0.5240140000000 1.0
C      1  0.4788700000000  0.5291410000000  0.5540470000000 1.0
C      1  0.4907370000000  0.5173270000000  0.4701320000000 1.0
C      1  0.5072640000000  0.5763680000000  0.4601550000000 1.0
C      1  0.4793730000000  0.5128180000000  0.4431750000000 1.0
C      1  0.4877750000000  0.5592570000000  0.4481130000000 1.0
C      1  0.4924660000000  0.5353740000000  0.4301410000000 1.0
C      1  0.5578590000000  0.5169590000000  0.5324440000000 1.0
C      1  0.4679350000000  0.4846760000000  0.5603240000000 1.0
C      1  0.4966510000000  0.4968830000000  0.5104940000000 1.0
C      1  0.4879820000000  0.4433950000000  0.5495990000000 1.0
C      1  0.4572320000000  0.4809240000000  0.4759810000000 1.0
C      1  0.5624900000000  0.4881080000000  0.5278170000000 1.0
C      1  0.5189630000000  0.5151650000000  0.4728240000000 1.0
C      1  0.5062590000000  0.5154750000000  0.5608650000000 1.0
C      1  0.4671270000000  0.5268370000000  0.4844650000000 1.0
C      1  0.5241130000000  0.4964530000000  0.4266400000000 1.0
C      1  0.4541450000000  0.4065730000000  0.4272970000000 1.0
C      1  0.5073390000000  0.5759800000000  0.4893930000000 1.0
C      1  0.4600980000000  0.4920670000000  0.4483020000000 1.0
C      1  0.3892300000000  0.5042730000000  0.5290660000000 1.0
C      1  0.4973680000000  0.5234840000000  0.5149580000000 1.0
END
