TITL C-247196-3112-235 -1.9020755775485e-07 125000 -312.260270740656 0 0 52 (C1) n - 1
REM
REM in /home/nfs/bkarasulu/CARBON/AIRSS/Generating-Clusters/LCBOP/Only-C1/SD-CG/FIRE-HFTN
REM
REM
REM
REM
REM
REM ./C.cell (11c1c37f851c82e70ff6c80c92926a4b)
REM AIRSS Version 0.9.1 bugfix July 2018 build 013d7b7c2542+ Fri, 06 Jul 2018 19:26:36 +0100
REM compiler GCC version 9.2.1 20190827 (Red Hat 9.2.1-1)
REM options -cpp -mtune=generic -march=x86-64 -g -O0 -fpre-include=/usr/include/finclude/math-vector-fortran.h
REM seed -1928465363 966418581 -1717697588 244417366 -1565767452 -1504462593 -450548944 -1443978103 1215925426 465374270 -620214771 916345816 843078689 297373771 -539702718 -459163217 1048347238 652908974 1372426740 -237625153 971291081 1579181620 -305630914 -437597468 1121034665 1309817884 -1426352979 -1636688062 -1326722589 -1760954351 -508011276 2102315182 16098714
REM
CELL 1.54180   50.00000   50.00000   50.00000   90.00000   90.00000   90.00000
LATT -1
SFAC C  
C      1  0.5071940000000  0.4872730000000  0.4351410000000 1.0
C      1  0.4399630000000  0.5238380000000  0.4443090000000 1.0
C      1  0.4823520000000  0.5002080000000  0.5325150000000 1.0
C      1  0.4957180000000  0.4648100000000  0.4979340000000 1.0
C      1  0.4960610000000  0.4826390000000  0.5175650000000 1.0
C      1  0.4846910000000  0.4479480000000  0.5518360000000 1.0
C      1  0.5055170000000  0.5720130000000  0.4819920000000 1.0
C      1  0.5453010000000  0.4451220000000  0.5038020000000 1.0
C      1  0.5218140000000  0.5353410000000  0.5662560000000 1.0
C      1  0.4431350000000  0.4911140000000  0.5090630000000 1.0
C      1  0.4524150000000  0.5043320000000  0.4606060000000 1.0
C      1  0.5215960000000  0.4242170000000  0.5722860000000 1.0
C      1  0.4128160000000  0.5744130000000  0.4003890000000 1.0
C      1  0.4432380000000  0.4677210000000  0.5261100000000 1.0
C      1  0.4894260000000  0.5732910000000  0.4602540000000 1.0
C      1  0.4840630000000  0.5626480000000  0.5500970000000 1.0
C      1  0.4686060000000  0.5648670000000  0.4452840000000 1.0
C      1  0.5381020000000  0.4902730000000  0.5622520000000 1.0
C      1  0.4794940000000  0.4300370000000  0.4700730000000 1.0
C      1  0.4602830000000  0.4533490000000  0.5415850000000 1.0
C      1  0.5520150000000  0.4992500000000  0.4284410000000 1.0
C      1  0.4541110000000  0.4381220000000  0.4663770000000 1.0
C      1  0.4839170000000  0.5565140000000  0.5227990000000 1.0
C      1  0.5086950000000  0.5593530000000  0.5073450000000 1.0
C      1  0.4794190000000  0.5123460000000  0.4665280000000 1.0
C      1  0.5126410000000  0.4462140000000  0.5574260000000 1.0
C      1  0.5300110000000  0.4854900000000  0.4206170000000 1.0
C      1  0.5242620000000  0.5093490000000  0.5788190000000 1.0
C      1  0.5353980000000  0.5156780000000  0.4975040000000 1.0
C      1  0.4385850000000  0.4594490000000  0.4713690000000 1.0
C      1  0.5011950000000  0.4410620000000  0.4839190000000 1.0
C      1  0.4458700000000  0.5504710000000  0.4357700000000 1.0
C      1  0.5277490000000  0.4325370000000  0.4875220000000 1.0
C      1  0.5731750000000  0.5335100000000  0.4566490000000 1.0
C      1  0.5286400000000  0.5397390000000  0.5137120000000 1.0
C      1  0.4754550000000  0.5341850000000  0.4834990000000 1.0
C      1  0.5368690000000  0.5343050000000  0.5411770000000 1.0
C      1  0.4411570000000  0.4863080000000  0.4800620000000 1.0
C      1  0.5301600000000  0.5124350000000  0.4698370000000 1.0
C      1  0.5398170000000  0.3829480000000  0.5992610000000 1.0
C      1  0.5477870000000  0.4951060000000  0.5146120000000 1.0
C      1  0.5047500000000  0.5035970000000  0.4583320000000 1.0
C      1  0.5435030000000  0.4669320000000  0.5213710000000 1.0
C      1  0.5322360000000  0.4652580000000  0.5488090000000 1.0
C      1  0.4667720000000  0.5376800000000  0.5098660000000 1.0
C      1  0.5916760000000  0.5508310000000  0.4627160000000 1.0
C      1  0.5009160000000  0.5536390000000  0.5690490000000 1.0
C      1  0.5526100000000  0.5154240000000  0.4517330000000 1.0
C      1  0.5307340000000  0.4034100000000  0.5859030000000 1.0
C      1  0.4594010000000  0.5126120000000  0.5210390000000 1.0
C      1  0.5499330000000  0.5079470000000  0.5411300000000 1.0
C      1  0.4287560000000  0.5628440000000  0.4174560000000 1.0
END
