TITL C-247199-3331-463 -4.10944791515098 125000 -149.895962950799 0 0 26 (C1) n - 1
REM
REM in /home/nfs/bkarasulu/CARBON/AIRSS/Generating-Clusters/LCBOP/Only-C1/SD-CG/FIRE-HFTN
REM
REM
REM
REM
REM
REM ./C.cell (11c1c37f851c82e70ff6c80c92926a4b)
REM AIRSS Version 0.9.1 bugfix July 2018 build 013d7b7c2542+ Fri, 06 Jul 2018 19:26:36 +0100
REM compiler GCC version 9.2.1 20190827 (Red Hat 9.2.1-1)
REM options -cpp -mtune=generic -march=x86-64 -g -O0 -fpre-include=/usr/include/finclude/math-vector-fortran.h
REM seed 1586755320 -542819132 -2123273871 333366706 -845755338 29525109 -211390068 -26587061 -355850209 -849193133 -381760394 1959437054 -1723635689 897888417 -263184264 1063539189 1935431387 -911666084 640647424 -1688239037 888694749 1782054097 -1120070154 -763502962 -2014079483 1339818688 -360858866 31086883 1154819562 437522667 -1994317357 1749147161 1342783920
REM
CELL 1.54180   50.00000   50.00000   50.00000   90.00000   90.00000   90.00000
LATT -1
SFAC C  
C      1  0.5765200000000  0.4329990000000  0.4049440000000 1.0
C      1  0.4692320000000  0.5160910000000  0.5301680000000 1.0
C      1  0.5716850000000  0.5631860000000  0.5184010000000 1.0
C      1  0.5733040000000  0.5371600000000  0.5238260000000 1.0
C      1  0.4306290000000  0.5043480000000  0.5660040000000 1.0
C      1  0.4730810000000  0.4790000000000  0.4755780000000 1.0
C      1  0.4737180000000  0.4750060000000  0.5036850000000 1.0
C      1  0.5352810000000  0.4510240000000  0.4321240000000 1.0
C      1  0.4853740000000  0.4948260000000  0.5203430000000 1.0
C      1  0.4938650000000  0.4692250000000  0.4597060000000 1.0
C      1  0.5144990000000  0.4601090000000  0.4458260000000 1.0
C      1  0.4518510000000  0.4307830000000  0.5265490000000 1.0
C      1  0.4846310000000  0.5654840000000  0.5149770000000 1.0
C      1  0.5605120000000  0.5141320000000  0.5275440000000 1.0
C      1  0.5295810000000  0.5905420000000  0.5106040000000 1.0
C      1  0.5384420000000  0.4993680000000  0.5285230000000 1.0
C      1  0.5039920000000  0.5832980000000  0.5112550000000 1.0
C      1  0.5551000000000  0.5834100000000  0.5132990000000 1.0
C      1  0.4408980000000  0.4102030000000  0.5382160000000 1.0
C      1  0.5560720000000  0.4419370000000  0.4184210000000 1.0
C      1  0.5126120000000  0.4936290000000  0.5265110000000 1.0
C      1  0.4734620000000  0.5422110000000  0.5211210000000 1.0
C      1  0.4628750000000  0.4518480000000  0.5148640000000 1.0
C      1  0.4317560000000  0.5065700000000  0.4545080000000 1.0
C      1  0.4517480000000  0.4928270000000  0.4640250000000 1.0
C      1  0.4492790000000  0.5107850000000  0.5489780000000 1.0
END
