TITL C-247201-3759-539 1.83020333831038e-07 125000 -474.001454303936 0 0 79 (C1) n - 1
REM
REM in /home/nfs/bkarasulu/CARBON/AIRSS/Generating-Clusters/LCBOP/Only-C1/SD-CG/FIRE-HFTN
REM
REM
REM
REM
REM
REM ./C.cell (11c1c37f851c82e70ff6c80c92926a4b)
REM AIRSS Version 0.9.1 bugfix July 2018 build 013d7b7c2542+ Fri, 06 Jul 2018 19:26:36 +0100
REM compiler GCC version 9.2.1 20190827 (Red Hat 9.2.1-1)
REM options -cpp -mtune=generic -march=x86-64 -g -O0 -fpre-include=/usr/include/finclude/math-vector-fortran.h
REM seed -2076614783 293591971 -1680253729 -875648844 -209042625 1032959508 508793322 -430458244 -2118393693 549518811 2104923144 -1143997320 -197936267 -1825724144 -1873938815 -629888633 1051724320 1805159289 -449211562 1553206287 -424366183 -1554302741 -1130618517 -620672641 -970236828 722042361 2039853622 -300301652 1240520027 1550153645 -763070554 1113113841 1222458115
REM
CELL 1.54180   50.00000   50.00000   50.00000   90.00000   90.00000   90.00000
LATT -1
SFAC C  
C      1  0.4171310000000  0.5603960000000  0.5033430000000 1.0
C      1  0.5157020000000  0.5251400000000  0.4250110000000 1.0
C      1  0.4582660000000  0.5588560000000  0.5979290000000 1.0
C      1  0.4897520000000  0.5170820000000  0.5328600000000 1.0
C      1  0.5050560000000  0.5455530000000  0.6132960000000 1.0
C      1  0.5809700000000  0.4540020000000  0.5588710000000 1.0
C      1  0.5344560000000  0.4169620000000  0.5162860000000 1.0
C      1  0.4956160000000  0.4360960000000  0.4925690000000 1.0
C      1  0.4840890000000  0.4426190000000  0.4461790000000 1.0
C      1  0.4322830000000  0.5140050000000  0.4948980000000 1.0
C      1  0.5141320000000  0.4753800000000  0.5101180000000 1.0
C      1  0.4892880000000  0.5739030000000  0.5533840000000 1.0
C      1  0.4724490000000  0.4507490000000  0.4923160000000 1.0
C      1  0.5279440000000  0.5363850000000  0.5997800000000 1.0
C      1  0.5250020000000  0.4717200000000  0.5593430000000 1.0
C      1  0.5730060000000  0.4309780000000  0.5478340000000 1.0
C      1  0.5741640000000  0.5149390000000  0.3853020000000 1.0
C      1  0.4585090000000  0.4874800000000  0.4142300000000 1.0
C      1  0.4631540000000  0.5624390000000  0.5493850000000 1.0
C      1  0.4526310000000  0.4708750000000  0.4877350000000 1.0
C      1  0.5240900000000  0.4845580000000  0.4851430000000 1.0
C      1  0.5112780000000  0.5568920000000  0.5591700000000 1.0
C      1  0.5702730000000  0.4777020000000  0.4768540000000 1.0
C      1  0.5278730000000  0.5371980000000  0.5711660000000 1.0
C      1  0.5198500000000  0.4464710000000  0.4187600000000 1.0
C      1  0.5646500000000  0.4566350000000  0.4336800000000 1.0
C      1  0.4927880000000  0.6009860000000  0.5515640000000 1.0
C      1  0.5063060000000  0.5099300000000  0.4478740000000 1.0
C      1  0.4491910000000  0.4724740000000  0.4363760000000 1.0
C      1  0.4788240000000  0.4923700000000  0.3972850000000 1.0
C      1  0.4893090000000  0.5300990000000  0.4612120000000 1.0
C      1  0.5632270000000  0.4546480000000  0.4621290000000 1.0
C      1  0.5122950000000  0.4836670000000  0.4580150000000 1.0
C      1  0.5438270000000  0.4370190000000  0.4741920000000 1.0
C      1  0.5558570000000  0.5161930000000  0.5050750000000 1.0
C      1  0.5522560000000  0.5252930000000  0.5299360000000 1.0
C      1  0.4800130000000  0.5547290000000  0.6129480000000 1.0
C      1  0.5205350000000  0.4518440000000  0.5783960000000 1.0
C      1  0.4412310000000  0.4886400000000  0.5077170000000 1.0
C      1  0.4588850000000  0.4460400000000  0.4375470000000 1.0
C      1  0.5172430000000  0.4319350000000  0.5955560000000 1.0
C      1  0.5464270000000  0.4905560000000  0.5624020000000 1.0
C      1  0.5502190000000  0.5274140000000  0.6139380000000 1.0
C      1  0.5015650000000  0.5487610000000  0.4217370000000 1.0
C      1  0.5428930000000  0.5182900000000  0.5556330000000 1.0
C      1  0.4309310000000  0.5371800000000  0.5160020000000 1.0
C      1  0.5543990000000  0.4177200000000  0.5340320000000 1.0
C      1  0.4885180000000  0.5345080000000  0.4883380000000 1.0
C      1  0.4430920000000  0.4827410000000  0.4619350000000 1.0
C      1  0.5468510000000  0.4394260000000  0.4205360000000 1.0
C      1  0.4803920000000  0.5353270000000  0.5144140000000 1.0
C      1  0.4489980000000  0.5522440000000  0.5722380000000 1.0
C      1  0.5053310000000  0.4385390000000  0.3968840000000 1.0
C      1  0.4332720000000  0.5682590000000  0.4550190000000 1.0
C      1  0.4363640000000  0.5271340000000  0.5682690000000 1.0
C      1  0.4263530000000  0.5193920000000  0.5416950000000 1.0
C      1  0.5691560000000  0.4803510000000  0.4189730000000 1.0
C      1  0.4234590000000  0.5742730000000  0.4809000000000 1.0
C      1  0.5071780000000  0.4751220000000  0.5376680000000 1.0
C      1  0.5717950000000  0.4784930000000  0.5649790000000 1.0
C      1  0.5311190000000  0.4929090000000  0.3895670000000 1.0
C      1  0.4380950000000  0.4920820000000  0.5355250000000 1.0
C      1  0.4826020000000  0.5524120000000  0.4431450000000 1.0
C      1  0.5888760000000  0.5329850000000  0.3735940000000 1.0
C      1  0.4605830000000  0.5689610000000  0.4478080000000 1.0
C      1  0.5580690000000  0.4959400000000  0.3980090000000 1.0
C      1  0.5072130000000  0.4588540000000  0.4419680000000 1.0
C      1  0.4294800000000  0.5075610000000  0.4670380000000 1.0
C      1  0.5711220000000  0.5183600000000  0.6265980000000 1.0
C      1  0.4854170000000  0.4917320000000  0.5437680000000 1.0
C      1  0.4581380000000  0.5497380000000  0.5239740000000 1.0
C      1  0.4511590000000  0.5035770000000  0.5773530000000 1.0
C      1  0.4166010000000  0.5230400000000  0.4478670000000 1.0
C      1  0.5042460000000  0.4929660000000  0.3885350000000 1.0
C      1  0.5509180000000  0.4950760000000  0.4874600000000 1.0
C      1  0.5145650000000  0.4119090000000  0.6120290000000 1.0
C      1  0.4178290000000  0.5490070000000  0.4411620000000 1.0
C      1  0.4596830000000  0.4874740000000  0.5547400000000 1.0
C      1  0.5236880000000  0.4288040000000  0.4930050000000 1.0
END
