TITL C-247199-3331-403 0.445479043269513 125000 -1130.2620300205 0 0 185 (C1) n - 1
REM
REM in /home/nfs/bkarasulu/CARBON/AIRSS/Generating-Clusters/LCBOP/Only-C1/SD-CG/FIRE-HFTN
REM
REM
REM
REM
REM
REM ./C.cell (11c1c37f851c82e70ff6c80c92926a4b)
REM AIRSS Version 0.9.1 bugfix July 2018 build 013d7b7c2542+ Fri, 06 Jul 2018 19:26:36 +0100
REM compiler GCC version 9.2.1 20190827 (Red Hat 9.2.1-1)
REM options -cpp -mtune=generic -march=x86-64 -g -O0 -fpre-include=/usr/include/finclude/math-vector-fortran.h
REM seed -657324137 -1359806059 -1803898184 -62132896 -54322393 475985783 -1352167281 1644272060 1463869729 -593483301 1424150910 750628807 298328281 1673538779 -1633233079 -1909658153 1689016174 -1505563575 1431339345 -424638841 960642816 1793036735 -47955254 1799342608 505980614 -631817246 1041635870 -1611604435 -851731856 -1076812052 1269328692 2135756030 -392735916
REM
CELL 1.54180   50.00000   50.00000   50.00000   90.00000   90.00000   90.00000
LATT -1
SFAC C  
C      1  0.4555400000000  0.6494880000000  0.5026030000000 1.0
C      1  0.4710710000000  0.3719060000000  0.3813080000000 1.0
C      1  0.4097170000000  0.5379360000000  0.4626320000000 1.0
C      1  0.4785590000000  0.5886950000000  0.5446740000000 1.0
C      1  0.5859500000000  0.5831480000000  0.4872430000000 1.0
C      1  0.5702110000000  0.5241420000000  0.5186370000000 1.0
C      1  0.4736860000000  0.4652120000000  0.4967370000000 1.0
C      1  0.5558550000000  0.5312670000000  0.5844430000000 1.0
C      1  0.5349810000000  0.6079670000000  0.4144070000000 1.0
C      1  0.4766880000000  0.5149270000000  0.4563710000000 1.0
C      1  0.5041030000000  0.6054000000000  0.4727510000000 1.0
C      1  0.5077280000000  0.5808910000000  0.6274890000000 1.0
C      1  0.4572870000000  0.6726410000000  0.5144350000000 1.0
C      1  0.5553640000000  0.4829650000000  0.5858650000000 1.0
C      1  0.4690640000000  0.4397020000000  0.5679220000000 1.0
C      1  0.5177890000000  0.6239230000000  0.4566820000000 1.0
C      1  0.4619320000000  0.5633270000000  0.4195630000000 1.0
C      1  0.4843610000000  0.4173570000000  0.5801980000000 1.0
C      1  0.4172860000000  0.3858120000000  0.4363570000000 1.0
C      1  0.4527050000000  0.4249110000000  0.4964100000000 1.0
C      1  0.5144870000000  0.4856190000000  0.5010330000000 1.0
C      1  0.4619490000000  0.4618760000000  0.6328250000000 1.0
C      1  0.4695140000000  0.4525620000000  0.4337400000000 1.0
C      1  0.4847530000000  0.5669450000000  0.4330580000000 1.0
C      1  0.4895430000000  0.5395870000000  0.5666830000000 1.0
C      1  0.4285640000000  0.3768640000000  0.4140600000000 1.0
C      1  0.4898800000000  0.4218260000000  0.6105850000000 1.0
C      1  0.5896340000000  0.4477360000000  0.5119140000000 1.0
C      1  0.5524850000000  0.6059840000000  0.5486070000000 1.0
C      1  0.4942390000000  0.4780080000000  0.4834850000000 1.0
C      1  0.4923040000000  0.5160030000000  0.6177090000000 1.0
C      1  0.5379610000000  0.5289680000000  0.4579470000000 1.0
C      1  0.5400110000000  0.5518460000000  0.5375190000000 1.0
C      1  0.5610060000000  0.5268930000000  0.4417730000000 1.0
C      1  0.5344060000000  0.4303820000000  0.5793500000000 1.0
C      1  0.5199710000000  0.3958980000000  0.5475110000000 1.0
C      1  0.4510540000000  0.4901420000000  0.5311400000000 1.0
C      1  0.4165290000000  0.5582250000000  0.4428460000000 1.0
C      1  0.4778970000000  0.5435630000000  0.5433990000000 1.0
C      1  0.3778640000000  0.4742200000000  0.4607590000000 1.0
C      1  0.5970750000000  0.4772740000000  0.5599220000000 1.0
C      1  0.4106010000000  0.6006010000000  0.5366360000000 1.0
C      1  0.4532460000000  0.5435930000000  0.3478000000000 1.0
C      1  0.5194650000000  0.4502570000000  0.5886770000000 1.0
C      1  0.5193160000000  0.4416520000000  0.4525390000000 1.0
C      1  0.4093020000000  0.4257470000000  0.5284440000000 1.0
C      1  0.5946880000000  0.4768400000000  0.5113390000000 1.0
C      1  0.4055730000000  0.4796590000000  0.4570770000000 1.0
C      1  0.6040620000000  0.5282200000000  0.4661470000000 1.0
C      1  0.5131690000000  0.4913400000000  0.4382340000000 1.0
C      1  0.5627310000000  0.4634190000000  0.4754070000000 1.0
C      1  0.5379580000000  0.5370330000000  0.5620530000000 1.0
C      1  0.4383760000000  0.4711520000000  0.5951870000000 1.0
C      1  0.5356430000000  0.4843120000000  0.5649860000000 1.0
C      1  0.5149870000000  0.5351030000000  0.6126060000000 1.0
C      1  0.5531240000000  0.4285390000000  0.5359110000000 1.0
C      1  0.6074350000000  0.4480310000000  0.4504370000000 1.0
C      1  0.4932000000000  0.4920130000000  0.4582210000000 1.0
C      1  0.3509260000000  0.4519760000000  0.4978590000000 1.0
C      1  0.5828200000000  0.4029430000000  0.4663840000000 1.0
C      1  0.5805420000000  0.4368550000000  0.5365600000000 1.0
C      1  0.5945460000000  0.5616550000000  0.5578260000000 1.0
C      1  0.4845060000000  0.4857920000000  0.5624820000000 1.0
C      1  0.5677100000000  0.5660980000000  0.4729740000000 1.0
C      1  0.5486810000000  0.5879170000000  0.5708990000000 1.0
C      1  0.4508490000000  0.4532500000000  0.4557990000000 1.0
C      1  0.5430150000000  0.4602990000000  0.4545950000000 1.0
C      1  0.4930430000000  0.3964680000000  0.5599070000000 1.0
C      1  0.5605600000000  0.5017860000000  0.4278550000000 1.0
C      1  0.5814140000000  0.4917460000000  0.5784070000000 1.0
C      1  0.4586770000000  0.4999420000000  0.5573150000000 1.0
C      1  0.4274760000000  0.3830830000000  0.4834280000000 1.0
C      1  0.4871840000000  0.5371400000000  0.4704800000000 1.0
C      1  0.5423310000000  0.6541270000000  0.4276380000000 1.0
C      1  0.6159550000000  0.5366920000000  0.4906050000000 1.0
C      1  0.5306580000000  0.5615570000000  0.3892460000000 1.0
C      1  0.3607090000000  0.4386810000000  0.5187840000000 1.0
C      1  0.4364290000000  0.5558680000000  0.4231350000000 1.0
C      1  0.5102380000000  0.4969500000000  0.5668850000000 1.0
C      1  0.4493990000000  0.5194930000000  0.3581440000000 1.0
C      1  0.4843810000000  0.3157810000000  0.3251910000000 1.0
C      1  0.4518080000000  0.3801480000000  0.4991710000000 1.0
C      1  0.5622450000000  0.7017570000000  0.4177490000000 1.0
C      1  0.4511070000000  0.4766720000000  0.3887310000000 1.0
C      1  0.4480930000000  0.5294300000000  0.5976020000000 1.0
C      1  0.5058630000000  0.4676750000000  0.6035820000000 1.0
C      1  0.4630020000000  0.5121570000000  0.6144640000000 1.0
C      1  0.5149750000000  0.5645800000000  0.6060340000000 1.0
C      1  0.4800680000000  0.3339620000000  0.3433700000000 1.0
C      1  0.5145520000000  0.5783830000000  0.4716300000000 1.0
C      1  0.5412570000000  0.5211240000000  0.6084860000000 1.0
C      1  0.5523680000000  0.6781340000000  0.4226540000000 1.0
C      1  0.4166620000000  0.6071830000000  0.4622900000000 1.0
C      1  0.5818690000000  0.5201190000000  0.5789670000000 1.0
C      1  0.5932470000000  0.4491110000000  0.5586020000000 1.0
C      1  0.4137190000000  0.5861040000000  0.5594300000000 1.0
C      1  0.4428220000000  0.5604290000000  0.5116670000000 1.0
C      1  0.5402470000000  0.4833550000000  0.4373720000000 1.0
C      1  0.5157670000000  0.4245460000000  0.6247210000000 1.0
C      1  0.4981790000000  0.4447730000000  0.4318890000000 1.0
C      1  0.4360610000000  0.5560850000000  0.5976290000000 1.0
C      1  0.5214010000000  0.5799810000000  0.5805840000000 1.0
C      1  0.6040590000000  0.4912130000000  0.5349930000000 1.0
C      1  0.5211510000000  0.5109860000000  0.3766190000000 1.0
C      1  0.4535650000000  0.6241490000000  0.4907520000000 1.0
C      1  0.4756860000000  0.3524400000000  0.3618460000000 1.0
C      1  0.4873090000000  0.5433670000000  0.5188030000000 1.0
C      1  0.4011320000000  0.5499290000000  0.4880170000000 1.0
C      1  0.5397220000000  0.5694370000000  0.4843870000000 1.0
C      1  0.5016210000000  0.4890080000000  0.6189200000000 1.0
C      1  0.4967250000000  0.5313430000000  0.4963790000000 1.0
C      1  0.4675370000000  0.4675940000000  0.5241310000000 1.0
C      1  0.5470430000000  0.3836060000000  0.5023670000000 1.0
C      1  0.5745450000000  0.5747750000000  0.5736130000000 1.0
C      1  0.4470670000000  0.3720850000000  0.3956670000000 1.0
C      1  0.5379620000000  0.5632800000000  0.5129260000000 1.0
C      1  0.4328470000000  0.4255220000000  0.5161970000000 1.0
C      1  0.5067620000000  0.4391170000000  0.4048770000000 1.0
C      1  0.5333750000000  0.4439590000000  0.6338160000000 1.0
C      1  0.5387670000000  0.4155410000000  0.5564600000000 1.0
C      1  0.5127060000000  0.5248100000000  0.5667020000000 1.0
C      1  0.5998450000000  0.5334960000000  0.5623090000000 1.0
C      1  0.4966800000000  0.5605740000000  0.4577120000000 1.0
C      1  0.3578560000000  0.4650690000000  0.4757180000000 1.0
C      1  0.6132710000000  0.5416830000000  0.5182490000000 1.0
C      1  0.4988120000000  0.5880780000000  0.5632710000000 1.0
C      1  0.4584100000000  0.4616040000000  0.4092720000000 1.0
C      1  0.4698490000000  0.4366910000000  0.6256760000000 1.0
C      1  0.4406690000000  0.5075890000000  0.5124590000000 1.0
C      1  0.5303020000000  0.4689460000000  0.5170570000000 1.0
C      1  0.3830300000000  0.4294650000000  0.5299970000000 1.0
C      1  0.5766060000000  0.4962140000000  0.4065070000000 1.0
C      1  0.4169530000000  0.3989840000000  0.4613110000000 1.0
C      1  0.4219170000000  0.4546300000000  0.4547730000000 1.0
C      1  0.4798170000000  0.4591520000000  0.5495530000000 1.0
C      1  0.5751320000000  0.4860740000000  0.4906750000000 1.0
C      1  0.5976900000000  0.4228360000000  0.4548030000000 1.0
C      1  0.5473960000000  0.4915750000000  0.6128370000000 1.0
C      1  0.5711410000000  0.6049000000000  0.5288100000000 1.0
C      1  0.4578670000000  0.3718940000000  0.5257690000000 1.0
C      1  0.4270940000000  0.6128990000000  0.4880330000000 1.0
C      1  0.5178590000000  0.5132480000000  0.4984980000000 1.0
C      1  0.5638760000000  0.5111630000000  0.4958080000000 1.0
C      1  0.5439910000000  0.4693510000000  0.6311520000000 1.0
C      1  0.4175030000000  0.5692720000000  0.5020880000000 1.0
C      1  0.5890020000000  0.5873370000000  0.5151170000000 1.0
C      1  0.5317660000000  0.6288510000000  0.4328750000000 1.0
C      1  0.4559310000000  0.5141420000000  0.4390230000000 1.0
C      1  0.4217080000000  0.5625950000000  0.5727630000000 1.0
C      1  0.4592180000000  0.4474330000000  0.4818980000000 1.0
C      1  0.6104020000000  0.5197520000000  0.5380730000000 1.0
C      1  0.4581590000000  0.5676920000000  0.3391580000000 1.0
C      1  0.4455220000000  0.5330660000000  0.5070790000000 1.0
C      1  0.5432070000000  0.4810810000000  0.5386010000000 1.0
C      1  0.4688780000000  0.4020120000000  0.4916220000000 1.0
C      1  0.5028250000000  0.4134260000000  0.3946100000000 1.0
C      1  0.4451550000000  0.4493080000000  0.5804310000000 1.0
C      1  0.6117070000000  0.4749800000000  0.4514880000000 1.0
C      1  0.5344790000000  0.5853570000000  0.4004530000000 1.0
C      1  0.4946790000000  0.4049320000000  0.4814740000000 1.0
C      1  0.4482830000000  0.4966640000000  0.3715580000000 1.0
C      1  0.4146470000000  0.5969570000000  0.5086790000000 1.0
C      1  0.5357870000000  0.4414250000000  0.5168390000000 1.0
C      1  0.4904110000000  0.3914050000000  0.3866200000000 1.0
C      1  0.5653420000000  0.3905640000000  0.4833670000000 1.0
C      1  0.5402650000000  0.5194390000000  0.4839140000000 1.0
C      1  0.4779260000000  0.6115450000000  0.4825090000000 1.0
C      1  0.5802420000000  0.5429930000000  0.4569830000000 1.0
C      1  0.5187360000000  0.4845760000000  0.3786250000000 1.0
C      1  0.4114070000000  0.5086090000000  0.4587790000000 1.0
C      1  0.4113430000000  0.4275450000000  0.4598610000000 1.0
C      1  0.4729140000000  0.3804580000000  0.5467860000000 1.0
C      1  0.6107440000000  0.5019070000000  0.4558880000000 1.0
C      1  0.5293290000000  0.3831440000000  0.5232290000000 1.0
C      1  0.3768300000000  0.5426850000000  0.4986140000000 1.0
C      1  0.4424530000000  0.5186530000000  0.5706490000000 1.0
C      1  0.5155560000000  0.4600620000000  0.3884400000000 1.0
C      1  0.5744420000000  0.4410210000000  0.4888670000000 1.0
C      1  0.5136190000000  0.4203410000000  0.4703290000000 1.0
C      1  0.6021630000000  0.5667090000000  0.5299600000000 1.0
C      1  0.4233580000000  0.5369430000000  0.5588220000000 1.0
C      1  0.5252030000000  0.5368980000000  0.3809600000000 1.0
C      1  0.4095530000000  0.5852700000000  0.4484210000000 1.0
C      1  0.4525310000000  0.4840930000000  0.6168680000000 1.0
C      1  0.4598860000000  0.5792320000000  0.5266430000000 1.0
END
