TITL C-247197-3123-585 -1.4418741681996e-06 125000 -973.968703041764 0 0 160 (C1) n - 1
REM
REM in /home/nfs/bkarasulu/CARBON/AIRSS/Generating-Clusters/LCBOP/Only-C1/SD-CG/FIRE-HFTN
REM
REM
REM
REM
REM
REM ./C.cell (11c1c37f851c82e70ff6c80c92926a4b)
REM AIRSS Version 0.9.1 bugfix July 2018 build 013d7b7c2542+ Fri, 06 Jul 2018 19:26:36 +0100
REM compiler GCC version 9.2.1 20190827 (Red Hat 9.2.1-1)
REM options -cpp -mtune=generic -march=x86-64 -g -O0 -fpre-include=/usr/include/finclude/math-vector-fortran.h
REM seed 1189244454 836423670 1866388581 -666609742 83812016 -1861426977 -206539122 1553093586 1988480692 -1991999470 -778651698 211669783 -1726438895 237943298 1121069119 -2059793330 -2051861845 969701932 -285728254 -1874010759 458241559 1799238562 2070375637 1233210213 -1307575991 410133504 134513920 -1569750034 2076499203 -1087752864 -1361866277 -977771634 1300198667
REM
CELL 1.54180   50.00000   50.00000   50.00000   90.00000   90.00000   90.00000
LATT -1
SFAC C  
C      1  0.4916890000000  0.6002220000000  0.4435700000000 1.0
C      1  0.5236710000000  0.5595560000000  0.5907020000000 1.0
C      1  0.5208310000000  0.5662590000000  0.4187690000000 1.0
C      1  0.4982220000000  0.5055600000000  0.4657120000000 1.0
C      1  0.4774240000000  0.3765010000000  0.5192730000000 1.0
C      1  0.5296080000000  0.5817490000000  0.5710420000000 1.0
C      1  0.4408300000000  0.5332030000000  0.5150690000000 1.0
C      1  0.4011680000000  0.4737010000000  0.4587340000000 1.0
C      1  0.4647560000000  0.5497580000000  0.5125680000000 1.0
C      1  0.3957870000000  0.4997670000000  0.4968440000000 1.0
C      1  0.4915680000000  0.5181840000000  0.3993460000000 1.0
C      1  0.4184800000000  0.5988360000000  0.5273880000000 1.0
C      1  0.5589670000000  0.5781810000000  0.5680230000000 1.0
C      1  0.4315060000000  0.5988540000000  0.5016060000000 1.0
C      1  0.6043320000000  0.5355910000000  0.5054520000000 1.0
C      1  0.5989680000000  0.4755110000000  0.5339750000000 1.0
C      1  0.4669160000000  0.4678750000000  0.6346380000000 1.0
C      1  0.5748750000000  0.4660370000000  0.3982050000000 1.0
C      1  0.4277490000000  0.4309430000000  0.5429120000000 1.0
C      1  0.4815290000000  0.5870860000000  0.5718750000000 1.0
C      1  0.4620630000000  0.4799040000000  0.4775200000000 1.0
C      1  0.5027990000000  0.4466530000000  0.4321680000000 1.0
C      1  0.5648450000000  0.4234820000000  0.4916530000000 1.0
C      1  0.6069720000000  0.5595530000000  0.5175000000000 1.0
C      1  0.3891110000000  0.4937880000000  0.5240650000000 1.0
C      1  0.5821400000000  0.5350860000000  0.5631530000000 1.0
C      1  0.5967840000000  0.5795530000000  0.5324400000000 1.0
C      1  0.4684400000000  0.5870540000000  0.4301910000000 1.0
C      1  0.4893310000000  0.5115270000000  0.5085960000000 1.0
C      1  0.4653670000000  0.5690720000000  0.5562690000000 1.0
C      1  0.4437800000000  0.4418960000000  0.5652840000000 1.0
C      1  0.4117680000000  0.4763570000000  0.4860370000000 1.0
C      1  0.5579410000000  0.4783340000000  0.5123890000000 1.0
C      1  0.4455410000000  0.5879630000000  0.6044500000000 1.0
C      1  0.5012370000000  0.5381510000000  0.5408990000000 1.0
C      1  0.4738560000000  0.5140610000000  0.5782110000000 1.0
C      1  0.5877910000000  0.5138420000000  0.4981200000000 1.0
C      1  0.4755290000000  0.4472140000000  0.4182310000000 1.0
C      1  0.4756300000000  0.3579630000000  0.4745430000000 1.0
C      1  0.4680530000000  0.5717430000000  0.4954450000000 1.0
C      1  0.4653990000000  0.3968780000000  0.5665670000000 1.0
C      1  0.5226220000000  0.5680540000000  0.4882410000000 1.0
C      1  0.5402410000000  0.5062880000000  0.5458640000000 1.0
C      1  0.4160380000000  0.4805690000000  0.5649840000000 1.0
C      1  0.4364900000000  0.4756760000000  0.4255680000000 1.0
C      1  0.4463290000000  0.4735750000000  0.5649090000000 1.0
C      1  0.5684280000000  0.5773510000000  0.4839730000000 1.0
C      1  0.4990920000000  0.6096500000000  0.5339290000000 1.0
C      1  0.4944390000000  0.5259380000000  0.5654410000000 1.0
C      1  0.5222720000000  0.4562940000000  0.4096600000000 1.0
C      1  0.5664250000000  0.5178880000000  0.4790260000000 1.0
C      1  0.5539000000000  0.4574150000000  0.4519090000000 1.0
C      1  0.5490530000000  0.5631260000000  0.4988720000000 1.0
C      1  0.4894890000000  0.6330420000000  0.4886460000000 1.0
C      1  0.4742520000000  0.4696910000000  0.5257160000000 1.0
C      1  0.4419530000000  0.5037190000000  0.5174040000000 1.0
C      1  0.5659480000000  0.4515060000000  0.5732630000000 1.0
C      1  0.4713120000000  0.4849000000000  0.5819810000000 1.0
C      1  0.5504150000000  0.5464380000000  0.5217390000000 1.0
C      1  0.5842020000000  0.4902490000000  0.5136950000000 1.0
C      1  0.4602620000000  0.5983120000000  0.5022690000000 1.0
C      1  0.4706790000000  0.5006240000000  0.4616310000000 1.0
C      1  0.4365560000000  0.5685620000000  0.5608150000000 1.0
C      1  0.4630400000000  0.3595370000000  0.5000110000000 1.0
C      1  0.5643220000000  0.5931230000000  0.4624050000000 1.0
C      1  0.5898920000000  0.4469620000000  0.5310890000000 1.0
C      1  0.5451360000000  0.4567300000000  0.5920190000000 1.0
C      1  0.5716580000000  0.5200170000000  0.4500120000000 1.0
C      1  0.4576540000000  0.4799360000000  0.3858700000000 1.0
C      1  0.5968040000000  0.5157450000000  0.4380160000000 1.0
C      1  0.5391930000000  0.5114880000000  0.4892270000000 1.0
C      1  0.4788200000000  0.5540260000000  0.5360730000000 1.0
C      1  0.5223050000000  0.4452700000000  0.5126290000000 1.0
C      1  0.5394580000000  0.4988770000000  0.4046360000000 1.0
C      1  0.5656290000000  0.5322180000000  0.5410500000000 1.0
C      1  0.5008520000000  0.4475430000000  0.4624340000000 1.0
C      1  0.5517260000000  0.4105820000000  0.4323020000000 1.0
C      1  0.5990840000000  0.4874830000000  0.5607690000000 1.0
C      1  0.5347100000000  0.5417300000000  0.4263270000000 1.0
C      1  0.4504780000000  0.5207560000000  0.4566400000000 1.0
C      1  0.4395380000000  0.4872840000000  0.4928140000000 1.0
C      1  0.5138100000000  0.3764630000000  0.4505640000000 1.0
C      1  0.4104490000000  0.4487080000000  0.5276800000000 1.0
C      1  0.5489490000000  0.4424090000000  0.4759730000000 1.0
C      1  0.4661070000000  0.5202830000000  0.4125660000000 1.0
C      1  0.5592410000000  0.4896280000000  0.6018560000000 1.0
C      1  0.4689370000000  0.4762730000000  0.6100660000000 1.0
C      1  0.5069370000000  0.4786920000000  0.5761580000000 1.0
C      1  0.3762250000000  0.5357260000000  0.4709470000000 1.0
C      1  0.5472120000000  0.5118400000000  0.4317660000000 1.0
C      1  0.4100370000000  0.4776340000000  0.4340100000000 1.0
C      1  0.5162170000000  0.5943900000000  0.4906340000000 1.0
C      1  0.5675460000000  0.5522770000000  0.5808180000000 1.0
C      1  0.5009080000000  0.5683900000000  0.3982550000000 1.0
C      1  0.4887820000000  0.6212930000000  0.4625060000000 1.0
C      1  0.4247040000000  0.5312250000000  0.4659100000000 1.0
C      1  0.5422010000000  0.5100460000000  0.5926910000000 1.0
C      1  0.3992540000000  0.5223560000000  0.4784520000000 1.0
C      1  0.5017530000000  0.4329270000000  0.5272120000000 1.0
C      1  0.4583640000000  0.4209080000000  0.5781210000000 1.0
C      1  0.4967970000000  0.6590440000000  0.4926660000000 1.0
C      1  0.6066630000000  0.4981400000000  0.4202780000000 1.0
C      1  0.5777130000000  0.5883810000000  0.5494150000000 1.0
C      1  0.4915080000000  0.5487930000000  0.4490420000000 1.0
C      1  0.4217120000000  0.5729890000000  0.4895180000000 1.0
C      1  0.5060150000000  0.5951980000000  0.5588710000000 1.0
C      1  0.5406650000000  0.4842500000000  0.4500130000000 1.0
C      1  0.4816290000000  0.6157410000000  0.5105310000000 1.0
C      1  0.5507620000000  0.3999550000000  0.5008010000000 1.0
C      1  0.5243620000000  0.4956830000000  0.4701930000000 1.0
C      1  0.5093850000000  0.4301380000000  0.5751150000000 1.0
C      1  0.4955360000000  0.3622410000000  0.4328850000000 1.0
C      1  0.4289670000000  0.5745540000000  0.5875290000000 1.0
C      1  0.4507600000000  0.4403490000000  0.4607430000000 1.0
C      1  0.5041360000000  0.4714720000000  0.3911910000000 1.0
C      1  0.5182810000000  0.4546670000000  0.5849810000000 1.0
C      1  0.4742840000000  0.4549830000000  0.4710610000000 1.0
C      1  0.4642510000000  0.5398010000000  0.4371300000000 1.0
C      1  0.4527430000000  0.4841720000000  0.5369120000000 1.0
C      1  0.4764130000000  0.5798080000000  0.4031950000000 1.0
C      1  0.4506530000000  0.4507250000000  0.4329060000000 1.0
C      1  0.5190440000000  0.5898190000000  0.4363480000000 1.0
C      1  0.4764160000000  0.4423790000000  0.5196250000000 1.0
C      1  0.5277980000000  0.5265390000000  0.5205890000000 1.0
C      1  0.4010540000000  0.4736070000000  0.5408630000000 1.0
C      1  0.5444400000000  0.5390790000000  0.5939120000000 1.0
C      1  0.5290830000000  0.3889680000000  0.5159310000000 1.0
C      1  0.5477810000000  0.4703510000000  0.4037990000000 1.0
C      1  0.5041370000000  0.3805760000000  0.5049240000000 1.0
C      1  0.5640350000000  0.4455480000000  0.5457400000000 1.0
C      1  0.4488870000000  0.5674070000000  0.4424170000000 1.0
C      1  0.4191900000000  0.5719960000000  0.5385990000000 1.0
C      1  0.6021430000000  0.5154250000000  0.5652970000000 1.0
C      1  0.5104340000000  0.4181710000000  0.5499940000000 1.0
C      1  0.5356650000000  0.3910680000000  0.4412340000000 1.0
C      1  0.4490930000000  0.4960070000000  0.4083520000000 1.0
C      1  0.4614400000000  0.3911080000000  0.5388000000000 1.0
C      1  0.5879990000000  0.4322360000000  0.5064940000000 1.0
C      1  0.5603570000000  0.4362060000000  0.4334940000000 1.0
C      1  0.5268980000000  0.4995650000000  0.5697750000000 1.0
C      1  0.5437500000000  0.5994020000000  0.4462320000000 1.0
C      1  0.4942710000000  0.4873310000000  0.5184990000000 1.0
C      1  0.5980080000000  0.4780490000000  0.4047340000000 1.0
C      1  0.4739170000000  0.3518640000000  0.4466680000000 1.0
C      1  0.4707670000000  0.5947320000000  0.5968400000000 1.0
C      1  0.4969540000000  0.5262430000000  0.4863940000000 1.0
C      1  0.4555460000000  0.4264880000000  0.5074710000000 1.0
C      1  0.5017770000000  0.3730410000000  0.4770860000000 1.0
C      1  0.4431500000000  0.4106740000000  0.5277800000000 1.0
C      1  0.4199870000000  0.5542420000000  0.5145270000000 1.0
C      1  0.5120520000000  0.4996350000000  0.3940770000000 1.0
C      1  0.4778250000000  0.4614160000000  0.3925870000000 1.0
C      1  0.5213600000000  0.4442690000000  0.4836000000000 1.0
C      1  0.5268530000000  0.3962890000000  0.5432440000000 1.0
C      1  0.5047590000000  0.5505060000000  0.4747790000000 1.0
C      1  0.4145910000000  0.4490650000000  0.4985250000000 1.0
C      1  0.4286040000000  0.5610350000000  0.4640620000000 1.0
C      1  0.5450810000000  0.4566560000000  0.5259450000000 1.0
C      1  0.5828810000000  0.4746950000000  0.5800040000000 1.0
C      1  0.4371590000000  0.4341370000000  0.4862980000000 1.0
END
