TITL C-247197-3123-418 0.00290845984962474 125000 -595.594854233998 0 0 98 (C1) n - 1
REM
REM in /home/nfs/bkarasulu/CARBON/AIRSS/Generating-Clusters/LCBOP/Only-C1/SD-CG/FIRE-HFTN
REM
REM
REM
REM
REM
REM ./C.cell (11c1c37f851c82e70ff6c80c92926a4b)
REM AIRSS Version 0.9.1 bugfix July 2018 build 013d7b7c2542+ Fri, 06 Jul 2018 19:26:36 +0100
REM compiler GCC version 9.2.1 20190827 (Red Hat 9.2.1-1)
REM options -cpp -mtune=generic -march=x86-64 -g -O0 -fpre-include=/usr/include/finclude/math-vector-fortran.h
REM seed -1441274080 -1395364093 -293565958 -953168368 1211425507 397197258 929789639 126173765 -108830501 572792871 -138524806 -1799080750 -329564608 973368399 -808359262 1048323780 25213482 -1723700974 367016830 1077477275 -800910109 -1074528008 181074953 1276863889 83039111 1151472656 1255583984 -1620037363 -1187998208 -2017736384 607211167 1910433340 -1622961048
REM
CELL 1.54180   50.00000   50.00000   50.00000   90.00000   90.00000   90.00000
LATT -1
SFAC C  
C      1  0.4634820000000  0.3649210000000  0.5773010000000 1.0
C      1  0.4322290000000  0.5261160000000  0.5762770000000 1.0
C      1  0.6009000000000  0.5405250000000  0.5090450000000 1.0
C      1  0.4120840000000  0.5308280000000  0.4263780000000 1.0
C      1  0.4608410000000  0.5404640000000  0.5077430000000 1.0
C      1  0.5304630000000  0.5577080000000  0.5896980000000 1.0
C      1  0.6415690000000  0.5005650000000  0.5468840000000 1.0
C      1  0.5078450000000  0.5293160000000  0.5275740000000 1.0
C      1  0.5319200000000  0.4425880000000  0.4371400000000 1.0
C      1  0.4867030000000  0.5228410000000  0.5072010000000 1.0
C      1  0.3860160000000  0.5301000000000  0.5569870000000 1.0
C      1  0.4978260000000  0.5733630000000  0.6295460000000 1.0
C      1  0.5084540000000  0.5280100000000  0.4147270000000 1.0
C      1  0.5106930000000  0.5517450000000  0.4298740000000 1.0
C      1  0.5584390000000  0.5491260000000  0.4851710000000 1.0
C      1  0.5466440000000  0.4561600000000  0.4568000000000 1.0
C      1  0.5141290000000  0.5660800000000  0.6105650000000 1.0
C      1  0.5593660000000  0.3779380000000  0.3972340000000 1.0
C      1  0.4743700000000  0.5833710000000  0.4548290000000 1.0
C      1  0.4860590000000  0.6079410000000  0.4623190000000 1.0
C      1  0.4318500000000  0.4588590000000  0.4674930000000 1.0
C      1  0.5048710000000  0.4478590000000  0.5351500000000 1.0
C      1  0.4140920000000  0.5532620000000  0.4412530000000 1.0
C      1  0.4621420000000  0.4285290000000  0.4508930000000 1.0
C      1  0.5292810000000  0.5104600000000  0.5304330000000 1.0
C      1  0.5546200000000  0.4787500000000  0.5022160000000 1.0
C      1  0.5346750000000  0.5588320000000  0.4431330000000 1.0
C      1  0.4689830000000  0.3846610000000  0.4726150000000 1.0
C      1  0.5507540000000  0.3993360000000  0.4102920000000 1.0
C      1  0.5723100000000  0.4601780000000  0.5705090000000 1.0
C      1  0.4575510000000  0.5142060000000  0.5685400000000 1.0
C      1  0.4116810000000  0.5215210000000  0.5566410000000 1.0
C      1  0.5760790000000  0.5554640000000  0.5063700000000 1.0
C      1  0.4495970000000  0.4936210000000  0.5482140000000 1.0
C      1  0.4808620000000  0.4941990000000  0.5153340000000 1.0
C      1  0.5056800000000  0.4526510000000  0.4322250000000 1.0
C      1  0.5370320000000  0.5043650000000  0.4670940000000 1.0
C      1  0.6032790000000  0.5279500000000  0.5350700000000 1.0
C      1  0.3993660000000  0.4962410000000  0.4972240000000 1.0
C      1  0.5776030000000  0.5409410000000  0.5786240000000 1.0
C      1  0.4598670000000  0.4110520000000  0.4744680000000 1.0
C      1  0.4420580000000  0.5224820000000  0.4932990000000 1.0
C      1  0.4670130000000  0.4772300000000  0.5328770000000 1.0
C      1  0.4532500000000  0.5732430000000  0.4715010000000 1.0
C      1  0.4765330000000  0.4499700000000  0.5317690000000 1.0
C      1  0.4871780000000  0.5181730000000  0.4762370000000 1.0
C      1  0.4781160000000  0.3602730000000  0.4716640000000 1.0
C      1  0.4494610000000  0.5093630000000  0.4442540000000 1.0
C      1  0.4238960000000  0.4822540000000  0.4144230000000 1.0
C      1  0.5474560000000  0.4778010000000  0.4741200000000 1.0
C      1  0.5678350000000  0.3568900000000  0.3843920000000 1.0
C      1  0.5668600000000  0.5587600000000  0.5339800000000 1.0
C      1  0.4708560000000  0.5886190000000  0.5147010000000 1.0
C      1  0.4855070000000  0.4459340000000  0.4508260000000 1.0
C      1  0.4484210000000  0.4204090000000  0.4998060000000 1.0
C      1  0.4585410000000  0.5161570000000  0.4695190000000 1.0
C      1  0.4117050000000  0.4503450000000  0.4853770000000 1.0
C      1  0.4806520000000  0.4647940000000  0.4717470000000 1.0
C      1  0.5543550000000  0.4614290000000  0.5247570000000 1.0
C      1  0.5030500000000  0.4756120000000  0.4158460000000 1.0
C      1  0.4380880000000  0.4437370000000  0.4436470000000 1.0
C      1  0.5292210000000  0.6130530000000  0.4824980000000 1.0
C      1  0.4597980000000  0.5677140000000  0.4994130000000 1.0
C      1  0.6665460000000  0.4989250000000  0.5541410000000 1.0
C      1  0.4878540000000  0.5669590000000  0.4364270000000 1.0
C      1  0.4625920000000  0.4257900000000  0.5243830000000 1.0
C      1  0.4295910000000  0.4563750000000  0.4199960000000 1.0
C      1  0.5840210000000  0.5422890000000  0.5514640000000 1.0
C      1  0.4250230000000  0.5053230000000  0.5364750000000 1.0
C      1  0.5222750000000  0.5590440000000  0.5623130000000 1.0
C      1  0.4215600000000  0.5094300000000  0.5083630000000 1.0
C      1  0.5465560000000  0.5947330000000  0.4735950000000 1.0
C      1  0.3935710000000  0.4703650000000  0.4925630000000 1.0
C      1  0.5487630000000  0.5068370000000  0.5100730000000 1.0
C      1  0.5565050000000  0.5475970000000  0.5938590000000 1.0
C      1  0.4206700000000  0.4277390000000  0.4995990000000 1.0
C      1  0.4550710000000  0.4707210000000  0.4786580000000 1.0
C      1  0.5051000000000  0.5017690000000  0.4103270000000 1.0
C      1  0.5283840000000  0.4627900000000  0.5377460000000 1.0
C      1  0.5773150000000  0.4629490000000  0.5425990000000 1.0
C      1  0.5483950000000  0.5676790000000  0.4662160000000 1.0
C      1  0.5097950000000  0.5091490000000  0.4629110000000 1.0
C      1  0.4279800000000  0.5075330000000  0.4262190000000 1.0
C      1  0.4630330000000  0.3848860000000  0.5605440000000 1.0
C      1  0.5421500000000  0.5678210000000  0.5438280000000 1.0
C      1  0.6147800000000  0.5025590000000  0.5392280000000 1.0
C      1  0.5266440000000  0.4893290000000  0.5498100000000 1.0
C      1  0.5420130000000  0.4206490000000  0.4233650000000 1.0
C      1  0.5013790000000  0.6143420000000  0.4852720000000 1.0
C      1  0.4287110000000  0.5669770000000  0.4590860000000 1.0
C      1  0.4626240000000  0.4050760000000  0.5433980000000 1.0
C      1  0.5487680000000  0.5228960000000  0.4860540000000 1.0
C      1  0.4884410000000  0.6084140000000  0.5096600000000 1.0
C      1  0.5994670000000  0.4790990000000  0.5358920000000 1.0
C      1  0.5349670000000  0.4899210000000  0.5767830000000 1.0
C      1  0.4806350000000  0.5302380000000  0.5671220000000 1.0
C      1  0.5014200000000  0.5423590000000  0.5522770000000 1.0
C      1  0.5553430000000  0.4745520000000  0.5860140000000 1.0
END
