TITL C-247202-1916-258 591.848277092651 125000 -869.678131744913 0 0 143 (C1) n - 1
REM
REM in /home/nfs/bkarasulu/CARBON/AIRSS/Generating-Clusters/LCBOP/Only-C1/SD-CG/FIRE-HFTN
REM
REM
REM
REM
REM
REM ./C.cell (11c1c37f851c82e70ff6c80c92926a4b)
REM AIRSS Version 0.9.1 bugfix July 2018 build 013d7b7c2542+ Fri, 06 Jul 2018 19:26:36 +0100
REM compiler GCC version 9.2.1 20190827 (Red Hat 9.2.1-1)
REM options -cpp -mtune=generic -march=x86-64 -g -O0 -fpre-include=/usr/include/finclude/math-vector-fortran.h
REM seed -871931389 -811537974 1537503254 649602568 68424085 -265017962 381146449 -846111666 -1913240262 -2053627257 1943929681 1551895680 -1404058683 -82624381 1489323941 -772544774 587947957 -409265604 -547937725 112450121 -229995590 442612023 756682204 -1571409856 804189646 848123943 -445586820 -38919192 1409306280 1790016765 -833116693 -161297973 -1787247939
REM
CELL 1.54180   50.00000   50.00000   50.00000   90.00000   90.00000   90.00000
LATT -1
SFAC C  
C      1  0.4535060000000  0.3785220000000  0.4855150000000 1.0
C      1  0.4101620000000  0.4622990000000  0.4494600000000 1.0
C      1  0.4484220000000  0.4000910000000  0.4688540000000 1.0
C      1  0.5142090000000  0.4809880000000  0.5174610000000 1.0
C      1  0.4908430000000  0.4056140000000  0.4365850000000 1.0
C      1  0.5216060000000  0.5416970000000  0.4904500000000 1.0
C      1  0.4122310000000  0.5200120000000  0.4876030000000 1.0
C      1  0.5546070000000  0.4705670000000  0.4291150000000 1.0
C      1  0.4648950000000  0.5068220000000  0.4361980000000 1.0
C      1  0.4320140000000  0.5263320000000  0.5981540000000 1.0
C      1  0.4572310000000  0.5296030000000  0.4994600000000 1.0
C      1  0.4844130000000  0.4914190000000  0.4226080000000 1.0
C      1  0.5086370000000  0.4697090000000  0.4618790000000 1.0
C      1  0.5286810000000  0.5987930000000  0.4997100000000 1.0
C      1  0.5201660000000  0.3775670000000  0.5011550000000 1.0
C      1  0.4869670000000  0.5858960000000  0.5435090000000 1.0
C      1  0.5363220000000  0.3887390000000  0.5212790000000 1.0
C      1  0.5035480000000  0.4327650000000  0.4935840000000 1.0
C      1  0.4632860000000  0.5223490000000  0.5427450000000 1.0
C      1  0.5190980000000  0.5454230000000  0.3881540000000 1.0
C      1  0.5065330000000  0.5600870000000  0.5965110000000 1.0
C      1  0.5030600000000  0.5170680000000  0.4912970000000 1.0
C      1  0.4491600000000  0.5303560000000  0.4297100000000 1.0
C      1  0.4167310000000  0.4806110000000  0.4024540000000 1.0
C      1  0.6161480000000  0.5335780000000  0.4657490000000 1.0
C      1  0.4918170000000  0.5674190000000  0.6181530000000 1.0
C      1  0.4275540000000  0.4395980000000  0.4509360000000 1.0
C      1  0.5417250000000  0.4270640000000  0.5841600000000 1.0
C      1  0.4748480000000  0.4083990000000  0.5739980000000 1.0
C      1  0.5809560000000  0.4538230000000  0.4752270000000 1.0
C      1  0.5944180000000  0.4992550000000  0.4346010000000 1.0
C      1  0.4660230000000  0.4645870000000  0.4943320000000 1.0
C      1  0.5358350000000  0.5879900000000  0.4480390000000 1.0
C      1  0.5943640000000  0.5517680000000  0.4299540000000 1.0
C      1  0.4317140000000  0.5676370000000  0.4915010000000 1.0
C      1  0.5636240000000  0.5134780000000  0.5356640000000 1.0
C      1  0.5430860000000  0.4055880000000  0.5409120000000 1.0
C      1  0.5281310000000  0.4631150000000  0.4178080000000 1.0
C      1  0.4856640000000  0.5843740000000  0.4402290000000 1.0
C      1  0.5392080000000  0.4546310000000  0.5424840000000 1.0
C      1  0.4497530000000  0.4930050000000  0.6322120000000 1.0
C      1  0.5171210000000  0.5480450000000  0.4618070000000 1.0
C      1  0.4629900000000  0.5548700000000  0.5737800000000 1.0
C      1  0.4121430000000  0.4842040000000  0.4295610000000 1.0
C      1  0.4784360000000  0.5845970000000  0.4964670000000 1.0
C      1  0.4073250000000  0.5099040000000  0.4425130000000 1.0
C      1  0.5819220000000  0.5332130000000  0.5471680000000 1.0
C      1  0.5804530000000  0.4658720000000  0.5778950000000 1.0
C      1  0.4511640000000  0.5475710000000  0.6001820000000 1.0
C      1  0.5788640000000  0.4525350000000  0.5047710000000 1.0
C      1  0.5057560000000  0.5206510000000  0.5649590000000 1.0
C      1  0.4206510000000  0.5454680000000  0.4735630000000 1.0
C      1  0.4616430000000  0.5508220000000  0.4153360000000 1.0
C      1  0.5221300000000  0.5354020000000  0.4362660000000 1.0
C      1  0.5085900000000  0.5920120000000  0.4560910000000 1.0
C      1  0.6163520000000  0.4807160000000  0.5229000000000 1.0
C      1  0.5056190000000  0.4748810000000  0.4319590000000 1.0
C      1  0.4404150000000  0.5669870000000  0.5500690000000 1.0
C      1  0.4495890000000  0.4311080000000  0.4331760000000 1.0
C      1  0.5511450000000  0.5403720000000  0.4953840000000 1.0
C      1  0.4653540000000  0.5021690000000  0.4637290000000 1.0
C      1  0.4962610000000  0.3645410000000  0.5083880000000 1.0
C      1  0.5292060000000  0.5417310000000  0.3644220000000 1.0
C      1  0.5559690000000  0.5795070000000  0.5374860000000 1.0
C      1  0.4291440000000  0.4209930000000  0.4741380000000 1.0
C      1  0.6044940000000  0.5582270000000  0.4572240000000 1.0
C      1  0.5624390000000  0.4779650000000  0.5941440000000 1.0
C      1  0.5789140000000  0.5824480000000  0.4955430000000 1.0
C      1  0.4509390000000  0.4864870000000  0.4838290000000 1.0
C      1  0.4369480000000  0.4595010000000  0.5324560000000 1.0
C      1  0.4762030000000  0.5710040000000  0.5218460000000 1.0
C      1  0.6214330000000  0.5038370000000  0.5357860000000 1.0
C      1  0.4630810000000  0.4561330000000  0.5216750000000 1.0
C      1  0.4363840000000  0.5087640000000  0.4981240000000 1.0
C      1  0.5948270000000  0.5696410000000  0.5163190000000 1.0
C      1  0.5823520000000  0.5747020000000  0.4685770000000 1.0
C      1  0.4313610000000  0.5050380000000  0.6165730000000 1.0
C      1  0.4339270000000  0.4826100000000  0.5477210000000 1.0
C      1  0.3942090000000  0.4747080000000  0.4711950000000 1.0
C      1  0.4246350000000  0.5338150000000  0.4447640000000 1.0
C      1  0.5397250000000  0.4790690000000  0.5042440000000 1.0
C      1  0.5107590000000  0.3922430000000  0.4510550000000 1.0
C      1  0.4294040000000  0.5693350000000  0.5231660000000 1.0
C      1  0.5495700000000  0.5209740000000  0.4385010000000 1.0
C      1  0.5101750000000  0.4603260000000  0.5366480000000 1.0
C      1  0.5224760000000  0.3836130000000  0.4735860000000 1.0
C      1  0.5494930000000  0.4519790000000  0.5127640000000 1.0
C      1  0.5191410000000  0.4379150000000  0.4076440000000 1.0
C      1  0.5786760000000  0.5608840000000  0.5392930000000 1.0
C      1  0.4219330000000  0.5217950000000  0.5719590000000 1.0
C      1  0.5010400000000  0.5049080000000  0.5179490000000 1.0
C      1  0.5042650000000  0.5942620000000  0.4850930000000 1.0
C      1  0.4887640000000  0.4544650000000  0.4804210000000 1.0
C      1  0.5630520000000  0.5178950000000  0.5072870000000 1.0
C      1  0.5965360000000  0.4607820000000  0.5263390000000 1.0
C      1  0.3962620000000  0.5280070000000  0.5650200000000 1.0
C      1  0.3900360000000  0.4556510000000  0.5172510000000 1.0
C      1  0.5322130000000  0.4359930000000  0.4922510000000 1.0
C      1  0.3974380000000  0.5032120000000  0.4696370000000 1.0
C      1  0.5207160000000  0.4923650000000  0.6180010000000 1.0
C      1  0.5662350000000  0.5473860000000  0.4342680000000 1.0
C      1  0.5539800000000  0.5903060000000  0.5097350000000 1.0
C      1  0.4602770000000  0.5885250000000  0.4530460000000 1.0
C      1  0.5096040000000  0.5480290000000  0.4141630000000 1.0
C      1  0.5143780000000  0.5548610000000  0.5160280000000 1.0
C      1  0.3809910000000  0.4641400000000  0.4933580000000 1.0
C      1  0.4546720000000  0.5826820000000  0.4801460000000 1.0
C      1  0.4644750000000  0.5436450000000  0.5226340000000 1.0
C      1  0.5375550000000  0.4921590000000  0.5956500000000 1.0
C      1  0.5362190000000  0.5877210000000  0.5554720000000 1.0
C      1  0.4990780000000  0.4951240000000  0.6333940000000 1.0
C      1  0.4635790000000  0.4076130000000  0.4460060000000 1.0
C      1  0.5343180000000  0.4506010000000  0.4663260000000 1.0
C      1  0.6111830000000  0.5099080000000  0.4530650000000 1.0
C      1  0.5590360000000  0.5719370000000  0.4503250000000 1.0
C      1  0.5433930000000  0.5057200000000  0.4658440000000 1.0
C      1  0.5666710000000  0.4974360000000  0.4267500000000 1.0
C      1  0.4706460000000  0.5333260000000  0.6436460000000 1.0
C      1  0.4898730000000  0.5122710000000  0.5427470000000 1.0
C      1  0.4765940000000  0.5229890000000  0.4801830000000 1.0
C      1  0.4244130000000  0.4781590000000  0.3772200000000 1.0
C      1  0.4400480000000  0.5093770000000  0.5536650000000 1.0
C      1  0.4947930000000  0.4251620000000  0.4149920000000 1.0
C      1  0.5556710000000  0.4971490000000  0.4903040000000 1.0
C      1  0.4847340000000  0.4483070000000  0.5390970000000 1.0
C      1  0.4684180000000  0.4382150000000  0.4124430000000 1.0
C      1  0.4802390000000  0.4283300000000  0.5581000000000 1.0
C      1  0.5897640000000  0.4570350000000  0.5540520000000 1.0
C      1  0.4157970000000  0.4447670000000  0.5205110000000 1.0
C      1  0.4678720000000  0.5529660000000  0.6235320000000 1.0
C      1  0.6083690000000  0.5230890000000  0.5494210000000 1.0
C      1  0.5468370000000  0.4925400000000  0.5490730000000 1.0
C      1  0.4333880000000  0.4756050000000  0.3528790000000 1.0
C      1  0.4863130000000  0.5636790000000  0.4202710000000 1.0
C      1  0.4220300000000  0.4257930000000  0.5006670000000 1.0
C      1  0.5427690000000  0.4290230000000  0.5568970000000 1.0
C      1  0.5099040000000  0.5928510000000  0.5554910000000 1.0
C      1  0.5156920000000  0.4980480000000  0.4709040000000 1.0
C      1  0.4933170000000  0.5455570000000  0.5757330000000 1.0
C      1  0.4705370000000  0.3654520000000  0.5012650000000 1.0
C      1  0.5598850000000  0.4566220000000  0.4549170000000 1.0
C      1  0.4738550000000  0.5053740000000  0.6401700000000 1.0
C      1  0.5293410000000  0.5031630000000  0.5703030000000 1.0
END
