TITL C-247195-3186-355 0.00530749906407894 125000 -304.204999240271 0 0 50 (C1) n - 1
REM
REM in /home/nfs/bkarasulu/CARBON/AIRSS/Generating-Clusters/LCBOP/Only-C1/SD-CG/FIRE-HFTN
REM
REM
REM
REM
REM
REM ./C.cell (11c1c37f851c82e70ff6c80c92926a4b)
REM AIRSS Version 0.9.1 bugfix July 2018 build 013d7b7c2542+ Fri, 06 Jul 2018 19:26:36 +0100
REM compiler GCC version 9.2.1 20190827 (Red Hat 9.2.1-1)
REM options -cpp -mtune=generic -march=x86-64 -g -O0 -fpre-include=/usr/include/finclude/math-vector-fortran.h
REM seed 763462519 -313785896 554152198 293841289 1634743507 -1155793423 52251835 -1125394852 -1393974943 -1857691467 909766286 -40515976 8128873 -208509288 -1013633830 -1541299541 -151306472 -891490494 2124431726 1817848736 1653021178 832592846 606925075 -1641944570 782126254 -1796800525 2069539199 1486162434 -1308214579 -723331231 -373486319 2020206525 139858082
REM
CELL 1.54180   50.00000   50.00000   50.00000   90.00000   90.00000   90.00000
LATT -1
SFAC C  
C      1  0.4496280000000  0.5072240000000  0.4883870000000 1.0
C      1  0.4596740000000  0.5207380000000  0.5381940000000 1.0
C      1  0.4672150000000  0.5258880000000  0.4758910000000 1.0
C      1  0.5123520000000  0.4428290000000  0.5338070000000 1.0
C      1  0.3982560000000  0.4551130000000  0.4866190000000 1.0
C      1  0.4985070000000  0.5848130000000  0.4870180000000 1.0
C      1  0.5267320000000  0.4635760000000  0.4274890000000 1.0
C      1  0.4901340000000  0.5584040000000  0.5367500000000 1.0
C      1  0.4927690000000  0.5155070000000  0.4689160000000 1.0
C      1  0.5451880000000  0.4622750000000  0.4473820000000 1.0
C      1  0.5160640000000  0.5658270000000  0.5268980000000 1.0
C      1  0.5544680000000  0.4746680000000  0.4983960000000 1.0
C      1  0.5007220000000  0.4665840000000  0.5388300000000 1.0
C      1  0.5042690000000  0.4958700000000  0.4858210000000 1.0
C      1  0.4626220000000  0.5535790000000  0.4774280000000 1.0
C      1  0.4477120000000  0.5099700000000  0.5165200000000 1.0
C      1  0.5394720000000  0.4659760000000  0.4747860000000 1.0
C      1  0.5107710000000  0.4692090000000  0.4784430000000 1.0
C      1  0.4693250000000  0.5714280000000  0.5218070000000 1.0
C      1  0.3788300000000  0.4387860000000  0.4942720000000 1.0
C      1  0.4772570000000  0.4266070000000  0.4809830000000 1.0
C      1  0.5588200000000  0.4749140000000  0.5681300000000 1.0
C      1  0.4839460000000  0.5327180000000  0.5477880000000 1.0
C      1  0.5395660000000  0.5629110000000  0.4563450000000 1.0
C      1  0.5432480000000  0.5644810000000  0.4842590000000 1.0
C      1  0.5179110000000  0.5023090000000  0.5098940000000 1.0
C      1  0.5685260000000  0.4648270000000  0.5451120000000 1.0
C      1  0.5479480000000  0.5345950000000  0.5623990000000 1.0
C      1  0.4599040000000  0.4072800000000  0.4831800000000 1.0
C      1  0.4554250000000  0.4785260000000  0.4486000000000 1.0
C      1  0.5285150000000  0.5156260000000  0.5703720000000 1.0
C      1  0.4754020000000  0.4727770000000  0.4316110000000 1.0
C      1  0.3597850000000  0.4226540000000  0.5018040000000 1.0
C      1  0.4181900000000  0.4708370000000  0.4790780000000 1.0
C      1  0.5468160000000  0.5015010000000  0.5071920000000 1.0
C      1  0.5046890000000  0.5140960000000  0.5543750000000 1.0
C      1  0.5367550000000  0.4370440000000  0.5236340000000 1.0
C      1  0.5639850000000  0.5327940000000  0.5408500000000 1.0
C      1  0.5218480000000  0.5746300000000  0.5001540000000 1.0
C      1  0.5404810000000  0.4913310000000  0.5791840000000 1.0
C      1  0.5616570000000  0.5465460000000  0.4955250000000 1.0
C      1  0.4408600000000  0.4854800000000  0.4720000000000 1.0
C      1  0.5064310000000  0.4937560000000  0.5344970000000 1.0
C      1  0.5611250000000  0.5252610000000  0.5138160000000 1.0
C      1  0.5577580000000  0.4560340000000  0.5203770000000 1.0
C      1  0.4933570000000  0.4475570000000  0.4789670000000 1.0
C      1  0.5247610000000  0.5459500000000  0.4417400000000 1.0
C      1  0.5070970000000  0.5267870000000  0.4476610000000 1.0
C      1  0.4728000000000  0.5742870000000  0.4935410000000 1.0
C      1  0.5004250000000  0.4676210000000  0.4232750000000 1.0
END
