TITL C-247198-3593-123 2.1876150513882e-06 125000 -425.328075003013 0 0 71 (C1) n - 1
REM
REM in /home/nfs/bkarasulu/CARBON/AIRSS/Generating-Clusters/LCBOP/Only-C1/SD-CG/FIRE-HFTN
REM
REM
REM
REM
REM
REM ./C.cell (11c1c37f851c82e70ff6c80c92926a4b)
REM AIRSS Version 0.9.1 bugfix July 2018 build 013d7b7c2542+ Fri, 06 Jul 2018 19:26:36 +0100
REM compiler GCC version 9.2.1 20190827 (Red Hat 9.2.1-1)
REM options -cpp -mtune=generic -march=x86-64 -g -O0 -fpre-include=/usr/include/finclude/math-vector-fortran.h
REM seed -434092817 633139563 801547658 -868560590 -261665071 -157993244 -2090215379 275766663 146653527 2112810576 -2073191458 -994826490 -269793189 1274406612 -437781490 1893285390 -1104414222 1363161355 -733710239 -1424267836 -1862157787 1003992413 1728799604 -111784999 1941550676 1098874617 2003751836 -1434034360 417214691 -805438292 -1754323566 1118784473 -1026933854
REM
CELL 1.54180   50.00000   50.00000   50.00000   90.00000   90.00000   90.00000
LATT -1
SFAC C  
C      1  0.5084890000000  0.5403760000000  0.4669340000000 1.0
C      1  0.5481250000000  0.4371900000000  0.5326010000000 1.0
C      1  0.4801450000000  0.5605920000000  0.5560640000000 1.0
C      1  0.5055550000000  0.4238040000000  0.4456510000000 1.0
C      1  0.5542840000000  0.5070290000000  0.5601630000000 1.0
C      1  0.4555520000000  0.4445370000000  0.5441070000000 1.0
C      1  0.5433330000000  0.5605670000000  0.4470660000000 1.0
C      1  0.5511460000000  0.4939500000000  0.5345780000000 1.0
C      1  0.4410430000000  0.5176750000000  0.4940900000000 1.0
C      1  0.4172340000000  0.6061650000000  0.5066730000000 1.0
C      1  0.5050980000000  0.4958840000000  0.5065620000000 1.0
C      1  0.5526870000000  0.5256280000000  0.4836000000000 1.0
C      1  0.5371710000000  0.5366520000000  0.4625270000000 1.0
C      1  0.4990920000000  0.5671930000000  0.4612580000000 1.0
C      1  0.5389530000000  0.4965450000000  0.5816210000000 1.0
C      1  0.4897100000000  0.4421130000000  0.4293900000000 1.0
C      1  0.4012680000000  0.6272940000000  0.5058920000000 1.0
C      1  0.5408840000000  0.5615690000000  0.5200360000000 1.0
C      1  0.5345770000000  0.4537440000000  0.5128590000000 1.0
C      1  0.5237460000000  0.4792890000000  0.5278210000000 1.0
C      1  0.4970430000000  0.4882110000000  0.4493360000000 1.0
C      1  0.4556950000000  0.5822140000000  0.4894100000000 1.0
C      1  0.4310460000000  0.5147990000000  0.5221560000000 1.0
C      1  0.5441200000000  0.4826270000000  0.4442000000000 1.0
C      1  0.5160940000000  0.4646970000000  0.5553240000000 1.0
C      1  0.4325140000000  0.4847250000000  0.5252140000000 1.0
C      1  0.4354170000000  0.4890520000000  0.4515270000000 1.0
C      1  0.4851240000000  0.4000550000000  0.4899480000000 1.0
C      1  0.5799940000000  0.4357360000000  0.4665530000000 1.0
C      1  0.4797450000000  0.4683640000000  0.4371330000000 1.0
C      1  0.4837290000000  0.4336930000000  0.4037750000000 1.0
C      1  0.4685000000000  0.5251140000000  0.4959470000000 1.0
C      1  0.5306750000000  0.4559610000000  0.4852950000000 1.0
C      1  0.5212330000000  0.6038690000000  0.4347320000000 1.0
C      1  0.4767440000000  0.4466860000000  0.4873530000000 1.0
C      1  0.4375030000000  0.5388690000000  0.5373030000000 1.0
C      1  0.5474630000000  0.4765490000000  0.4716120000000 1.0
C      1  0.4993410000000  0.4865730000000  0.4786760000000 1.0
C      1  0.5637130000000  0.5330610000000  0.5646170000000 1.0
C      1  0.5322450000000  0.5660980000000  0.5464290000000 1.0
C      1  0.4866950000000  0.5148520000000  0.5157230000000 1.0
C      1  0.4502580000000  0.4723970000000  0.5443000000000 1.0
C      1  0.4292680000000  0.5635420000000  0.5263650000000 1.0
C      1  0.5511530000000  0.5568970000000  0.5652650000000 1.0
C      1  0.5596790000000  0.4977530000000  0.4874520000000 1.0
C      1  0.5758000000000  0.4429210000000  0.5315650000000 1.0
C      1  0.5300980000000  0.4390260000000  0.5547960000000 1.0
C      1  0.4526450000000  0.4758220000000  0.4358060000000 1.0
C      1  0.5018930000000  0.4577220000000  0.4819990000000 1.0
C      1  0.5052020000000  0.5698170000000  0.5531730000000 1.0
C      1  0.4755270000000  0.4056300000000  0.5145470000000 1.0
C      1  0.4636380000000  0.5386810000000  0.5497350000000 1.0
C      1  0.4507380000000  0.4517070000000  0.4919190000000 1.0
C      1  0.4341040000000  0.5839140000000  0.5074860000000 1.0
C      1  0.5340020000000  0.4232550000000  0.4438920000000 1.0
C      1  0.5701020000000  0.4882730000000  0.5127970000000 1.0
C      1  0.5180310000000  0.4798600000000  0.5787640000000 1.0
C      1  0.4692520000000  0.4906190000000  0.5546740000000 1.0
C      1  0.4330430000000  0.4947730000000  0.4786410000000 1.0
C      1  0.4936670000000  0.4067340000000  0.4652400000000 1.0
C      1  0.5904920000000  0.4505140000000  0.4865780000000 1.0
C      1  0.5212500000000  0.5794560000000  0.4466020000000 1.0
C      1  0.4335460000000  0.4730860000000  0.4982010000000 1.0
C      1  0.4652130000000  0.4216830000000  0.5335980000000 1.0
C      1  0.5543810000000  0.5439360000000  0.5050580000000 1.0
C      1  0.4763010000000  0.5781340000000  0.4729300000000 1.0
C      1  0.4777760000000  0.5148510000000  0.5429110000000 1.0
C      1  0.3855620000000  0.6480870000000  0.5051190000000 1.0
C      1  0.5595250000000  0.4260210000000  0.4519790000000 1.0
C      1  0.5841970000000  0.4622800000000  0.5118520000000 1.0
C      1  0.5209350000000  0.4930070000000  0.4349980000000 1.0
END
