TITL C-247202-1916-151 -0.555162543560877 125000 -868.992921401319 0 0 139 (C1) n - 1
REM
REM in /home/nfs/bkarasulu/CARBON/AIRSS/Generating-Clusters/LCBOP/Only-C1/SD-CG/FIRE-HFTN
REM
REM
REM
REM
REM
REM ./C.cell (11c1c37f851c82e70ff6c80c92926a4b)
REM AIRSS Version 0.9.1 bugfix July 2018 build 013d7b7c2542+ Fri, 06 Jul 2018 19:26:36 +0100
REM compiler GCC version 9.2.1 20190827 (Red Hat 9.2.1-1)
REM options -cpp -mtune=generic -march=x86-64 -g -O0 -fpre-include=/usr/include/finclude/math-vector-fortran.h
REM seed -1600533767 -867957184 126915560 -2070427941 1640811401 1412635251 -37409518 -853956554 -910833032 1612302904 -764918502 1637223764 1166748693 -1573445078 -1641197512 -275078607 1665871881 1828561947 1719163943 1675391360 146177897 651110863 -939338833 1114301181 -1176313412 1628562250 701402275 -1374329564 -436169717 -571221222 -764449457 326040553 1069356041
REM
CELL 1.54180   50.00000   50.00000   50.00000   90.00000   90.00000   90.00000
LATT -1
SFAC C  
C      1  0.4840500000000  0.4978740000000  0.5013400000000 1.0
C      1  0.5220290000000  0.5733650000000  0.5878690000000 1.0
C      1  0.6032460000000  0.5124980000000  0.4675120000000 1.0
C      1  0.6177530000000  0.4257780000000  0.4981820000000 1.0
C      1  0.5432410000000  0.5182810000000  0.4538200000000 1.0
C      1  0.5497260000000  0.4963130000000  0.4729430000000 1.0
C      1  0.4660740000000  0.5223800000000  0.5931570000000 1.0
C      1  0.4666630000000  0.5477430000000  0.4202060000000 1.0
C      1  0.5455370000000  0.4432470000000  0.4749180000000 1.0
C      1  0.6500480000000  0.4985960000000  0.5190300000000 1.0
C      1  0.4304190000000  0.5278310000000  0.5281270000000 1.0
C      1  0.4355340000000  0.4516250000000  0.4720860000000 1.0
C      1  0.4575150000000  0.4421370000000  0.5760640000000 1.0
C      1  0.6446910000000  0.4283270000000  0.4961020000000 1.0
C      1  0.5918320000000  0.5383920000000  0.4634740000000 1.0
C      1  0.3924020000000  0.5096100000000  0.4853590000000 1.0
C      1  0.4150280000000  0.5663840000000  0.4457270000000 1.0
C      1  0.5404910000000  0.6033940000000  0.4924100000000 1.0
C      1  0.5293970000000  0.5283080000000  0.5688020000000 1.0
C      1  0.5579350000000  0.4886470000000  0.5214830000000 1.0
C      1  0.4778790000000  0.3968720000000  0.5389440000000 1.0
C      1  0.4373550000000  0.4999320000000  0.4260590000000 1.0
C      1  0.4013080000000  0.5176290000000  0.4582650000000 1.0
C      1  0.5365790000000  0.4190110000000  0.4341600000000 1.0
C      1  0.4190790000000  0.5503460000000  0.5676990000000 1.0
C      1  0.4508510000000  0.4021010000000  0.5494790000000 1.0
C      1  0.4046100000000  0.4514290000000  0.5270380000000 1.0
C      1  0.6101370000000  0.4947060000000  0.4468870000000 1.0
C      1  0.4834910000000  0.5087600000000  0.6375230000000 1.0
C      1  0.4970710000000  0.4418430000000  0.4606660000000 1.0
C      1  0.5045950000000  0.4423970000000  0.5203390000000 1.0
C      1  0.4695070000000  0.5037350000000  0.6147100000000 1.0
C      1  0.5594260000000  0.6059250000000  0.4709220000000 1.0
C      1  0.6563010000000  0.4526610000000  0.4992160000000 1.0
C      1  0.4668510000000  0.4525010000000  0.5515390000000 1.0
C      1  0.3962080000000  0.5558550000000  0.5027750000000 1.0
C      1  0.4521080000000  0.5415020000000  0.4848990000000 1.0
C      1  0.5190220000000  0.4182390000000  0.5277130000000 1.0
C      1  0.5429890000000  0.4857990000000  0.4052220000000 1.0
C      1  0.5000810000000  0.4523450000000  0.5907820000000 1.0
C      1  0.4453670000000  0.5712110000000  0.4849710000000 1.0
C      1  0.4145750000000  0.4710690000000  0.4614620000000 1.0
C      1  0.5077990000000  0.5513850000000  0.5035570000000 1.0
C      1  0.5604460000000  0.5237260000000  0.4310330000000 1.0
C      1  0.4708710000000  0.5300150000000  0.4685110000000 1.0
C      1  0.5468580000000  0.5821170000000  0.5125450000000 1.0
C      1  0.5250920000000  0.4240340000000  0.4612010000000 1.0
C      1  0.5319550000000  0.5417930000000  0.5427680000000 1.0
C      1  0.5060750000000  0.4247980000000  0.5767980000000 1.0
C      1  0.4167930000000  0.4961800000000  0.4456530000000 1.0
C      1  0.4734570000000  0.5469960000000  0.5810380000000 1.0
C      1  0.4485820000000  0.4250420000000  0.4767460000000 1.0
C      1  0.5970230000000  0.5008950000000  0.4945940000000 1.0
C      1  0.6026010000000  0.4750720000000  0.4304400000000 1.0
C      1  0.5106050000000  0.4521570000000  0.4122530000000 1.0
C      1  0.5638570000000  0.4639470000000  0.5307770000000 1.0
C      1  0.4404330000000  0.5751930000000  0.4547820000000 1.0
C      1  0.5145340000000  0.4776340000000  0.5848430000000 1.0
C      1  0.4634390000000  0.4538580000000  0.4216330000000 1.0
C      1  0.6003770000000  0.4476100000000  0.5035200000000 1.0
C      1  0.5361760000000  0.5306980000000  0.3899760000000 1.0
C      1  0.4178610000000  0.5722810000000  0.4986790000000 1.0
C      1  0.5155450000000  0.5311060000000  0.5215710000000 1.0
C      1  0.5667900000000  0.4984570000000  0.4963200000000 1.0
C      1  0.4488640000000  0.4758040000000  0.4168540000000 1.0
C      1  0.5134690000000  0.6072300000000  0.4839710000000 1.0
C      1  0.4895300000000  0.4512210000000  0.4989270000000 1.0
C      1  0.5099530000000  0.4696720000000  0.4632000000000 1.0
C      1  0.4905620000000  0.5933440000000  0.4744440000000 1.0
C      1  0.4556910000000  0.4783300000000  0.6092130000000 1.0
C      1  0.4506310000000  0.5084310000000  0.5725840000000 1.0
C      1  0.5083500000000  0.5561410000000  0.4412100000000 1.0
C      1  0.6079890000000  0.5195850000000  0.5161610000000 1.0
C      1  0.4656990000000  0.4976080000000  0.5520820000000 1.0
C      1  0.4996950000000  0.5831930000000  0.5721050000000 1.0
C      1  0.5836370000000  0.4612640000000  0.4176760000000 1.0
C      1  0.3997030000000  0.4814080000000  0.4868360000000 1.0
C      1  0.5567930000000  0.4605090000000  0.4100950000000 1.0
C      1  0.4748010000000  0.5756830000000  0.5858220000000 1.0
C      1  0.5031790000000  0.4080820000000  0.5507700000000 1.0
C      1  0.4931950000000  0.5026920000000  0.5494770000000 1.0
C      1  0.4674210000000  0.4729940000000  0.5075040000000 1.0
C      1  0.4888540000000  0.4447400000000  0.4294060000000 1.0
C      1  0.4707260000000  0.4559130000000  0.5978460000000 1.0
C      1  0.6121440000000  0.4740220000000  0.5000280000000 1.0
C      1  0.4229190000000  0.5027690000000  0.5792490000000 1.0
C      1  0.6333980000000  0.5189380000000  0.5255210000000 1.0
C      1  0.5256210000000  0.5410260000000  0.4585710000000 1.0
C      1  0.4008080000000  0.5437000000000  0.4480170000000 1.0
C      1  0.4943680000000  0.4513790000000  0.5447200000000 1.0
C      1  0.4897400000000  0.5775480000000  0.4506180000000 1.0
C      1  0.5794340000000  0.5520390000000  0.4852830000000 1.0
C      1  0.5367630000000  0.4395810000000  0.4147500000000 1.0
C      1  0.4146120000000  0.4700290000000  0.5088230000000 1.0
C      1  0.5139650000000  0.5026830000000  0.5695720000000 1.0
C      1  0.4957420000000  0.5464190000000  0.4165590000000 1.0
C      1  0.4272480000000  0.4830370000000  0.6005430000000 1.0
C      1  0.4738290000000  0.3963090000000  0.5090970000000 1.0
C      1  0.4904300000000  0.4000530000000  0.4858460000000 1.0
C      1  0.4249620000000  0.5720580000000  0.5850530000000 1.0
C      1  0.5145270000000  0.4806900000000  0.4088100000000 1.0
C      1  0.4411580000000  0.5246540000000  0.5035120000000 1.0
C      1  0.5512330000000  0.5130350000000  0.4062350000000 1.0
C      1  0.5353960000000  0.4099350000000  0.5063380000000 1.0
C      1  0.4999980000000  0.5084760000000  0.5227820000000 1.0
C      1  0.4030310000000  0.5201130000000  0.5345770000000 1.0
C      1  0.4965050000000  0.4922450000000  0.4540320000000 1.0
C      1  0.4588220000000  0.4751400000000  0.5372600000000 1.0
C      1  0.6411770000000  0.4758310000000  0.5049560000000 1.0
C      1  0.5543360000000  0.5600050000000  0.4947490000000 1.0
C      1  0.5119210000000  0.5415160000000  0.3943320000000 1.0
C      1  0.4484320000000  0.5853250000000  0.5905620000000 1.0
C      1  0.5748590000000  0.5720320000000  0.4341390000000 1.0
C      1  0.5046800000000  0.5815480000000  0.5423660000000 1.0
C      1  0.5793780000000  0.5442480000000  0.4380530000000 1.0
C      1  0.4908360000000  0.5726670000000  0.5160310000000 1.0
C      1  0.4327100000000  0.4092040000000  0.5276310000000 1.0
C      1  0.5552660000000  0.4297370000000  0.4985550000000 1.0
C      1  0.4491970000000  0.5252020000000  0.4191930000000 1.0
C      1  0.4105240000000  0.4257080000000  0.5317810000000 1.0
C      1  0.4764990000000  0.4200260000000  0.4686270000000 1.0
C      1  0.5189470000000  0.4029110000000  0.4829870000000 1.0
C      1  0.4660590000000  0.5473960000000  0.5531210000000 1.0
C      1  0.4391730000000  0.5472780000000  0.5462460000000 1.0
C      1  0.4479200000000  0.4158310000000  0.5740390000000 1.0
C      1  0.5374760000000  0.4704350000000  0.4703180000000 1.0
C      1  0.5687980000000  0.5940820000000  0.4485410000000 1.0
C      1  0.4723320000000  0.5837340000000  0.4956930000000 1.0
C      1  0.4466940000000  0.4085170000000  0.5022260000000 1.0
C      1  0.4635220000000  0.5708480000000  0.4386690000000 1.0
C      1  0.4052370000000  0.5225520000000  0.5653570000000 1.0
C      1  0.5286730000000  0.5519140000000  0.4840490000000 1.0
C      1  0.5742700000000  0.4437160000000  0.5138610000000 1.0
C      1  0.5334260000000  0.5720250000000  0.5369550000000 1.0
C      1  0.3902940000000  0.5277120000000  0.5085570000000 1.0
C      1  0.5308900000000  0.5475470000000  0.5897660000000 1.0
C      1  0.4411250000000  0.4655740000000  0.4969490000000 1.0
C      1  0.4992770000000  0.4967110000000  0.4263550000000 1.0
C      1  0.4845020000000  0.5068570000000  0.4742410000000 1.0
END
