TITL C-247196-3112-468 -398.430551365527 125000 -890.896909883014 0 0 146 (C1) n - 1
REM
REM in /home/nfs/bkarasulu/CARBON/AIRSS/Generating-Clusters/LCBOP/Only-C1/SD-CG/FIRE-HFTN
REM
REM
REM
REM
REM
REM ./C.cell (11c1c37f851c82e70ff6c80c92926a4b)
REM AIRSS Version 0.9.1 bugfix July 2018 build 013d7b7c2542+ Fri, 06 Jul 2018 19:26:36 +0100
REM compiler GCC version 9.2.1 20190827 (Red Hat 9.2.1-1)
REM options -cpp -mtune=generic -march=x86-64 -g -O0 -fpre-include=/usr/include/finclude/math-vector-fortran.h
REM seed -2066580253 -627173314 1645109471 -1374686860 1297001355 1988092300 601054746 -1519745915 1199747725 -2117483161 -263389116 247559938 -293391564 1028858524 594100880 2136440579 908049230 -852490618 -1085502121 406118543 -1068691017 -1997383784 2136157694 -2115417487 87903633 -625448317 841202342 1424846995 292227516 -2063542802 68989660 1060356299 1253648592
REM
CELL 1.54180   50.00000   50.00000   50.00000   90.00000   90.00000   90.00000
LATT -1
SFAC C  
C      1  0.4638360000000  0.3812000000000  0.5231600000000 1.0
C      1  0.4068790000000  0.4525070000000  0.5504370000000 1.0
C      1  0.5045370000000  0.4361090000000  0.3641350000000 1.0
C      1  0.6334570000000  0.5341520000000  0.4882220000000 1.0
C      1  0.6045570000000  0.5196160000000  0.4531540000000 1.0
C      1  0.5635620000000  0.4618930000000  0.5217200000000 1.0
C      1  0.4518890000000  0.5360690000000  0.5027150000000 1.0
C      1  0.5332050000000  0.5234870000000  0.4412610000000 1.0
C      1  0.4831340000000  0.4273570000000  0.4557120000000 1.0
C      1  0.5224370000000  0.5211530000000  0.4674380000000 1.0
C      1  0.6145810000000  0.4814940000000  0.4550990000000 1.0
C      1  0.4307550000000  0.4270540000000  0.4582730000000 1.0
C      1  0.4793240000000  0.4360430000000  0.6027250000000 1.0
C      1  0.4568130000000  0.4136140000000  0.4608060000000 1.0
C      1  0.5541440000000  0.4501430000000  0.4467020000000 1.0
C      1  0.4776880000000  0.5159520000000  0.4542950000000 1.0
C      1  0.5500090000000  0.4697850000000  0.4983580000000 1.0
C      1  0.5218430000000  0.4044440000000  0.4818420000000 1.0
C      1  0.4984130000000  0.5687460000000  0.5189410000000 1.0
C      1  0.5079110000000  0.4346350000000  0.5960250000000 1.0
C      1  0.5106930000000  0.4860700000000  0.5941930000000 1.0
C      1  0.4627980000000  0.5180200000000  0.4323970000000 1.0
C      1  0.4418770000000  0.4744650000000  0.4253070000000 1.0
C      1  0.4872460000000  0.4838190000000  0.6131450000000 1.0
C      1  0.4803170000000  0.5038760000000  0.5565930000000 1.0
C      1  0.5552880000000  0.5225740000000  0.5934050000000 1.0
C      1  0.4539210000000  0.4658170000000  0.4492160000000 1.0
C      1  0.5814870000000  0.5765080000000  0.4137190000000 1.0
C      1  0.4008550000000  0.5660480000000  0.5027630000000 1.0
C      1  0.5452420000000  0.4570590000000  0.5775500000000 1.0
C      1  0.5241450000000  0.6243520000000  0.5152100000000 1.0
C      1  0.4549410000000  0.3903730000000  0.4770370000000 1.0
C      1  0.5475080000000  0.5059270000000  0.5413120000000 1.0
C      1  0.5232840000000  0.4335730000000  0.4131590000000 1.0
C      1  0.4876420000000  0.5485430000000  0.5371190000000 1.0
C      1  0.4234670000000  0.6185520000000  0.5724850000000 1.0
C      1  0.5430020000000  0.4105940000000  0.5028680000000 1.0
C      1  0.4607830000000  0.5444100000000  0.5281090000000 1.0
C      1  0.6258200000000  0.5587550000000  0.4971560000000 1.0
C      1  0.5583640000000  0.5211480000000  0.5199920000000 1.0
C      1  0.4210810000000  0.5114280000000  0.4026670000000 1.0
C      1  0.5492900000000  0.5007060000000  0.4352030000000 1.0
C      1  0.5928920000000  0.4804480000000  0.5534430000000 1.0
C      1  0.5019270000000  0.4440140000000  0.4982620000000 1.0
C      1  0.5249120000000  0.5478310000000  0.4287890000000 1.0
C      1  0.4305580000000  0.3831900000000  0.4915800000000 1.0
C      1  0.4161960000000  0.4493780000000  0.4742250000000 1.0
C      1  0.5659590000000  0.4855310000000  0.4795690000000 1.0
C      1  0.4722410000000  0.4607640000000  0.6145640000000 1.0
C      1  0.4850750000000  0.4024860000000  0.5669160000000 1.0
C      1  0.4395320000000  0.4695490000000  0.4755180000000 1.0
C      1  0.4080230000000  0.4383900000000  0.5008550000000 1.0
C      1  0.4875810000000  0.6364970000000  0.5452940000000 1.0
C      1  0.5262500000000  0.5173140000000  0.5576780000000 1.0
C      1  0.4967210000000  0.5003690000000  0.5013820000000 1.0
C      1  0.6195320000000  0.4715910000000  0.4807280000000 1.0
C      1  0.4827730000000  0.5962170000000  0.5170640000000 1.0
C      1  0.4210600000000  0.5857940000000  0.5080140000000 1.0
C      1  0.4404210000000  0.5689370000000  0.4680170000000 1.0
C      1  0.4927610000000  0.6250690000000  0.4486830000000 1.0
C      1  0.5283010000000  0.5404740000000  0.4874600000000 1.0
C      1  0.4669880000000  0.4154770000000  0.5859710000000 1.0
C      1  0.4802640000000  0.4559550000000  0.4513080000000 1.0
C      1  0.4837750000000  0.6035200000000  0.4645520000000 1.0
C      1  0.4866660000000  0.5578170000000  0.4741940000000 1.0
C      1  0.4681940000000  0.6018540000000  0.4893350000000 1.0
C      1  0.4437220000000  0.6361990000000  0.5725710000000 1.0
C      1  0.5226250000000  0.4633760000000  0.5002150000000 1.0
C      1  0.3928540000000  0.4687300000000  0.4671390000000 1.0
C      1  0.5773360000000  0.6057160000000  0.3702170000000 1.0
C      1  0.5580200000000  0.4789410000000  0.4518070000000 1.0
C      1  0.5122810000000  0.4199400000000  0.4588480000000 1.0
C      1  0.5118610000000  0.4703230000000  0.5449970000000 1.0
C      1  0.5274260000000  0.4232330000000  0.5512550000000 1.0
C      1  0.6073200000000  0.4462190000000  0.5253160000000 1.0
C      1  0.3899050000000  0.5430460000000  0.4935060000000 1.0
C      1  0.6164280000000  0.4710940000000  0.5103220000000 1.0
C      1  0.4966220000000  0.4823070000000  0.5658260000000 1.0
C      1  0.5108810000000  0.4154260000000  0.5733830000000 1.0
C      1  0.4081640000000  0.4865860000000  0.3955720000000 1.0
C      1  0.4843560000000  0.3882290000000  0.5422070000000 1.0
C      1  0.4412960000000  0.5104240000000  0.5015950000000 1.0
C      1  0.5300490000000  0.4349390000000  0.4404930000000 1.0
C      1  0.4314420000000  0.4968450000000  0.5634270000000 1.0
C      1  0.5752290000000  0.5358660000000  0.5800680000000 1.0
C      1  0.6062040000000  0.4545000000000  0.5537500000000 1.0
C      1  0.4041690000000  0.4400230000000  0.5271010000000 1.0
C      1  0.4550410000000  0.4658540000000  0.5026110000000 1.0
C      1  0.4675610000000  0.6423350000000  0.5620420000000 1.0
C      1  0.4122300000000  0.5376070000000  0.4052470000000 1.0
C      1  0.4404510000000  0.5908460000000  0.4867770000000 1.0
C      1  0.4753760000000  0.3831350000000  0.4955190000000 1.0
C      1  0.5087790000000  0.6213010000000  0.4269670000000 1.0
C      1  0.4215480000000  0.5205860000000  0.5744380000000 1.0
C      1  0.5799220000000  0.5913050000000  0.3917860000000 1.0
C      1  0.4509830000000  0.4897230000000  0.5194270000000 1.0
C      1  0.4258260000000  0.5676360000000  0.4445640000000 1.0
C      1  0.5089490000000  0.3884850000000  0.5256490000000 1.0
C      1  0.4989260000000  0.5260940000000  0.5507770000000 1.0
C      1  0.5815830000000  0.4181460000000  0.4742090000000 1.0
C      1  0.5113760000000  0.5727530000000  0.4330580000000 1.0
C      1  0.4164650000000  0.4731410000000  0.5642710000000 1.0
C      1  0.5301300000000  0.5101270000000  0.5865320000000 1.0
C      1  0.5175830000000  0.5967580000000  0.4190610000000 1.0
C      1  0.5537530000000  0.5401000000000  0.4985600000000 1.0
C      1  0.4314460000000  0.4983220000000  0.4782150000000 1.0
C      1  0.5066940000000  0.5568690000000  0.4944170000000 1.0
C      1  0.5806250000000  0.4389590000000  0.5175470000000 1.0
C      1  0.4307640000000  0.5915650000000  0.5340600000000 1.0
C      1  0.5818410000000  0.5607720000000  0.4350240000000 1.0
C      1  0.4546470000000  0.4967950000000  0.5467610000000 1.0
C      1  0.5883540000000  0.5042740000000  0.4905680000000 1.0
C      1  0.5989170000000  0.5588230000000  0.5065640000000 1.0
C      1  0.4996730000000  0.4755380000000  0.4579350000000 1.0
C      1  0.4202020000000  0.4652560000000  0.4085950000000 1.0
C      1  0.5646820000000  0.4813020000000  0.5441280000000 1.0
C      1  0.5322950000000  0.4508790000000  0.5526040000000 1.0
C      1  0.5031480000000  0.3873410000000  0.4966580000000 1.0
C      1  0.5762490000000  0.4333930000000  0.4527420000000 1.0
C      1  0.5142830000000  0.4345560000000  0.3882630000000 1.0
C      1  0.5309400000000  0.4062700000000  0.5293170000000 1.0
C      1  0.4439950000000  0.5030190000000  0.4186900000000 1.0
C      1  0.4149860000000  0.5579650000000  0.4222930000000 1.0
C      1  0.5700440000000  0.4192720000000  0.4998770000000 1.0
C      1  0.5780360000000  0.5514880000000  0.4857350000000 1.0
C      1  0.4988830000000  0.5028110000000  0.4710640000000 1.0
C      1  0.4353310000000  0.3788060000000  0.5198820000000 1.0
C      1  0.4118120000000  0.5452430000000  0.5766600000000 1.0
C      1  0.4168570000000  0.3735270000000  0.5389700000000 1.0
C      1  0.4085620000000  0.5712050000000  0.5716330000000 1.0
C      1  0.4756530000000  0.4468500000000  0.5044300000000 1.0
C      1  0.6064150000000  0.4934460000000  0.5302950000000 1.0
C      1  0.4588260000000  0.5938660000000  0.5354180000000 1.0
C      1  0.4175090000000  0.5944960000000  0.5589820000000 1.0
C      1  0.4925480000000  0.5773170000000  0.4547540000000 1.0
C      1  0.4594170000000  0.5505180000000  0.4791920000000 1.0
C      1  0.5866270000000  0.5434460000000  0.4563570000000 1.0
C      1  0.5248630000000  0.4586160000000  0.5973320000000 1.0
C      1  0.5099100000000  0.4818620000000  0.5186750000000 1.0
C      1  0.6126570000000  0.5169970000000  0.4798280000000 1.0
C      1  0.5882700000000  0.5148570000000  0.5190660000000 1.0
C      1  0.5895410000000  0.5446700000000  0.5585580000000 1.0
C      1  0.5967650000000  0.5421690000000  0.5308540000000 1.0
C      1  0.3836350000000  0.5188820000000  0.4829690000000 1.0
C      1  0.3834340000000  0.4935640000000  0.4731910000000 1.0
C      1  0.4993600000000  0.6197680000000  0.5257600000000 1.0
END
