TITL C-247197-3123-17 0.0010003143135167 125000 -515.320180667595 0 0 87 (C1) n - 1
REM
REM in /home/nfs/bkarasulu/CARBON/AIRSS/Generating-Clusters/LCBOP/Only-C1/SD-CG/FIRE-HFTN
REM
REM
REM
REM
REM
REM ./C.cell (11c1c37f851c82e70ff6c80c92926a4b)
REM AIRSS Version 0.9.1 bugfix July 2018 build 013d7b7c2542+ Fri, 06 Jul 2018 19:26:36 +0100
REM compiler GCC version 9.2.1 20190827 (Red Hat 9.2.1-1)
REM options -cpp -mtune=generic -march=x86-64 -g -O0 -fpre-include=/usr/include/finclude/math-vector-fortran.h
REM seed 1676218632 823051649 -1245265343 -365372990 -1476913062 1895972364 956577412 -123108255 296206341 -1567565926 818462065 -741809274 -325190272 -1769340419 -1408150928 1423796550 -913811657 551335604 -48917109 1660185346 -1242524326 -1709876870 -1930107121 -1445484133 2069463902 285935415 230176086 -665315585 -1382033705 183963425 -752616776 -230905838 -1394540147
REM
CELL 1.54180   50.00000   50.00000   50.00000   90.00000   90.00000   90.00000
LATT -1
SFAC C  
C      1  0.5092620000000  0.4310450000000  0.4611570000000 1.0
C      1  0.4694680000000  0.5895270000000  0.4981670000000 1.0
C      1  0.4964210000000  0.5489520000000  0.4390420000000 1.0
C      1  0.4365860000000  0.4495090000000  0.4809340000000 1.0
C      1  0.5241350000000  0.4537470000000  0.4495000000000 1.0
C      1  0.5960590000000  0.4710180000000  0.5362110000000 1.0
C      1  0.5351750000000  0.5603700000000  0.4634610000000 1.0
C      1  0.4959770000000  0.5899990000000  0.4630950000000 1.0
C      1  0.5743090000000  0.4725310000000  0.4599830000000 1.0
C      1  0.4817930000000  0.4268340000000  0.4705300000000 1.0
C      1  0.4182780000000  0.4428400000000  0.5280510000000 1.0
C      1  0.5110030000000  0.5704720000000  0.4504410000000 1.0
C      1  0.4689240000000  0.5847400000000  0.5257390000000 1.0
C      1  0.5895840000000  0.5121160000000  0.5832620000000 1.0
C      1  0.4705260000000  0.5316990000000  0.5991740000000 1.0
C      1  0.4762720000000  0.5412460000000  0.5722560000000 1.0
C      1  0.5160150000000  0.5842790000000  0.5074550000000 1.0
C      1  0.4274590000000  0.5294900000000  0.3706170000000 1.0
C      1  0.4898300000000  0.5228870000000  0.5144880000000 1.0
C      1  0.4297910000000  0.5057360000000  0.4922550000000 1.0
C      1  0.4982160000000  0.5086800000000  0.4700390000000 1.0
C      1  0.5514970000000  0.4883870000000  0.3975020000000 1.0
C      1  0.4913010000000  0.4562820000000  0.5152630000000 1.0
C      1  0.4801710000000  0.4866720000000  0.4722150000000 1.0
C      1  0.5128610000000  0.5023620000000  0.5505830000000 1.0
C      1  0.4847870000000  0.5330530000000  0.4597230000000 1.0
C      1  0.5096390000000  0.5363010000000  0.4179330000000 1.0
C      1  0.4416270000000  0.5303550000000  0.5357800000000 1.0
C      1  0.4238910000000  0.5364810000000  0.3457560000000 1.0
C      1  0.4951610000000  0.5770460000000  0.5357830000000 1.0
C      1  0.5332150000000  0.5228900000000  0.4260820000000 1.0
C      1  0.5360780000000  0.4633390000000  0.5092130000000 1.0
C      1  0.4576780000000  0.4213100000000  0.5156950000000 1.0
C      1  0.5355900000000  0.5037630000000  0.5331860000000 1.0
C      1  0.5164820000000  0.4475210000000  0.5187500000000 1.0
C      1  0.5625990000000  0.5077030000000  0.5411160000000 1.0
C      1  0.4037850000000  0.5568820000000  0.5510680000000 1.0
C      1  0.4605440000000  0.5449740000000  0.4715540000000 1.0
C      1  0.4451840000000  0.5782020000000  0.5385220000000 1.0
C      1  0.4933390000000  0.5606760000000  0.5591980000000 1.0
C      1  0.5858160000000  0.5005320000000  0.4982660000000 1.0
C      1  0.4311560000000  0.5224060000000  0.3958890000000 1.0
C      1  0.4385650000000  0.5263350000000  0.4717480000000 1.0
C      1  0.4619910000000  0.5726020000000  0.4773410000000 1.0
C      1  0.4422900000000  0.5098190000000  0.4471510000000 1.0
C      1  0.4637780000000  0.5192710000000  0.5537620000000 1.0
C      1  0.4965910000000  0.5971240000000  0.4899450000000 1.0
C      1  0.5346170000000  0.4951990000000  0.4180860000000 1.0
C      1  0.4354630000000  0.4772740000000  0.5568480000000 1.0
C      1  0.5979540000000  0.4650480000000  0.4484990000000 1.0
C      1  0.5704860000000  0.5192030000000  0.5655790000000 1.0
C      1  0.5318350000000  0.4913010000000  0.5076590000000 1.0
C      1  0.4347440000000  0.4783540000000  0.4796090000000 1.0
C      1  0.4353920000000  0.5155790000000  0.4211250000000 1.0
C      1  0.4521030000000  0.4961810000000  0.5710490000000 1.0
C      1  0.5272290000000  0.4107040000000  0.4702180000000 1.0
C      1  0.4564650000000  0.4379870000000  0.4626150000000 1.0
C      1  0.4547980000000  0.4865790000000  0.4586540000000 1.0
C      1  0.5443360000000  0.5342880000000  0.4512070000000 1.0
C      1  0.5719900000000  0.4973980000000  0.4739800000000 1.0
C      1  0.4587380000000  0.4310270000000  0.5436040000000 1.0
C      1  0.5828810000000  0.4941690000000  0.5254730000000 1.0
C      1  0.5514300000000  0.4560580000000  0.4582380000000 1.0
C      1  0.4294600000000  0.5553650000000  0.5419010000000 1.0
C      1  0.4881160000000  0.5105910000000  0.5391240000000 1.0
C      1  0.6071210000000  0.4917000000000  0.5810790000000 1.0
C      1  0.4328690000000  0.4343600000000  0.5047580000000 1.0
C      1  0.4180990000000  0.4906410000000  0.5379730000000 1.0
C      1  0.4766660000000  0.5449560000000  0.6220940000000 1.0
C      1  0.5846610000000  0.3776680000000  0.5031660000000 1.0
C      1  0.4573780000000  0.5059850000000  0.5977920000000 1.0
C      1  0.5827090000000  0.4249130000000  0.5111620000000 1.0
C      1  0.5150400000000  0.4914960000000  0.5761110000000 1.0
C      1  0.4772730000000  0.4138690000000  0.4963760000000 1.0
C      1  0.5486010000000  0.4028080000000  0.4840260000000 1.0
C      1  0.5366350000000  0.5704090000000  0.4914970000000 1.0
C      1  0.5925320000000  0.4460480000000  0.5240040000000 1.0
C      1  0.5015980000000  0.5424400000000  0.5025310000000 1.0
C      1  0.5489240000000  0.5134610000000  0.4697250000000 1.0
C      1  0.4276650000000  0.5104920000000  0.5202860000000 1.0
C      1  0.4369840000000  0.4495450000000  0.5501120000000 1.0
C      1  0.5196350000000  0.4800230000000  0.5990550000000 1.0
C      1  0.5250710000000  0.5046240000000  0.4829950000000 1.0
C      1  0.5189270000000  0.4743860000000  0.4304680000000 1.0
C      1  0.4812000000000  0.4719900000000  0.4962360000000 1.0
C      1  0.6096340000000  0.4741830000000  0.5607410000000 1.0
C      1  0.5720420000000  0.4016910000000  0.4994670000000 1.0
END
