TITL C-247199-3331-235 7.10055957035315e-08 125000 -1054.09109883204 0 0 168 (C1) n - 1
REM
REM in /home/nfs/bkarasulu/CARBON/AIRSS/Generating-Clusters/LCBOP/Only-C1/SD-CG/FIRE-HFTN
REM
REM
REM
REM
REM
REM ./C.cell (11c1c37f851c82e70ff6c80c92926a4b)
REM AIRSS Version 0.9.1 bugfix July 2018 build 013d7b7c2542+ Fri, 06 Jul 2018 19:26:36 +0100
REM compiler GCC version 9.2.1 20190827 (Red Hat 9.2.1-1)
REM options -cpp -mtune=generic -march=x86-64 -g -O0 -fpre-include=/usr/include/finclude/math-vector-fortran.h
REM seed 25725320 -440595487 -218100837 1693191300 2037083789 -1027061205 -1785212448 -1154595247 732541468 1890491133 -901305243 -992779614 456771564 -1076903241 1413748298 -307094962 -1994597865 273026638 1481368521 1353085602 -1031546853 1383804476 -945357538 -366104171 718399931 310819105 1081181358 1763433996 1575661839 -774943141 -793002135 181396858 1083721548
REM
CELL 1.54180   50.00000   50.00000   50.00000   90.00000   90.00000   90.00000
LATT -1
SFAC C  
C      1  0.5552530000000  0.4178820000000  0.4441960000000 1.0
C      1  0.6040410000000  0.5355720000000  0.4216250000000 1.0
C      1  0.4877860000000  0.4591780000000  0.6052380000000 1.0
C      1  0.4282350000000  0.5155800000000  0.6177810000000 1.0
C      1  0.5090970000000  0.4110860000000  0.4275980000000 1.0
C      1  0.5186790000000  0.5884710000000  0.5415200000000 1.0
C      1  0.4878060000000  0.4438840000000  0.5816860000000 1.0
C      1  0.4522580000000  0.5180780000000  0.4123950000000 1.0
C      1  0.4530520000000  0.5180390000000  0.6289650000000 1.0
C      1  0.5396140000000  0.4099580000000  0.5540640000000 1.0
C      1  0.4326890000000  0.6001760000000  0.4997050000000 1.0
C      1  0.5798710000000  0.5842400000000  0.4961820000000 1.0
C      1  0.5275400000000  0.4993710000000  0.5355090000000 1.0
C      1  0.5004700000000  0.5049300000000  0.6077320000000 1.0
C      1  0.5655390000000  0.5310720000000  0.4894820000000 1.0
C      1  0.3812470000000  0.5189240000000  0.4618600000000 1.0
C      1  0.4373590000000  0.5059740000000  0.5709620000000 1.0
C      1  0.4902940000000  0.4316600000000  0.4972580000000 1.0
C      1  0.3900340000000  0.4814780000000  0.5595520000000 1.0
C      1  0.3884370000000  0.4364320000000  0.4909820000000 1.0
C      1  0.5883100000000  0.4577040000000  0.5360110000000 1.0
C      1  0.5839380000000  0.5108850000000  0.5001210000000 1.0
C      1  0.5782510000000  0.4594380000000  0.6074100000000 1.0
C      1  0.5447010000000  0.4801970000000  0.5476780000000 1.0
C      1  0.5346530000000  0.4638400000000  0.5934940000000 1.0
C      1  0.3870110000000  0.5417790000000  0.4762070000000 1.0
C      1  0.4975580000000  0.4614310000000  0.3894800000000 1.0
C      1  0.4837130000000  0.3766860000000  0.4422940000000 1.0
C      1  0.3934910000000  0.5298180000000  0.5447700000000 1.0
C      1  0.4474830000000  0.4474650000000  0.4917410000000 1.0
C      1  0.4742630000000  0.5737470000000  0.5577150000000 1.0
C      1  0.5479610000000  0.5856310000000  0.5378500000000 1.0
C      1  0.4291420000000  0.5640530000000  0.5306700000000 1.0
C      1  0.5869440000000  0.4976260000000  0.4554240000000 1.0
C      1  0.4689900000000  0.3927960000000  0.4841860000000 1.0
C      1  0.3826930000000  0.5067770000000  0.5536800000000 1.0
C      1  0.5034180000000  0.5106630000000  0.4523100000000 1.0
C      1  0.4860910000000  0.4031370000000  0.5594810000000 1.0
C      1  0.4196030000000  0.5391300000000  0.5398360000000 1.0
C      1  0.5246910000000  0.5421100000000  0.5116530000000 1.0
C      1  0.4131920000000  0.4794220000000  0.4997650000000 1.0
C      1  0.5221100000000  0.5115060000000  0.4309980000000 1.0
C      1  0.5131510000000  0.5507360000000  0.5811990000000 1.0
C      1  0.5449000000000  0.4886030000000  0.3876690000000 1.0
C      1  0.6265550000000  0.5610050000000  0.5441740000000 1.0
C      1  0.5535940000000  0.5445880000000  0.4453020000000 1.0
C      1  0.5676810000000  0.5105590000000  0.6122340000000 1.0
C      1  0.3974890000000  0.4615840000000  0.4825000000000 1.0
C      1  0.5293630000000  0.4075850000000  0.4986200000000 1.0
C      1  0.5834730000000  0.4478260000000  0.4703130000000 1.0
C      1  0.5724910000000  0.4565120000000  0.4206060000000 1.0
C      1  0.4988390000000  0.5456910000000  0.4133480000000 1.0
C      1  0.5548100000000  0.5742520000000  0.5845980000000 1.0
C      1  0.4189570000000  0.5959870000000  0.4292250000000 1.0
C      1  0.5357690000000  0.6040440000000  0.4201830000000 1.0
C      1  0.4239630000000  0.5068370000000  0.4569950000000 1.0
C      1  0.5740630000000  0.4398350000000  0.4437570000000 1.0
C      1  0.5633670000000  0.5731210000000  0.5577890000000 1.0
C      1  0.4251210000000  0.4979640000000  0.5957320000000 1.0
C      1  0.5329880000000  0.4807820000000  0.4749610000000 1.0
C      1  0.6015890000000  0.4649710000000  0.4860530000000 1.0
C      1  0.5298950000000  0.4645160000000  0.5656680000000 1.0
C      1  0.4646950000000  0.4971240000000  0.5745800000000 1.0
C      1  0.4635170000000  0.4727810000000  0.6131720000000 1.0
C      1  0.5322270000000  0.6041950000000  0.4963160000000 1.0
C      1  0.5966270000000  0.4929030000000  0.4815100000000 1.0
C      1  0.4973130000000  0.4869470000000  0.3771290000000 1.0
C      1  0.5617190000000  0.4453390000000  0.4883700000000 1.0
C      1  0.4437140000000  0.4526800000000  0.5189500000000 1.0
C      1  0.4452520000000  0.5067590000000  0.4375700000000 1.0
C      1  0.5368080000000  0.6107400000000  0.4682210000000 1.0
C      1  0.5558470000000  0.5919890000000  0.5106710000000 1.0
C      1  0.4300280000000  0.4533370000000  0.5759780000000 1.0
C      1  0.4703410000000  0.5404100000000  0.4091600000000 1.0
C      1  0.4405730000000  0.4197730000000  0.4486340000000 1.0
C      1  0.5796200000000  0.5064130000000  0.5278850000000 1.0
C      1  0.4917620000000  0.4573740000000  0.4153480000000 1.0
C      1  0.4736580000000  0.5002110000000  0.6210320000000 1.0
C      1  0.4829080000000  0.5059780000000  0.5177840000000 1.0
C      1  0.6256090000000  0.5768250000000  0.5225320000000 1.0
C      1  0.5569620000000  0.5940770000000  0.4065760000000 1.0
C      1  0.5773410000000  0.5832340000000  0.4673090000000 1.0
C      1  0.4633460000000  0.4869110000000  0.4491740000000 1.0
C      1  0.5789680000000  0.4860980000000  0.6127960000000 1.0
C      1  0.5193260000000  0.3941220000000  0.4730310000000 1.0
C      1  0.4571840000000  0.6116150000000  0.5027330000000 1.0
C      1  0.4887410000000  0.5348620000000  0.4560070000000 1.0
C      1  0.4690890000000  0.5205720000000  0.5379530000000 1.0
C      1  0.4202040000000  0.4483270000000  0.4393720000000 1.0
C      1  0.5123040000000  0.4763180000000  0.6072640000000 1.0
C      1  0.4180200000000  0.5765810000000  0.5069610000000 1.0
C      1  0.5612230000000  0.4719390000000  0.4014480000000 1.0
C      1  0.5596250000000  0.4273260000000  0.5692150000000 1.0
C      1  0.5643750000000  0.6077650000000  0.4608800000000 1.0
C      1  0.4493030000000  0.4989580000000  0.3909370000000 1.0
C      1  0.4324160000000  0.4963110000000  0.4838250000000 1.0
C      1  0.4711910000000  0.4971150000000  0.3729020000000 1.0
C      1  0.5817120000000  0.4358100000000  0.5525340000000 1.0
C      1  0.5077060000000  0.4947130000000  0.4751990000000 1.0
C      1  0.4601070000000  0.4904780000000  0.4779350000000 1.0
C      1  0.4192090000000  0.3971440000000  0.4856790000000 1.0
C      1  0.4915120000000  0.3820540000000  0.4692810000000 1.0
C      1  0.6057500000000  0.5848480000000  0.5066540000000 1.0
C      1  0.5021940000000  0.4893490000000  0.5299850000000 1.0
C      1  0.4012160000000  0.4670820000000  0.4540220000000 1.0
C      1  0.4649430000000  0.5442030000000  0.4658650000000 1.0
C      1  0.6011140000000  0.5122500000000  0.4354340000000 1.0
C      1  0.5305640000000  0.5535120000000  0.4601460000000 1.0
C      1  0.4995820000000  0.5535260000000  0.5134710000000 1.0
C      1  0.4937180000000  0.6151140000000  0.4435020000000 1.0
C      1  0.4594560000000  0.5571630000000  0.4881030000000 1.0
C      1  0.4722060000000  0.4455710000000  0.4815780000000 1.0
C      1  0.4369420000000  0.4707990000000  0.5991760000000 1.0
C      1  0.5582020000000  0.4959670000000  0.4551720000000 1.0
C      1  0.5045150000000  0.4539840000000  0.5606100000000 1.0
C      1  0.5720730000000  0.4810080000000  0.5389330000000 1.0
C      1  0.4663830000000  0.4559760000000  0.5338860000000 1.0
C      1  0.4576970000000  0.5685450000000  0.5351680000000 1.0
C      1  0.5517710000000  0.5317480000000  0.6076230000000 1.0
C      1  0.4401920000000  0.5209730000000  0.5463760000000 1.0
C      1  0.4466920000000  0.4304710000000  0.4038480000000 1.0
C      1  0.5030510000000  0.5721010000000  0.5616860000000 1.0
C      1  0.5390750000000  0.5440360000000  0.4874330000000 1.0
C      1  0.5006240000000  0.5246860000000  0.5847360000000 1.0
C      1  0.4822560000000  0.4004650000000  0.4261410000000 1.0
C      1  0.5096790000000  0.6031590000000  0.5159470000000 1.0
C      1  0.5481330000000  0.5167630000000  0.4394200000000 1.0
C      1  0.5369240000000  0.5258930000000  0.5318850000000 1.0
C      1  0.5411450000000  0.4038850000000  0.5249860000000 1.0
C      1  0.4708570000000  0.4226410000000  0.5743370000000 1.0
C      1  0.4001110000000  0.5613210000000  0.4901220000000 1.0
C      1  0.3974450000000  0.4971670000000  0.4512890000000 1.0
C      1  0.4127630000000  0.4652750000000  0.5536910000000 1.0
C      1  0.5797120000000  0.5791080000000  0.4051280000000 1.0
C      1  0.4677110000000  0.6128800000000  0.4389470000000 1.0
C      1  0.4789260000000  0.4681960000000  0.4359530000000 1.0
C      1  0.5647570000000  0.5284280000000  0.5392340000000 1.0
C      1  0.4917980000000  0.4649440000000  0.5389020000000 1.0
C      1  0.4783890000000  0.4071550000000  0.5069330000000 1.0
C      1  0.5178080000000  0.4346160000000  0.4959510000000 1.0
C      1  0.5199040000000  0.5029340000000  0.3850120000000 1.0
C      1  0.4728520000000  0.5611320000000  0.5120570000000 1.0
C      1  0.5211370000000  0.6106700000000  0.4441390000000 1.0
C      1  0.4298010000000  0.4526180000000  0.4117140000000 1.0
C      1  0.4427620000000  0.6056490000000  0.4336530000000 1.0
C      1  0.5912180000000  0.5609050000000  0.4238070000000 1.0
C      1  0.6058400000000  0.5491370000000  0.5564270000000 1.0
C      1  0.3974600000000  0.4112500000000  0.4925280000000 1.0
C      1  0.4827030000000  0.5162860000000  0.5642140000000 1.0
C      1  0.4206410000000  0.4672380000000  0.5256940000000 1.0
C      1  0.4434120000000  0.4018230000000  0.4717320000000 1.0
C      1  0.4255750000000  0.4049540000000  0.5744830000000 1.0
C      1  0.5148090000000  0.5221690000000  0.4055070000000 1.0
C      1  0.5386920000000  0.5533420000000  0.5945520000000 1.0
C      1  0.4574280000000  0.4146160000000  0.4250430000000 1.0
C      1  0.5356160000000  0.4550440000000  0.4875740000000 1.0
C      1  0.5293500000000  0.4067850000000  0.4478050000000 1.0
C      1  0.5782060000000  0.5497320000000  0.5515560000000 1.0
C      1  0.4325070000000  0.4765710000000  0.3968080000000 1.0
C      1  0.5059820000000  0.5539300000000  0.4422190000000 1.0
C      1  0.4833740000000  0.6120660000000  0.5096180000000 1.0
C      1  0.4835620000000  0.4971410000000  0.4912500000000 1.0
C      1  0.5760410000000  0.5619500000000  0.4479990000000 1.0
C      1  0.4422080000000  0.4268520000000  0.5748130000000 1.0
C      1  0.5572360000000  0.4450240000000  0.5942720000000 1.0
C      1  0.4780330000000  0.3979210000000  0.5331170000000 1.0
C      1  0.6052900000000  0.4568370000000  0.5132090000000 1.0
C      1  0.5143370000000  0.4016870000000  0.5650790000000 1.0
END
