TITL C-247202-1916-489 -5.41083088738566e-07 125000 -559.263470953421 0 0 92 (C1) n - 1
REM
REM in /home/nfs/bkarasulu/CARBON/AIRSS/Generating-Clusters/LCBOP/Only-C1/SD-CG/FIRE-HFTN
REM
REM
REM
REM
REM
REM ./C.cell (11c1c37f851c82e70ff6c80c92926a4b)
REM AIRSS Version 0.9.1 bugfix July 2018 build 013d7b7c2542+ Fri, 06 Jul 2018 19:26:36 +0100
REM compiler GCC version 9.2.1 20190827 (Red Hat 9.2.1-1)
REM options -cpp -mtune=generic -march=x86-64 -g -O0 -fpre-include=/usr/include/finclude/math-vector-fortran.h
REM seed -774437014 -1927791074 -935224785 810928877 -1029125927 326489219 1592152587 1729692228 -546318783 -1642819837 1511138242 351933437 -2043888856 34894325 35506145 2053702926 1342718869 -476139862 1937270048 1485173894 952423796 585254269 -2124675674 -704055548 -1346164542 1879236409 -451614791 -1814935677 -1884788244 -1282605119 -1612168446 -1919552674 -121413514
REM
CELL 1.54180   50.00000   50.00000   50.00000   90.00000   90.00000   90.00000
LATT -1
SFAC C  
C      1  0.5674500000000  0.4655510000000  0.5045990000000 1.0
C      1  0.4823900000000  0.3835780000000  0.5019740000000 1.0
C      1  0.4883650000000  0.3640340000000  0.5190630000000 1.0
C      1  0.5910020000000  0.5037770000000  0.4754240000000 1.0
C      1  0.5626960000000  0.5038060000000  0.4759510000000 1.0
C      1  0.5440480000000  0.5254790000000  0.5802770000000 1.0
C      1  0.5033300000000  0.5483360000000  0.4244070000000 1.0
C      1  0.4285180000000  0.5772220000000  0.5255760000000 1.0
C      1  0.4872060000000  0.4950430000000  0.5673100000000 1.0
C      1  0.4230780000000  0.4426400000000  0.4597930000000 1.0
C      1  0.5458110000000  0.5938800000000  0.5649220000000 1.0
C      1  0.5066710000000  0.5007960000000  0.5045210000000 1.0
C      1  0.4765670000000  0.3972350000000  0.5716530000000 1.0
C      1  0.5454360000000  0.5746080000000  0.5836330000000 1.0
C      1  0.3948470000000  0.4616230000000  0.4944000000000 1.0
C      1  0.5375160000000  0.5953950000000  0.5395110000000 1.0
C      1  0.4808360000000  0.4723070000000  0.4641540000000 1.0
C      1  0.4304550000000  0.5149100000000  0.5029960000000 1.0
C      1  0.5307710000000  0.5982420000000  0.4650580000000 1.0
C      1  0.5315750000000  0.5143910000000  0.4409950000000 1.0
C      1  0.4570280000000  0.4068790000000  0.4679810000000 1.0
C      1  0.4671480000000  0.4882640000000  0.4835500000000 1.0
C      1  0.4873490000000  0.5417400000000  0.5585600000000 1.0
C      1  0.4955080000000  0.5155680000000  0.5503840000000 1.0
C      1  0.5743900000000  0.5990640000000  0.4957890000000 1.0
C      1  0.4825230000000  0.3714550000000  0.5674080000000 1.0
C      1  0.5434680000000  0.5507500000000  0.4773250000000 1.0
C      1  0.5926140000000  0.4755540000000  0.5137780000000 1.0
C      1  0.4812120000000  0.4346300000000  0.5342670000000 1.0
C      1  0.5499320000000  0.4819000000000  0.4897790000000 1.0
C      1  0.4166380000000  0.4636710000000  0.4412210000000 1.0
C      1  0.5236030000000  0.5701740000000  0.4639530000000 1.0
C      1  0.4385160000000  0.4199340000000  0.4536060000000 1.0
C      1  0.5494310000000  0.4367960000000  0.5441160000000 1.0
C      1  0.5531640000000  0.6069460000000  0.4805620000000 1.0
C      1  0.5447630000000  0.5228610000000  0.4649530000000 1.0
C      1  0.5035530000000  0.5522930000000  0.5788800000000 1.0
C      1  0.5243810000000  0.4725790000000  0.4170630000000 1.0
C      1  0.5306210000000  0.4575720000000  0.5479120000000 1.0
C      1  0.4604890000000  0.5334180000000  0.4393280000000 1.0
C      1  0.4705940000000  0.4572070000000  0.4439960000000 1.0
C      1  0.5728050000000  0.5591850000000  0.4740100000000 1.0
C      1  0.3978210000000  0.4580250000000  0.4212430000000 1.0
C      1  0.4880920000000  0.3576800000000  0.5450590000000 1.0
C      1  0.5831810000000  0.5718630000000  0.4977190000000 1.0
C      1  0.5881010000000  0.5554790000000  0.5204890000000 1.0
C      1  0.4450340000000  0.4900700000000  0.5016850000000 1.0
C      1  0.4749530000000  0.5467650000000  0.4618460000000 1.0
C      1  0.4392820000000  0.4440490000000  0.5071270000000 1.0
C      1  0.4326480000000  0.4718250000000  0.5467700000000 1.0
C      1  0.4751100000000  0.4199950000000  0.5577990000000 1.0
C      1  0.4669480000000  0.4826840000000  0.5794070000000 1.0
C      1  0.4777690000000  0.5380330000000  0.4165730000000 1.0
C      1  0.5317210000000  0.5797860000000  0.5185990000000 1.0
C      1  0.5836240000000  0.5349240000000  0.5376120000000 1.0
C      1  0.5160560000000  0.6166260000000  0.4510300000000 1.0
C      1  0.3798840000000  0.4522120000000  0.4026320000000 1.0
C      1  0.3890860000000  0.4877060000000  0.4984050000000 1.0
C      1  0.5735470000000  0.5558460000000  0.4227320000000 1.0
C      1  0.4396640000000  0.4694500000000  0.5199890000000 1.0
C      1  0.5131880000000  0.5136200000000  0.5283070000000 1.0
C      1  0.5327410000000  0.5329160000000  0.5242720000000 1.0
C      1  0.5043920000000  0.4516810000000  0.5369780000000 1.0
C      1  0.5218640000000  0.4826430000000  0.4885620000000 1.0
C      1  0.5391200000000  0.4780020000000  0.5672090000000 1.0
C      1  0.4636220000000  0.4286870000000  0.5112530000000 1.0
C      1  0.3622180000000  0.4464480000000  0.3843480000000 1.0
C      1  0.4278930000000  0.4898180000000  0.4418770000000 1.0
C      1  0.5312780000000  0.5503050000000  0.5843130000000 1.0
C      1  0.6062220000000  0.4895920000000  0.4930180000000 1.0
C      1  0.5357500000000  0.5543690000000  0.5068990000000 1.0
C      1  0.4025630000000  0.5109990000000  0.5015530000000 1.0
C      1  0.5341380000000  0.4708820000000  0.5936830000000 1.0
C      1  0.5768060000000  0.5091190000000  0.5483960000000 1.0
C      1  0.5922450000000  0.4872480000000  0.5393150000000 1.0
C      1  0.5000210000000  0.5590790000000  0.4519150000000 1.0
C      1  0.5512010000000  0.5465230000000  0.4109700000000 1.0
C      1  0.4472910000000  0.5382500000000  0.5036720000000 1.0
C      1  0.4711190000000  0.5355390000000  0.4875800000000 1.0
C      1  0.5214960000000  0.4877090000000  0.4396390000000 1.0
C      1  0.4407250000000  0.5134150000000  0.4402470000000 1.0
C      1  0.4660660000000  0.5541420000000  0.5454280000000 1.0
C      1  0.5091960000000  0.4771620000000  0.4632870000000 1.0
C      1  0.5827790000000  0.5597830000000  0.4476610000000 1.0
C      1  0.4837100000000  0.5103950000000  0.4916050000000 1.0
C      1  0.4173600000000  0.4454610000000  0.4876410000000 1.0
C      1  0.4688340000000  0.4065560000000  0.4935580000000 1.0
C      1  0.5533310000000  0.5036310000000  0.5644160000000 1.0
C      1  0.5277940000000  0.5345630000000  0.4210630000000 1.0
C      1  0.4468720000000  0.5569970000000  0.5250010000000 1.0
C      1  0.4428120000000  0.4746000000000  0.5712610000000 1.0
C      1  0.5645330000000  0.4155520000000  0.5437130000000 1.0
END
