TITL C-247201-3759-581 236.337125681922 125000 -791.930125098544 0 0 131 (C1) n - 1
REM
REM in /home/nfs/bkarasulu/CARBON/AIRSS/Generating-Clusters/LCBOP/Only-C1/SD-CG/FIRE-HFTN
REM
REM
REM
REM
REM
REM ./C.cell (11c1c37f851c82e70ff6c80c92926a4b)
REM AIRSS Version 0.9.1 bugfix July 2018 build 013d7b7c2542+ Fri, 06 Jul 2018 19:26:36 +0100
REM compiler GCC version 9.2.1 20190827 (Red Hat 9.2.1-1)
REM options -cpp -mtune=generic -march=x86-64 -g -O0 -fpre-include=/usr/include/finclude/math-vector-fortran.h
REM seed 468027131 -1792608529 -1824161029 -597121797 -236535560 1199512776 -1793297363 -1496476911 1377462449 1091170351 -917990503 573391476 1486686627 1043631373 -1824660844 876831689 -2090076614 -42538914 549111575 231732867 1569624978 135457300 -2013340613 773526760 1318454232 -145400696 719120514 1662906982 -511471370 843493175 1420455826 307517010 861974715
REM
CELL 1.54180   50.00000   50.00000   50.00000   90.00000   90.00000   90.00000
LATT -1
SFAC C  
C      1  0.5123430000000  0.4471130000000  0.5127680000000 1.0
C      1  0.4639040000000  0.4328150000000  0.5938330000000 1.0
C      1  0.4890220000000  0.4893430000000  0.5518820000000 1.0
C      1  0.5050190000000  0.5286510000000  0.5958020000000 1.0
C      1  0.5674130000000  0.5696630000000  0.5254010000000 1.0
C      1  0.4818860000000  0.4763330000000  0.3680130000000 1.0
C      1  0.4828010000000  0.5691820000000  0.6098080000000 1.0
C      1  0.5690460000000  0.5027450000000  0.5424030000000 1.0
C      1  0.5526630000000  0.4766900000000  0.5773420000000 1.0
C      1  0.4106960000000  0.4938950000000  0.4653440000000 1.0
C      1  0.4500790000000  0.5542360000000  0.5556020000000 1.0
C      1  0.4421130000000  0.5475050000000  0.4599860000000 1.0
C      1  0.5440090000000  0.5628980000000  0.3963580000000 1.0
C      1  0.5482360000000  0.5263150000000  0.4644170000000 1.0
C      1  0.5797380000000  0.4847330000000  0.4132760000000 1.0
C      1  0.4345720000000  0.4778510000000  0.4232560000000 1.0
C      1  0.4744240000000  0.4037960000000  0.4573350000000 1.0
C      1  0.5809640000000  0.4570780000000  0.5356780000000 1.0
C      1  0.5144000000000  0.4779000000000  0.5495520000000 1.0
C      1  0.5113680000000  0.4555840000000  0.4845430000000 1.0
C      1  0.4760220000000  0.4472320000000  0.4293620000000 1.0
C      1  0.4425610000000  0.4293110000000  0.5783610000000 1.0
C      1  0.4680910000000  0.3781860000000  0.5642800000000 1.0
C      1  0.4218060000000  0.5542000000000  0.5480520000000 1.0
C      1  0.4375190000000  0.5103720000000  0.3854270000000 1.0
C      1  0.3992030000000  0.5137930000000  0.5146820000000 1.0
C      1  0.5494300000000  0.4996730000000  0.5941260000000 1.0
C      1  0.6138720000000  0.4884200000000  0.5136640000000 1.0
C      1  0.5271350000000  0.4654570000000  0.5717290000000 1.0
C      1  0.5849730000000  0.4634960000000  0.4329440000000 1.0
C      1  0.5208760000000  0.5702250000000  0.4675940000000 1.0
C      1  0.4926880000000  0.5052600000000  0.4326230000000 1.0
C      1  0.4847310000000  0.5963930000000  0.5014860000000 1.0
C      1  0.5689630000000  0.5950560000000  0.5135080000000 1.0
C      1  0.4097130000000  0.4829140000000  0.5734180000000 1.0
C      1  0.4880310000000  0.4379200000000  0.5280260000000 1.0
C      1  0.5832890000000  0.4599220000000  0.4843700000000 1.0
C      1  0.5925340000000  0.5039270000000  0.4548240000000 1.0
C      1  0.4868470000000  0.3948190000000  0.5533810000000 1.0
C      1  0.4673850000000  0.4306380000000  0.4503630000000 1.0
C      1  0.4645420000000  0.5813090000000  0.5151770000000 1.0
C      1  0.5918120000000  0.5573250000000  0.5331180000000 1.0
C      1  0.4967280000000  0.4831220000000  0.4495790000000 1.0
C      1  0.5127060000000  0.3985770000000  0.4969570000000 1.0
C      1  0.4236850000000  0.5002190000000  0.5880390000000 1.0
C      1  0.5600590000000  0.4417880000000  0.4838990000000 1.0
C      1  0.4192920000000  0.4721090000000  0.4484510000000 1.0
C      1  0.4591640000000  0.5402130000000  0.4157620000000 1.0
C      1  0.5585940000000  0.6386550000000  0.4854580000000 1.0
C      1  0.4409610000000  0.5203440000000  0.5898200000000 1.0
C      1  0.5932050000000  0.5071980000000  0.4261290000000 1.0
C      1  0.4027190000000  0.5079930000000  0.4869460000000 1.0
C      1  0.6075100000000  0.5162210000000  0.5114570000000 1.0
C      1  0.4504150000000  0.5113210000000  0.5254670000000 1.0
C      1  0.5253800000000  0.5726810000000  0.4400300000000 1.0
C      1  0.4822910000000  0.5456070000000  0.5945960000000 1.0
C      1  0.4498200000000  0.5258760000000  0.5017580000000 1.0
C      1  0.4412070000000  0.5737500000000  0.5012580000000 1.0
C      1  0.4822320000000  0.4816770000000  0.3948830000000 1.0
C      1  0.5408160000000  0.4911630000000  0.5042330000000 1.0
C      1  0.5098930000000  0.5215880000000  0.5098130000000 1.0
C      1  0.4136390000000  0.4463850000000  0.4605970000000 1.0
C      1  0.5779290000000  0.5225060000000  0.4710280000000 1.0
C      1  0.4970640000000  0.5677250000000  0.5480770000000 1.0
C      1  0.4241600000000  0.5010790000000  0.4089360000000 1.0
C      1  0.5178560000000  0.3885430000000  0.4709320000000 1.0
C      1  0.5408630000000  0.5583640000000  0.5280980000000 1.0
C      1  0.5251070000000  0.4425320000000  0.4420550000000 1.0
C      1  0.5545350000000  0.4904370000000  0.4018940000000 1.0
C      1  0.5347330000000  0.5485410000000  0.4799470000000 1.0
C      1  0.5557280000000  0.4261810000000  0.5078940000000 1.0
C      1  0.5018890000000  0.4576070000000  0.4356760000000 1.0
C      1  0.5285250000000  0.5429260000000  0.5073450000000 1.0
C      1  0.5652760000000  0.6176180000000  0.5001310000000 1.0
C      1  0.4036820000000  0.4736660000000  0.5475810000000 1.0
C      1  0.4687360000000  0.5343700000000  0.4604770000000 1.0
C      1  0.5603880000000  0.4150740000000  0.5544070000000 1.0
C      1  0.5124440000000  0.4496950000000  0.5893820000000 1.0
C      1  0.4640310000000  0.3970310000000  0.4840510000000 1.0
C      1  0.5277400000000  0.4200690000000  0.5095610000000 1.0
C      1  0.5342770000000  0.4440830000000  0.4690020000000 1.0
C      1  0.4059620000000  0.5733530000000  0.5600590000000 1.0
C      1  0.4933400000000  0.6483510000000  0.5150710000000 1.0
C      1  0.4616550000000  0.4675960000000  0.4137910000000 1.0
C      1  0.5325270000000  0.5064260000000  0.4104450000000 1.0
C      1  0.5903410000000  0.4741050000000  0.4601940000000 1.0
C      1  0.5951360000000  0.4664480000000  0.5111170000000 1.0
C      1  0.5618610000000  0.5069660000000  0.5157850000000 1.0
C      1  0.4087320000000  0.5364480000000  0.5295810000000 1.0
C      1  0.5250160000000  0.5670460000000  0.5502310000000 1.0
C      1  0.5363720000000  0.5547790000000  0.4212510000000 1.0
C      1  0.5372290000000  0.5758600000000  0.5731180000000 1.0
C      1  0.4892760000000  0.4397220000000  0.5978200000000 1.0
C      1  0.5390180000000  0.4983250000000  0.4752700000000 1.0
C      1  0.5393980000000  0.5279600000000  0.4301220000000 1.0
C      1  0.3912090000000  0.4917360000000  0.5302770000000 1.0
C      1  0.5686000000000  0.4313520000000  0.5330060000000 1.0
C      1  0.5708730000000  0.4772910000000  0.5547770000000 1.0
C      1  0.4991430000000  0.3913590000000  0.4513220000000 1.0
C      1  0.4700730000000  0.5684050000000  0.5402100000000 1.0
C      1  0.4550230000000  0.5311060000000  0.3892090000000 1.0
C      1  0.5431210000000  0.4826380000000  0.4533170000000 1.0
C      1  0.4150050000000  0.5236500000000  0.4247260000000 1.0
C      1  0.4213440000000  0.4468030000000  0.5099720000000 1.0
C      1  0.5391390000000  0.4019050000000  0.5639920000000 1.0
C      1  0.4843790000000  0.3972400000000  0.5047970000000 1.0
C      1  0.4811160000000  0.4102320000000  0.5300670000000 1.0
C      1  0.5038440000000  0.4989240000000  0.4067960000000 1.0
C      1  0.5016160000000  0.5847870000000  0.4820420000000 1.0
C      1  0.4367940000000  0.5491020000000  0.4884100000000 1.0
C      1  0.4277600000000  0.4331700000000  0.5565970000000 1.0
C      1  0.4779860000000  0.5287490000000  0.4347470000000 1.0
C      1  0.4713210000000  0.5195490000000  0.4839470000000 1.0
C      1  0.4342310000000  0.5435010000000  0.4324940000000 1.0
C      1  0.5133020000000  0.3952010000000  0.5632190000000 1.0
C      1  0.5251740000000  0.4726850000000  0.5235260000000 1.0
C      1  0.6111550000000  0.5389030000000  0.5280040000000 1.0
C      1  0.5818460000000  0.5185740000000  0.4989180000000 1.0
C      1  0.4656190000000  0.4978460000000  0.5426650000000 1.0
C      1  0.4165880000000  0.4503580000000  0.5374590000000 1.0
C      1  0.4880160000000  0.6234050000000  0.5079190000000 1.0
C      1  0.5510040000000  0.6587290000000  0.4706580000000 1.0
C      1  0.4994420000000  0.6727160000000  0.5220520000000 1.0
C      1  0.4301650000000  0.4357900000000  0.4839040000000 1.0
C      1  0.5291650000000  0.5171100000000  0.5984930000000 1.0
C      1  0.4571700000000  0.4448870000000  0.4733600000000 1.0
C      1  0.4936710000000  0.5052980000000  0.4926130000000 1.0
C      1  0.4582630000000  0.5401020000000  0.5797200000000 1.0
C      1  0.4987760000000  0.4808490000000  0.4777420000000 1.0
C      1  0.4368900000000  0.4061280000000  0.4877790000000 1.0
C      1  0.4833230000000  0.5918290000000  0.6226890000000 1.0
END
