TITL C-247201-3759-55 0.0982376404228699 125000 -1101.98809470605 0 0 180 (C1) n - 1
REM
REM in /home/nfs/bkarasulu/CARBON/AIRSS/Generating-Clusters/LCBOP/Only-C1/SD-CG/FIRE-HFTN
REM
REM
REM
REM
REM
REM ./C.cell (11c1c37f851c82e70ff6c80c92926a4b)
REM AIRSS Version 0.9.1 bugfix July 2018 build 013d7b7c2542+ Fri, 06 Jul 2018 19:26:36 +0100
REM compiler GCC version 9.2.1 20190827 (Red Hat 9.2.1-1)
REM options -cpp -mtune=generic -march=x86-64 -g -O0 -fpre-include=/usr/include/finclude/math-vector-fortran.h
REM seed 1676813563 -1794199773 1319846308 -2057829221 1721378713 -387606124 197194653 400002432 830483268 -1395860952 -282294936 1147949185 -1928128548 1529183109 -1082637644 -1657957851 238065631 -283580511 1733829286 -86193404 -870204591 -677304605 -650047847 642302131 1907692137 -261293717 1276993401 -505897793 870081874 894514811 -549742212 2070646691 902835702
REM
CELL 1.54180   50.00000   50.00000   50.00000   90.00000   90.00000   90.00000
LATT -1
SFAC C  
C      1  0.5759860000000  0.4169250000000  0.5026830000000 1.0
C      1  0.5489970000000  0.5932350000000  0.4351560000000 1.0
C      1  0.4691920000000  0.5944510000000  0.4425520000000 1.0
C      1  0.4629880000000  0.4323390000000  0.5058700000000 1.0
C      1  0.4406640000000  0.5200940000000  0.5787800000000 1.0
C      1  0.5972940000000  0.4162570000000  0.5221910000000 1.0
C      1  0.4064760000000  0.4030520000000  0.5139530000000 1.0
C      1  0.5014600000000  0.4803580000000  0.6266920000000 1.0
C      1  0.6086250000000  0.5185980000000  0.4471440000000 1.0
C      1  0.4599460000000  0.5201790000000  0.4374910000000 1.0
C      1  0.5937530000000  0.5614720000000  0.4666150000000 1.0
C      1  0.5075660000000  0.5560830000000  0.4109410000000 1.0
C      1  0.4566640000000  0.4647530000000  0.3969080000000 1.0
C      1  0.3936260000000  0.4868080000000  0.5585420000000 1.0
C      1  0.4591290000000  0.6123990000000  0.5137460000000 1.0
C      1  0.4930570000000  0.4552930000000  0.6198130000000 1.0
C      1  0.4737030000000  0.5716080000000  0.4950700000000 1.0
C      1  0.5552760000000  0.5336080000000  0.4192860000000 1.0
C      1  0.4766670000000  0.4757490000000  0.4544900000000 1.0
C      1  0.4096100000000  0.4536110000000  0.5504500000000 1.0
C      1  0.4408320000000  0.5871370000000  0.4431300000000 1.0
C      1  0.3789050000000  0.5250920000000  0.5124240000000 1.0
C      1  0.5912370000000  0.5031720000000  0.4302170000000 1.0
C      1  0.4757960000000  0.6132280000000  0.4633580000000 1.0
C      1  0.5056210000000  0.4968630000000  0.5687310000000 1.0
C      1  0.5390180000000  0.5005360000000  0.6038380000000 1.0
C      1  0.4488610000000  0.5835260000000  0.5099380000000 1.0
C      1  0.4735870000000  0.4493420000000  0.4451880000000 1.0
C      1  0.6048500000000  0.4979600000000  0.5599050000000 1.0
C      1  0.5072070000000  0.4828250000000  0.3934650000000 1.0
C      1  0.4709330000000  0.4505990000000  0.5540040000000 1.0
C      1  0.5079170000000  0.5295770000000  0.5013080000000 1.0
C      1  0.4405790000000  0.5246260000000  0.5022110000000 1.0
C      1  0.5190580000000  0.4943290000000  0.4374080000000 1.0
C      1  0.5273920000000  0.5339560000000  0.5485800000000 1.0
C      1  0.5257510000000  0.4743240000000  0.5078810000000 1.0
C      1  0.5679760000000  0.5805080000000  0.4209540000000 1.0
C      1  0.6133060000000  0.4769480000000  0.4802400000000 1.0
C      1  0.5154570000000  0.4385770000000  0.4128380000000 1.0
C      1  0.5685390000000  0.5544030000000  0.4771570000000 1.0
C      1  0.4909160000000  0.5933940000000  0.5422330000000 1.0
C      1  0.6137290000000  0.5054280000000  0.4732920000000 1.0
C      1  0.4877490000000  0.4800690000000  0.4802240000000 1.0
C      1  0.5414510000000  0.4208070000000  0.4445370000000 1.0
C      1  0.5061620000000  0.5847250000000  0.5654940000000 1.0
C      1  0.5837880000000  0.4414300000000  0.4449620000000 1.0
C      1  0.4339430000000  0.4586140000000  0.4111960000000 1.0
C      1  0.4826460000000  0.4213640000000  0.4871040000000 1.0
C      1  0.5295590000000  0.4456530000000  0.4381240000000 1.0
C      1  0.5049390000000  0.3931700000000  0.5297010000000 1.0
C      1  0.4482270000000  0.4989760000000  0.4931940000000 1.0
C      1  0.5078080000000  0.4642620000000  0.4888560000000 1.0
C      1  0.4749330000000  0.4126380000000  0.5916780000000 1.0
C      1  0.5159040000000  0.5050230000000  0.6210690000000 1.0
C      1  0.5510350000000  0.4797880000000  0.4692700000000 1.0
C      1  0.4659200000000  0.6111720000000  0.5423590000000 1.0
C      1  0.5984490000000  0.5469400000000  0.4421890000000 1.0
C      1  0.4391600000000  0.4489120000000  0.5019810000000 1.0
C      1  0.4512030000000  0.5724390000000  0.5597710000000 1.0
C      1  0.4011060000000  0.4433760000000  0.4499760000000 1.0
C      1  0.4653650000000  0.4262440000000  0.4342780000000 1.0
C      1  0.4142590000000  0.5969620000000  0.5546190000000 1.0
C      1  0.3910910000000  0.4401560000000  0.4768490000000 1.0
C      1  0.6225110000000  0.5454880000000  0.5000950000000 1.0
C      1  0.4695150000000  0.6222170000000  0.4886180000000 1.0
C      1  0.5117810000000  0.5142440000000  0.4554310000000 1.0
C      1  0.3857450000000  0.5186600000000  0.5413300000000 1.0
C      1  0.4433480000000  0.6003530000000  0.5590010000000 1.0
C      1  0.5722430000000  0.4647920000000  0.5773280000000 1.0
C      1  0.5436380000000  0.4640210000000  0.5742390000000 1.0
C      1  0.5166580000000  0.5626780000000  0.4551200000000 1.0
C      1  0.5656690000000  0.4021590000000  0.4795030000000 1.0
C      1  0.4904800000000  0.5806080000000  0.4163720000000 1.0
C      1  0.5050820000000  0.5419340000000  0.5900560000000 1.0
C      1  0.4637140000000  0.4030170000000  0.5665400000000 1.0
C      1  0.5251780000000  0.4592000000000  0.3951120000000 1.0
C      1  0.4025690000000  0.4728630000000  0.5115180000000 1.0
C      1  0.4010550000000  0.5741520000000  0.5124690000000 1.0
C      1  0.4468260000000  0.4746350000000  0.5925280000000 1.0
C      1  0.4002260000000  0.5742310000000  0.5417920000000 1.0
C      1  0.5304380000000  0.5870960000000  0.4552740000000 1.0
C      1  0.4201740000000  0.3997680000000  0.5373030000000 1.0
C      1  0.5065360000000  0.4108620000000  0.4175790000000 1.0
C      1  0.4902020000000  0.5988820000000  0.3959530000000 1.0
C      1  0.4972730000000  0.5831090000000  0.5140500000000 1.0
C      1  0.5651230000000  0.6024000000000  0.5381590000000 1.0
C      1  0.3878680000000  0.5230600000000  0.4652440000000 1.0
C      1  0.5010380000000  0.5396720000000  0.4552550000000 1.0
C      1  0.5382710000000  0.3864320000000  0.4847020000000 1.0
C      1  0.4449230000000  0.5200490000000  0.5511900000000 1.0
C      1  0.6235870000000  0.4207610000000  0.5129430000000 1.0
C      1  0.4349920000000  0.4105920000000  0.5596090000000 1.0
C      1  0.5228420000000  0.3994450000000  0.4394670000000 1.0
C      1  0.4785960000000  0.4081060000000  0.4193500000000 1.0
C      1  0.5766490000000  0.5535780000000  0.4223510000000 1.0
C      1  0.6091630000000  0.5207860000000  0.4971210000000 1.0
C      1  0.4602720000000  0.5538560000000  0.4746840000000 1.0
C      1  0.5538770000000  0.4689230000000  0.4983650000000 1.0
C      1  0.3846980000000  0.5177700000000  0.4387890000000 1.0
C      1  0.4164860000000  0.4499270000000  0.5220970000000 1.0
C      1  0.5859560000000  0.5132860000000  0.5123020000000 1.0
C      1  0.3959600000000  0.4164830000000  0.4926740000000 1.0
C      1  0.5253810000000  0.3976690000000  0.5093670000000 1.0
C      1  0.6104820000000  0.5260780000000  0.5597310000000 1.0
C      1  0.5066310000000  0.4368810000000  0.4889580000000 1.0
C      1  0.4383220000000  0.5499480000000  0.4069810000000 1.0
C      1  0.3926170000000  0.5468550000000  0.5524590000000 1.0
C      1  0.5190490000000  0.5669580000000  0.5845110000000 1.0
C      1  0.5550360000000  0.4587620000000  0.4009130000000 1.0
C      1  0.4740720000000  0.4919310000000  0.5013310000000 1.0
C      1  0.4317640000000  0.5716970000000  0.4213280000000 1.0
C      1  0.5178040000000  0.4695610000000  0.5342960000000 1.0
C      1  0.6149150000000  0.5663220000000  0.4845110000000 1.0
C      1  0.4665390000000  0.5107630000000  0.3907700000000 1.0
C      1  0.4323210000000  0.4785300000000  0.4546590000000 1.0
C      1  0.3725890000000  0.5110860000000  0.4872380000000 1.0
C      1  0.5533180000000  0.4381950000000  0.5372390000000 1.0
C      1  0.5023300000000  0.5301820000000  0.6162920000000 1.0
C      1  0.5646090000000  0.5117350000000  0.5943540000000 1.0
C      1  0.5875630000000  0.4421790000000  0.5688650000000 1.0
C      1  0.5827680000000  0.4918550000000  0.5790060000000 1.0
C      1  0.4483760000000  0.5634030000000  0.5329620000000 1.0
C      1  0.6010900000000  0.4573070000000  0.4623810000000 1.0
C      1  0.5859100000000  0.6099880000000  0.5519370000000 1.0
C      1  0.4454000000000  0.4942290000000  0.5386840000000 1.0
C      1  0.5282130000000  0.4254440000000  0.5023400000000 1.0
C      1  0.4728430000000  0.4884770000000  0.5296680000000 1.0
C      1  0.4276010000000  0.4384230000000  0.5668590000000 1.0
C      1  0.4852300000000  0.4320040000000  0.6079810000000 1.0
C      1  0.4222620000000  0.5861220000000  0.4961160000000 1.0
C      1  0.5741480000000  0.5328540000000  0.5297300000000 1.0
C      1  0.6020730000000  0.4475590000000  0.4000930000000 1.0
C      1  0.5925450000000  0.5431380000000  0.5484350000000 1.0
C      1  0.3653970000000  0.4841560000000  0.4850550000000 1.0
C      1  0.5671680000000  0.4192250000000  0.4553450000000 1.0
C      1  0.5528120000000  0.5309500000000  0.4800020000000 1.0
C      1  0.4820550000000  0.4052950000000  0.5429630000000 1.0
C      1  0.5552320000000  0.4387140000000  0.5077970000000 1.0
C      1  0.4731410000000  0.5397640000000  0.4540890000000 1.0
C      1  0.4059110000000  0.5425030000000  0.4765560000000 1.0
C      1  0.4774000000000  0.4840510000000  0.3906710000000 1.0
C      1  0.4958060000000  0.4835700000000  0.5455010000000 1.0
C      1  0.5472790000000  0.5624700000000  0.5894570000000 1.0
C      1  0.5328500000000  0.4714460000000  0.4482220000000 1.0
C      1  0.5346840000000  0.4535070000000  0.5503630000000 1.0
C      1  0.6147370000000  0.4826700000000  0.5357860000000 1.0
C      1  0.4444250000000  0.5366500000000  0.5283140000000 1.0
C      1  0.4874330000000  0.5422430000000  0.6357940000000 1.0
C      1  0.4341090000000  0.5422890000000  0.4809700000000 1.0
C      1  0.5084330000000  0.5248520000000  0.5674580000000 1.0
C      1  0.3916230000000  0.5499540000000  0.5014130000000 1.0
C      1  0.5279450000000  0.6010730000000  0.4791790000000 1.0
C      1  0.5791910000000  0.4496170000000  0.4159370000000 1.0
C      1  0.5155070000000  0.3871600000000  0.4643440000000 1.0
C      1  0.5636160000000  0.5406210000000  0.5928360000000 1.0
C      1  0.4026830000000  0.4918020000000  0.5843140000000 1.0
C      1  0.5439100000000  0.5955760000000  0.5238230000000 1.0
C      1  0.4297070000000  0.4971740000000  0.5914770000000 1.0
C      1  0.4250210000000  0.5910070000000  0.4674570000000 1.0
C      1  0.5229810000000  0.5928310000000  0.5053990000000 1.0
C      1  0.5734620000000  0.4878420000000  0.5106060000000 1.0
C      1  0.5461330000000  0.5346670000000  0.5280660000000 1.0
C      1  0.4363800000000  0.4737690000000  0.4830660000000 1.0
C      1  0.4542840000000  0.5270930000000  0.4102760000000 1.0
C      1  0.5270550000000  0.5325540000000  0.4094130000000 1.0
C      1  0.5643780000000  0.5109280000000  0.4350040000000 1.0
C      1  0.5174210000000  0.5041600000000  0.4103190000000 1.0
C      1  0.4189000000000  0.4931930000000  0.5240800000000 1.0
C      1  0.4891560000000  0.3957820000000  0.4748650000000 1.0
C      1  0.6347220000000  0.4451620000000  0.5104080000000 1.0
C      1  0.6214980000000  0.4704570000000  0.5088080000000 1.0
C      1  0.4557130000000  0.4935560000000  0.4458690000000 1.0
C      1  0.4736990000000  0.4315050000000  0.5328680000000 1.0
C      1  0.4507010000000  0.4541320000000  0.5737120000000 1.0
C      1  0.5350360000000  0.5313200000000  0.5021370000000 1.0
C      1  0.5934850000000  0.4237630000000  0.5497940000000 1.0
C      1  0.3843420000000  0.4646510000000  0.4912290000000 1.0
C      1  0.5571690000000  0.5078430000000  0.4630790000000 1.0
C      1  0.5272380000000  0.4843550000000  0.5834860000000 1.0
C      1  0.4203690000000  0.4599220000000  0.4367770000000 1.0
END
