TITL C-247196-3112-438 3.49934494215605e-05 125000 -135.083783443404 0 0 23 (C1) n - 1
REM
REM in /home/nfs/bkarasulu/CARBON/AIRSS/Generating-Clusters/LCBOP/Only-C1/SD-CG/FIRE-HFTN
REM
REM
REM
REM
REM
REM ./C.cell (11c1c37f851c82e70ff6c80c92926a4b)
REM AIRSS Version 0.9.1 bugfix July 2018 build 013d7b7c2542+ Fri, 06 Jul 2018 19:26:36 +0100
REM compiler GCC version 9.2.1 20190827 (Red Hat 9.2.1-1)
REM options -cpp -mtune=generic -march=x86-64 -g -O0 -fpre-include=/usr/include/finclude/math-vector-fortran.h
REM seed -402873228 -305834825 205222051 -1803302867 -763757154 -2132136795 157393462 -522201625 -93881 1416201953 153647391 1409697786 -1333888961 -1675462885 1378236728 -1151119762 -345028132 -1135585209 -1469182012 1084381234 -1559987567 -1475847998 1525843736 -915600434 394349873 49448930 1260004404 1506798772 2126797710 -1054462612 448963078 -1277156181 -1847771319
REM
CELL 1.54180   50.00000   50.00000   50.00000   90.00000   90.00000   90.00000
LATT -1
SFAC C  
C      1  0.4846580000000  0.4918040000000  0.4676960000000 1.0
C      1  0.5092870000000  0.4800140000000  0.5081080000000 1.0
C      1  0.4830060000000  0.4422050000000  0.4699890000000 1.0
C      1  0.5299120000000  0.4217360000000  0.5849310000000 1.0
C      1  0.4953220000000  0.5126990000000  0.4522810000000 1.0
C      1  0.4946620000000  0.4364950000000  0.4935810000000 1.0
C      1  0.4784060000000  0.4660430000000  0.4582520000000 1.0
C      1  0.4873960000000  0.4943690000000  0.4962970000000 1.0
C      1  0.5220450000000  0.4315590000000  0.5616030000000 1.0
C      1  0.4708320000000  0.5852900000000  0.4869810000000 1.0
C      1  0.4607420000000  0.6104980000000  0.4896100000000 1.0
C      1  0.4646360000000  0.5391630000000  0.5123220000000 1.0
C      1  0.5063260000000  0.4522460000000  0.5139320000000 1.0
C      1  0.5136510000000  0.5338440000000  0.4563080000000 1.0
C      1  0.4729580000000  0.5140170000000  0.5098820000000 1.0
C      1  0.5045610000000  0.5602560000000  0.4553280000000 1.0
C      1  0.5142170000000  0.4414160000000  0.5382980000000 1.0
C      1  0.5452040000000  0.5111960000000  0.4898830000000 1.0
C      1  0.4891040000000  0.5787240000000  0.4666950000000 1.0
C      1  0.5344060000000  0.4925910000000  0.5059400000000 1.0
C      1  0.5376500000000  0.4120740000000  0.6078750000000 1.0
C      1  0.4634940000000  0.5645380000000  0.5044200000000 1.0
C      1  0.5375230000000  0.5272220000000  0.4697860000000 1.0
END
