TITL C-247202-1916-350 0.00892572186083919 125000 -437.390016095525 0 0 73 (C1) n - 1
REM
REM in /home/nfs/bkarasulu/CARBON/AIRSS/Generating-Clusters/LCBOP/Only-C1/SD-CG/FIRE-HFTN
REM
REM
REM
REM
REM
REM ./C.cell (11c1c37f851c82e70ff6c80c92926a4b)
REM AIRSS Version 0.9.1 bugfix July 2018 build 013d7b7c2542+ Fri, 06 Jul 2018 19:26:36 +0100
REM compiler GCC version 9.2.1 20190827 (Red Hat 9.2.1-1)
REM options -cpp -mtune=generic -march=x86-64 -g -O0 -fpre-include=/usr/include/finclude/math-vector-fortran.h
REM seed 1252275447 1534430340 -1741316720 31491373 639346231 1941985045 2087796871 1698102407 1960475221 -2115778711 61105602 578157428 998388639 -1449184569 -1260249489 -217423138 -1385266078 -1599575980 -1984651190 -769571872 -164557128 -235428896 -2108537117 1952474854 343503602 429238527 -114335121 204778833 1391345662 -170486277 826320834 1398933273 1561029256
REM
CELL 1.54180   50.00000   50.00000   50.00000   90.00000   90.00000   90.00000
LATT -1
SFAC C  
C      1  0.4717520000000  0.4949540000000  0.4719180000000 1.0
C      1  0.4931750000000  0.4767470000000  0.5729760000000 1.0
C      1  0.5937760000000  0.5379430000000  0.5450380000000 1.0
C      1  0.5381040000000  0.5047310000000  0.5357180000000 1.0
C      1  0.4853760000000  0.4825560000000  0.4178470000000 1.0
C      1  0.4212040000000  0.5008110000000  0.4893580000000 1.0
C      1  0.4435260000000  0.4563060000000  0.4725450000000 1.0
C      1  0.4550740000000  0.4775760000000  0.4554390000000 1.0
C      1  0.5454940000000  0.4299680000000  0.5430680000000 1.0
C      1  0.5095000000000  0.4182900000000  0.4865350000000 1.0
C      1  0.4805470000000  0.4211200000000  0.4878580000000 1.0
C      1  0.6081250000000  0.5187770000000  0.5330510000000 1.0
C      1  0.5070770000000  0.4442020000000  0.4431430000000 1.0
C      1  0.4676180000000  0.4183530000000  0.5127640000000 1.0
C      1  0.4532200000000  0.5469900000000  0.4740720000000 1.0
C      1  0.4434370000000  0.5409750000000  0.4277620000000 1.0
C      1  0.6148230000000  0.4940730000000  0.5250000000000 1.0
C      1  0.5150080000000  0.5161650000000  0.5483790000000 1.0
C      1  0.4572570000000  0.4350660000000  0.5309140000000 1.0
C      1  0.5359700000000  0.4251540000000  0.4889450000000 1.0
C      1  0.5140510000000  0.4580000000000  0.5696000000000 1.0
C      1  0.4734390000000  0.5558980000000  0.3921330000000 1.0
C      1  0.5671070000000  0.4368890000000  0.5258330000000 1.0
C      1  0.5161350000000  0.5317570000000  0.5022790000000 1.0
C      1  0.4675060000000  0.5530270000000  0.4191720000000 1.0
C      1  0.5098040000000  0.4552150000000  0.5222220000000 1.0
C      1  0.5149240000000  0.5112830000000  0.5981640000000 1.0
C      1  0.5296800000000  0.5675470000000  0.5808830000000 1.0
C      1  0.5439570000000  0.4885360000000  0.4888590000000 1.0
C      1  0.5221260000000  0.4455380000000  0.5457570000000 1.0
C      1  0.4924650000000  0.5625750000000  0.3156850000000 1.0
C      1  0.4263850000000  0.5219230000000  0.5714530000000 1.0
C      1  0.5033170000000  0.5648530000000  0.5851230000000 1.0
C      1  0.5207430000000  0.4753780000000  0.4787120000000 1.0
C      1  0.5048070000000  0.4921890000000  0.4366770000000 1.0
C      1  0.5012170000000  0.5534460000000  0.4866720000000 1.0
C      1  0.4797290000000  0.5581350000000  0.3665020000000 1.0
C      1  0.4990450000000  0.5062880000000  0.5723430000000 1.0
C      1  0.4499380000000  0.5179210000000  0.5577580000000 1.0
C      1  0.5586010000000  0.4408540000000  0.4985590000000 1.0
C      1  0.5571770000000  0.4925970000000  0.5517430000000 1.0
C      1  0.4855990000000  0.5615960000000  0.4397690000000 1.0
C      1  0.4619370000000  0.4837940000000  0.5227940000000 1.0
C      1  0.5173950000000  0.4699180000000  0.4509660000000 1.0
C      1  0.4184750000000  0.5149810000000  0.4642790000000 1.0
C      1  0.4645430000000  0.4345480000000  0.4677620000000 1.0
C      1  0.4242540000000  0.4715660000000  0.4881730000000 1.0
C      1  0.4776650000000  0.4844920000000  0.4986790000000 1.0
C      1  0.6082920000000  0.4678390000000  0.5251290000000 1.0
C      1  0.5071920000000  0.5773320000000  0.4337430000000 1.0
C      1  0.4594590000000  0.4613070000000  0.5402660000000 1.0
C      1  0.4744320000000  0.5245160000000  0.5713540000000 1.0
C      1  0.4481120000000  0.5070810000000  0.5311580000000 1.0
C      1  0.5539220000000  0.5620680000000  0.5709280000000 1.0
C      1  0.5635840000000  0.4677540000000  0.4893780000000 1.0
C      1  0.4664240000000  0.4658470000000  0.4311330000000 1.0
C      1  0.4332160000000  0.5182750000000  0.5099070000000 1.0
C      1  0.5739700000000  0.4724170000000  0.5565400000000 1.0
C      1  0.4676030000000  0.4667450000000  0.5666770000000 1.0
C      1  0.4804370000000  0.5537020000000  0.4669010000000 1.0
C      1  0.5859180000000  0.4554710000000  0.5371620000000 1.0
C      1  0.5751880000000  0.5519510000000  0.5582380000000 1.0
C      1  0.4861490000000  0.5603740000000  0.3408830000000 1.0
C      1  0.4983590000000  0.5750350000000  0.5061980000000 1.0
C      1  0.5020780000000  0.4699990000000  0.4996170000000 1.0
C      1  0.4431760000000  0.5431740000000  0.5001640000000 1.0
C      1  0.4917780000000  0.5084210000000  0.4564780000000 1.0
C      1  0.4784910000000  0.4410650000000  0.4424120000000 1.0
C      1  0.4807710000000  0.5505050000000  0.5814250000000 1.0
C      1  0.4359780000000  0.5350180000000  0.4540400000000 1.0
C      1  0.4992280000000  0.5649450000000  0.5316860000000 1.0
C      1  0.5370870000000  0.5101750000000  0.5065660000000 1.0
C      1  0.5070700000000  0.5374820000000  0.5311370000000 1.0
END
