TITL C-247202-1916-162 991.495880357535 125000 -709.824472381105 0 0 117 (C1) n - 1
REM
REM in /home/nfs/bkarasulu/CARBON/AIRSS/Generating-Clusters/LCBOP/Only-C1/SD-CG/FIRE-HFTN
REM
REM
REM
REM
REM
REM ./C.cell (11c1c37f851c82e70ff6c80c92926a4b)
REM AIRSS Version 0.9.1 bugfix July 2018 build 013d7b7c2542+ Fri, 06 Jul 2018 19:26:36 +0100
REM compiler GCC version 9.2.1 20190827 (Red Hat 9.2.1-1)
REM options -cpp -mtune=generic -march=x86-64 -g -O0 -fpre-include=/usr/include/finclude/math-vector-fortran.h
REM seed -150837163 -1767576184 580702493 -971858700 -727684600 -212868565 -1115253678 2078443471 772323602 1503885817 -534735557 906753957 -1726808489 991427076 -1385012085 -610690095 845503896 -621481990 331639645 152747467 -2107937847 -1807920483 -279629931 1775519991 -883809218 766401994 -1476303820 -2123208168 54061548 1823836139 -49755342 -1322421066 128357621
REM
CELL 1.54180   50.00000   50.00000   50.00000   90.00000   90.00000   90.00000
LATT -1
SFAC C  
C      1  0.4422930000000  0.5435180000000  0.5634190000000 1.0
C      1  0.4975530000000  0.4499950000000  0.4852900000000 1.0
C      1  0.5055180000000  0.5362760000000  0.4584810000000 1.0
C      1  0.4246630000000  0.5235530000000  0.4487250000000 1.0
C      1  0.5437260000000  0.4830830000000  0.4712560000000 1.0
C      1  0.5316390000000  0.4496620000000  0.4085760000000 1.0
C      1  0.4638840000000  0.4478480000000  0.4375180000000 1.0
C      1  0.5095690000000  0.4981720000000  0.4353190000000 1.0
C      1  0.5117140000000  0.5945370000000  0.4947280000000 1.0
C      1  0.4774400000000  0.4842250000000  0.5502750000000 1.0
C      1  0.4671270000000  0.4414540000000  0.4850620000000 1.0
C      1  0.4422210000000  0.5936210000000  0.5668070000000 1.0
C      1  0.5023810000000  0.5655860000000  0.5963210000000 1.0
C      1  0.4178600000000  0.6027400000000  0.5751420000000 1.0
C      1  0.4681660000000  0.4886600000000  0.4689170000000 1.0
C      1  0.4891320000000  0.4106340000000  0.5283280000000 1.0
C      1  0.3817020000000  0.4553740000000  0.4384810000000 1.0
C      1  0.5677720000000  0.5113100000000  0.5562930000000 1.0
C      1  0.4470200000000  0.4446210000000  0.5637150000000 1.0
C      1  0.5255580000000  0.4570980000000  0.5763080000000 1.0
C      1  0.4454050000000  0.4202030000000  0.5486720000000 1.0
C      1  0.5294830000000  0.4196340000000  0.4601980000000 1.0
C      1  0.4584640000000  0.6086630000000  0.5493520000000 1.0
C      1  0.5683360000000  0.4251820000000  0.5205750000000 1.0
C      1  0.4495670000000  0.4260680000000  0.5010700000000 1.0
C      1  0.5253580000000  0.5161160000000  0.4527520000000 1.0
C      1  0.4929980000000  0.5415730000000  0.4325600000000 1.0
C      1  0.4278180000000  0.4756680000000  0.5240800000000 1.0
C      1  0.4735690000000  0.5613320000000  0.4354130000000 1.0
C      1  0.4506890000000  0.5521660000000  0.5173720000000 1.0
C      1  0.4887460000000  0.5894580000000  0.5130850000000 1.0
C      1  0.4909950000000  0.5411520000000  0.5044390000000 1.0
C      1  0.5884800000000  0.4575380000000  0.4834020000000 1.0
C      1  0.5979600000000  0.5091520000000  0.4893380000000 1.0
C      1  0.5267930000000  0.5493430000000  0.5312310000000 1.0
C      1  0.5860920000000  0.4493000000000  0.5121280000000 1.0
C      1  0.5620490000000  0.5831010000000  0.5208760000000 1.0
C      1  0.5695600000000  0.4445730000000  0.4666060000000 1.0
C      1  0.5082820000000  0.4975720000000  0.5004730000000 1.0
C      1  0.5660670000000  0.5412500000000  0.5577080000000 1.0
C      1  0.5209490000000  0.5472290000000  0.5850200000000 1.0
C      1  0.5525000000000  0.5682830000000  0.4327360000000 1.0
C      1  0.5487740000000  0.5494330000000  0.5797860000000 1.0
C      1  0.5813860000000  0.5290330000000  0.4969530000000 1.0
C      1  0.5540010000000  0.4642680000000  0.4529410000000 1.0
C      1  0.4449450000000  0.4431050000000  0.4177420000000 1.0
C      1  0.5145600000000  0.5476260000000  0.4126740000000 1.0
C      1  0.4534040000000  0.5092020000000  0.4888700000000 1.0
C      1  0.5319110000000  0.3934160000000  0.5054270000000 1.0
C      1  0.4984630000000  0.4493730000000  0.5840570000000 1.0
C      1  0.4314650000000  0.5449790000000  0.5366460000000 1.0
C      1  0.5902690000000  0.4712010000000  0.5308370000000 1.0
C      1  0.4032070000000  0.4797790000000  0.4803450000000 1.0
C      1  0.5550480000000  0.4099230000000  0.4990490000000 1.0
C      1  0.4988310000000  0.5173090000000  0.5181580000000 1.0
C      1  0.4453290000000  0.5585230000000  0.4722120000000 1.0
C      1  0.4821210000000  0.4955880000000  0.4431440000000 1.0
C      1  0.3945740000000  0.4452790000000  0.4174130000000 1.0
C      1  0.4523760000000  0.5682850000000  0.5756240000000 1.0
C      1  0.5561000000000  0.5373220000000  0.4879640000000 1.0
C      1  0.5359940000000  0.4929150000000  0.4964410000000 1.0
C      1  0.5762610000000  0.5212720000000  0.4255170000000 1.0
C      1  0.5299880000000  0.5249730000000  0.4015910000000 1.0
C      1  0.4017240000000  0.5251710000000  0.4988000000000 1.0
C      1  0.5568770000000  0.4981050000000  0.5796340000000 1.0
C      1  0.4843130000000  0.4604830000000  0.5410350000000 1.0
C      1  0.5708590000000  0.4922030000000  0.5346310000000 1.0
C      1  0.4925000000000  0.4803660000000  0.4856880000000 1.0
C      1  0.4482430000000  0.5384170000000  0.4917070000000 1.0
C      1  0.5340820000000  0.5529840000000  0.5002540000000 1.0
C      1  0.5064390000000  0.4407950000000  0.4119090000000 1.0
C      1  0.5127330000000  0.5261590000000  0.5415520000000 1.0
C      1  0.4956220000000  0.4384590000000  0.5293750000000 1.0
C      1  0.4083070000000  0.5088520000000  0.4756520000000 1.0
C      1  0.5391210000000  0.5834790000000  0.5018430000000 1.0
C      1  0.4573560000000  0.4594670000000  0.4632330000000 1.0
C      1  0.4768840000000  0.5631170000000  0.5155480000000 1.0
C      1  0.5144070000000  0.3953730000000  0.5285390000000 1.0
C      1  0.4520040000000  0.4928990000000  0.5602510000000 1.0
C      1  0.4197180000000  0.4410710000000  0.4095670000000 1.0
C      1  0.5497660000000  0.5295680000000  0.4612530000000 1.0
C      1  0.5588880000000  0.5210860000000  0.4020560000000 1.0
C      1  0.5644630000000  0.5433420000000  0.4410660000000 1.0
C      1  0.4815960000000  0.5210080000000  0.5802290000000 1.0
C      1  0.4759220000000  0.5695330000000  0.5917690000000 1.0
C      1  0.4135920000000  0.4626300000000  0.5026090000000 1.0
C      1  0.5162890000000  0.5007140000000  0.4079460000000 1.0
C      1  0.4545780000000  0.5186930000000  0.5713940000000 1.0
C      1  0.4476930000000  0.5509940000000  0.4458260000000 1.0
C      1  0.5523840000000  0.4228980000000  0.5463180000000 1.0
C      1  0.5341300000000  0.4005320000000  0.5497350000000 1.0
C      1  0.4596020000000  0.4122310000000  0.5249160000000 1.0
C      1  0.5253770000000  0.5723580000000  0.4243050000000 1.0
C      1  0.5344480000000  0.4602640000000  0.5272910000000 1.0
C      1  0.5896350000000  0.5001490000000  0.4423380000000 1.0
C      1  0.5476830000000  0.4840070000000  0.5199770000000 1.0
C      1  0.4444070000000  0.4953820000000  0.5120450000000 1.0
C      1  0.4912430000000  0.4395910000000  0.4355790000000 1.0
C      1  0.5392180000000  0.4793000000000  0.5876390000000 1.0
C      1  0.5147060000000  0.4470720000000  0.5101530000000 1.0
C      1  0.5065060000000  0.4358960000000  0.4599240000000 1.0
C      1  0.5043820000000  0.5976710000000  0.4668170000000 1.0
C      1  0.5546630000000  0.4212740000000  0.4730540000000 1.0
C      1  0.4352940000000  0.4700610000000  0.5522070000000 1.0
C      1  0.4079070000000  0.5347460000000  0.5237470000000 1.0
C      1  0.5491370000000  0.4607380000000  0.4256340000000 1.0
C      1  0.5389150000000  0.4474800000000  0.5525860000000 1.0
C      1  0.5230220000000  0.5729500000000  0.5454470000000 1.0
C      1  0.4767850000000  0.6086890000000  0.5298030000000 1.0
C      1  0.5715920000000  0.5632570000000  0.5385540000000 1.0
C      1  0.5089510000000  0.5474050000000  0.4838790000000 1.0
C      1  0.4223510000000  0.4354760000000  0.4993760000000 1.0
C      1  0.4983050000000  0.5867770000000  0.4415400000000 1.0
C      1  0.5955590000000  0.4886820000000  0.4697460000000 1.0
C      1  0.3858460000000  0.4673930000000  0.4618500000000 1.0
C      1  0.5067830000000  0.5273230000000  0.5694310000000 1.0
C      1  0.4710810000000  0.4461060000000  0.5813080000000 1.0
END
