TITL C-247195-3186-620 4317.02529236657 125000 -894.661499636741 0 0 147 (C1) n - 1
REM
REM in /home/nfs/bkarasulu/CARBON/AIRSS/Generating-Clusters/LCBOP/Only-C1/SD-CG/FIRE-HFTN
REM
REM
REM
REM
REM
REM ./C.cell (11c1c37f851c82e70ff6c80c92926a4b)
REM AIRSS Version 0.9.1 bugfix July 2018 build 013d7b7c2542+ Fri, 06 Jul 2018 19:26:36 +0100
REM compiler GCC version 9.2.1 20190827 (Red Hat 9.2.1-1)
REM options -cpp -mtune=generic -march=x86-64 -g -O0 -fpre-include=/usr/include/finclude/math-vector-fortran.h
REM seed -830308350 -1475407634 1138668923 -856068337 -495338839 -461620195 1705007719 443761665 560182554 -411042340 -1827152271 2137711560 749317073 -2007479663 932144910 58119704 -297021706 -1418920763 -1884643680 504249611 1489748000 1632668588 -844766942 1979796973 105596855 -1522803534 -1973241815 -1531080513 -1801566222 623950694 1382028277 -759249076 1356200309
REM
CELL 1.54180   50.00000   50.00000   50.00000   90.00000   90.00000   90.00000
LATT -1
SFAC C  
C      1  0.4695920000000  0.5640240000000  0.4789920000000 1.0
C      1  0.5280780000000  0.4358480000000  0.6303300000000 1.0
C      1  0.5721360000000  0.4278880000000  0.5205010000000 1.0
C      1  0.4405520000000  0.4090110000000  0.5046910000000 1.0
C      1  0.4666080000000  0.5845220000000  0.5196850000000 1.0
C      1  0.4404780000000  0.4530280000000  0.5282260000000 1.0
C      1  0.6149940000000  0.4750690000000  0.5195460000000 1.0
C      1  0.4363530000000  0.5171090000000  0.5193480000000 1.0
C      1  0.4884720000000  0.4791320000000  0.5268510000000 1.0
C      1  0.4436730000000  0.4067540000000  0.4766140000000 1.0
C      1  0.5677690000000  0.5031780000000  0.4096210000000 1.0
C      1  0.5938960000000  0.4706890000000  0.5374240000000 1.0
C      1  0.4860420000000  0.4350700000000  0.5586070000000 1.0
C      1  0.4963420000000  0.4419270000000  0.4308720000000 1.0
C      1  0.5337650000000  0.4378580000000  0.6049800000000 1.0
C      1  0.4773250000000  0.4228680000000  0.5326370000000 1.0
C      1  0.5233830000000  0.5975770000000  0.5493600000000 1.0
C      1  0.5576770000000  0.5920420000000  0.5059190000000 1.0
C      1  0.5347090000000  0.5992690000000  0.4894810000000 1.0
C      1  0.4696830000000  0.4316340000000  0.4401350000000 1.0
C      1  0.3598510000000  0.5227030000000  0.4758610000000 1.0
C      1  0.5496920000000  0.5041970000000  0.6024120000000 1.0
C      1  0.5292120000000  0.4387840000000  0.5324950000000 1.0
C      1  0.5129540000000  0.5319180000000  0.4317340000000 1.0
C      1  0.4873300000000  0.4592700000000  0.5025810000000 1.0
C      1  0.5233560000000  0.5567040000000  0.4748810000000 1.0
C      1  0.5546130000000  0.4433180000000  0.4142610000000 1.0
C      1  0.5389460000000  0.3961890000000  0.5080470000000 1.0
C      1  0.4580720000000  0.4781960000000  0.5843690000000 1.0
C      1  0.3999010000000  0.5284380000000  0.5650630000000 1.0
C      1  0.5079370000000  0.4767970000000  0.5550560000000 1.0
C      1  0.5306330000000  0.3706580000000  0.5111370000000 1.0
C      1  0.3909920000000  0.5340140000000  0.5114380000000 1.0
C      1  0.5731890000000  0.5426360000000  0.5849840000000 1.0
C      1  0.4957480000000  0.5073190000000  0.5123820000000 1.0
C      1  0.5052340000000  0.5287270000000  0.4041150000000 1.0
C      1  0.3979850000000  0.4929450000000  0.4758650000000 1.0
C      1  0.5098620000000  0.5490040000000  0.3852640000000 1.0
C      1  0.3379790000000  0.5303610000000  0.4630370000000 1.0
C      1  0.5619650000000  0.5250050000000  0.4264500000000 1.0
C      1  0.3874040000000  0.5265640000000  0.5391250000000 1.0
C      1  0.5313850000000  0.5403840000000  0.4969560000000 1.0
C      1  0.4930550000000  0.4152810000000  0.4824640000000 1.0
C      1  0.4777660000000  0.4985620000000  0.5849150000000 1.0
C      1  0.5356050000000  0.4614520000000  0.5162230000000 1.0
C      1  0.5694180000000  0.5485970000000  0.5577320000000 1.0
C      1  0.5739660000000  0.5156570000000  0.5939870000000 1.0
C      1  0.5793280000000  0.5259050000000  0.5001720000000 1.0
C      1  0.5771650000000  0.4458920000000  0.4287590000000 1.0
C      1  0.5470780000000  0.4870170000000  0.3990730000000 1.0
C      1  0.4691900000000  0.4147750000000  0.4649700000000 1.0
C      1  0.4500560000000  0.5156450000000  0.4952480000000 1.0
C      1  0.5153030000000  0.4459480000000  0.5582450000000 1.0
C      1  0.4690960000000  0.4659880000000  0.4819890000000 1.0
C      1  0.4178990000000  0.4685860000000  0.5234360000000 1.0
C      1  0.4615600000000  0.4987030000000  0.4481720000000 1.0
C      1  0.5115450000000  0.5329240000000  0.6031670000000 1.0
C      1  0.5648590000000  0.4430430000000  0.5661860000000 1.0
C      1  0.5230870000000  0.5080090000000  0.5948580000000 1.0
C      1  0.5383750000000  0.4421050000000  0.5778460000000 1.0
C      1  0.4191300000000  0.4046180000000  0.4627870000000 1.0
C      1  0.5212150000000  0.5733490000000  0.3849890000000 1.0
C      1  0.5954240000000  0.5647080000000  0.4699190000000 1.0
C      1  0.4771920000000  0.5132660000000  0.4889610000000 1.0
C      1  0.5457410000000  0.4158250000000  0.5276000000000 1.0
C      1  0.4048940000000  0.5597970000000  0.5079200000000 1.0
C      1  0.4487360000000  0.4256640000000  0.5256440000000 1.0
C      1  0.4564730000000  0.4599230000000  0.3547540000000 1.0
C      1  0.5426140000000  0.4856940000000  0.5278650000000 1.0
C      1  0.4902510000000  0.4305380000000  0.5071740000000 1.0
C      1  0.6350160000000  0.4876430000000  0.5042670000000 1.0
C      1  0.4450780000000  0.5879020000000  0.5695720000000 1.0
C      1  0.5896480000000  0.5563630000000  0.5397730000000 1.0
C      1  0.5858770000000  0.5510820000000  0.5123610000000 1.0
C      1  0.4614910000000  0.4688810000000  0.5402660000000 1.0
C      1  0.4194230000000  0.5765310000000  0.5598140000000 1.0
C      1  0.3890600000000  0.4448790000000  0.4629980000000 1.0
C      1  0.5826530000000  0.4933040000000  0.5510900000000 1.0
C      1  0.5061270000000  0.4581790000000  0.4084640000000 1.0
C      1  0.5351180000000  0.4617520000000  0.4050700000000 1.0
C      1  0.5321630000000  0.5772200000000  0.4315560000000 1.0
C      1  0.5649840000000  0.5157950000000  0.4772380000000 1.0
C      1  0.5992230000000  0.5371850000000  0.4571820000000 1.0
C      1  0.3166280000000  0.5385510000000  0.4496340000000 1.0
C      1  0.5129990000000  0.5813040000000  0.4866200000000 1.0
C      1  0.4829330000000  0.5109090000000  0.4612530000000 1.0
C      1  0.4784760000000  0.5822250000000  0.6236810000000 1.0
C      1  0.6127620000000  0.5095080000000  0.4587810000000 1.0
C      1  0.4666910000000  0.4567800000000  0.5669620000000 1.0
C      1  0.5806290000000  0.4455780000000  0.5417000000000 1.0
C      1  0.5462770000000  0.5958300000000  0.5336180000000 1.0
C      1  0.4634450000000  0.6116280000000  0.5218720000000 1.0
C      1  0.4740130000000  0.5867920000000  0.5753150000000 1.0
C      1  0.4711460000000  0.4667030000000  0.3752010000000 1.0
C      1  0.4315450000000  0.4619480000000  0.4504090000000 1.0
C      1  0.4869840000000  0.5441640000000  0.5948530000000 1.0
C      1  0.6612320000000  0.4854130000000  0.5118400000000 1.0
C      1  0.4181070000000  0.5642470000000  0.4828650000000 1.0
C      1  0.4471930000000  0.5375630000000  0.5358260000000 1.0
C      1  0.5270770000000  0.4630820000000  0.4622910000000 1.0
C      1  0.5443120000000  0.4109720000000  0.4827770000000 1.0
C      1  0.5935120000000  0.4927410000000  0.4159700000000 1.0
C      1  0.4692410000000  0.5304590000000  0.5510930000000 1.0
C      1  0.4939300000000  0.5040830000000  0.3962420000000 1.0
C      1  0.4982660000000  0.5956770000000  0.5609110000000 1.0
C      1  0.4189320000000  0.5728220000000  0.5306520000000 1.0
C      1  0.5497930000000  0.5331110000000  0.5431410000000 1.0
C      1  0.2958140000000  0.5467700000000  0.4362590000000 1.0
C      1  0.4310240000000  0.4878430000000  0.5850640000000 1.0
C      1  0.4881380000000  0.5732750000000  0.5025540000000 1.0
C      1  0.4192720000000  0.4954510000000  0.5245920000000 1.0
C      1  0.5319100000000  0.5477360000000  0.5249130000000 1.0
C      1  0.4913430000000  0.5291320000000  0.5338570000000 1.0
C      1  0.6283670000000  0.5024840000000  0.4813140000000 1.0
C      1  0.5861740000000  0.4453320000000  0.4748470000000 1.0
C      1  0.4053780000000  0.4680730000000  0.4618590000000 1.0
C      1  0.5802430000000  0.5738150000000  0.4948260000000 1.0
C      1  0.5359390000000  0.4588870000000  0.4887510000000 1.0
C      1  0.5704080000000  0.4271630000000  0.4902760000000 1.0
C      1  0.5579140000000  0.5048260000000  0.5410050000000 1.0
C      1  0.4799100000000  0.5711310000000  0.5987390000000 1.0
C      1  0.5169680000000  0.4395710000000  0.4508440000000 1.0
C      1  0.5053590000000  0.4920750000000  0.5784320000000 1.0
C      1  0.5231360000000  0.5126950000000  0.4978270000000 1.0
C      1  0.5408270000000  0.5019930000000  0.4786950000000 1.0
C      1  0.5191510000000  0.4174180000000  0.4689450000000 1.0
C      1  0.4062240000000  0.5551770000000  0.5733970000000 1.0
C      1  0.5074030000000  0.5093410000000  0.4478490000000 1.0
C      1  0.4431170000000  0.4420530000000  0.4325170000000 1.0
C      1  0.4299780000000  0.4331840000000  0.4096100000000 1.0
C      1  0.6015450000000  0.4861400000000  0.4430260000000 1.0
C      1  0.4467900000000  0.5651250000000  0.5268310000000 1.0
C      1  0.5316440000000  0.5861930000000  0.4062540000000 1.0
C      1  0.4121850000000  0.5060430000000  0.5779940000000 1.0
C      1  0.4153910000000  0.4229600000000  0.3905850000000 1.0
C      1  0.3963450000000  0.4189310000000  0.4612490000000 1.0
C      1  0.5230880000000  0.5548960000000  0.4462720000000 1.0
C      1  0.5900440000000  0.4992610000000  0.5775920000000 1.0
C      1  0.5905710000000  0.4593140000000  0.4504590000000 1.0
C      1  0.5715790000000  0.5285380000000  0.4524260000000 1.0
C      1  0.4722600000000  0.5258670000000  0.5786080000000 1.0
C      1  0.4432480000000  0.5644670000000  0.4729190000000 1.0
C      1  0.4525350000000  0.4761330000000  0.4617590000000 1.0
C      1  0.3843880000000  0.5160490000000  0.4884030000000 1.0
C      1  0.5265690000000  0.4906440000000  0.4567910000000 1.0
C      1  0.4896560000000  0.4763000000000  0.3937290000000 1.0
C      1  0.5043930000000  0.5528080000000  0.5285890000000 1.0
END
