TITL C-247201-3759-480 -2.26569429117071e-07 125000 -710.028309166379 0 0 116 (C1) n - 1
REM
REM in /home/nfs/bkarasulu/CARBON/AIRSS/Generating-Clusters/LCBOP/Only-C1/SD-CG/FIRE-HFTN
REM
REM
REM
REM
REM
REM ./C.cell (11c1c37f851c82e70ff6c80c92926a4b)
REM AIRSS Version 0.9.1 bugfix July 2018 build 013d7b7c2542+ Fri, 06 Jul 2018 19:26:36 +0100
REM compiler GCC version 9.2.1 20190827 (Red Hat 9.2.1-1)
REM options -cpp -mtune=generic -march=x86-64 -g -O0 -fpre-include=/usr/include/finclude/math-vector-fortran.h
REM seed -1940447559 1878210681 -814972122 -525702606 179734420 1247195998 1707253060 1411153778 2047767852 875585297 -1510894525 -1100356180 -1810757606 1180913787 1809905100 -484004477 1599431173 -1559866607 2003807323 1969423177 544052288 1721503323 -401654312 -2121483038 -1868812884 -528020843 -680859064 943477625 -1775522857 -74091015 -1283329819 1129603478 550783490
REM
CELL 1.54180   50.00000   50.00000   50.00000   90.00000   90.00000   90.00000
LATT -1
SFAC C  
C      1  0.4821220000000  0.5711190000000  0.4485530000000 1.0
C      1  0.5395300000000  0.4958610000000  0.5142750000000 1.0
C      1  0.5602560000000  0.4460220000000  0.4216850000000 1.0
C      1  0.5567790000000  0.5535470000000  0.4491120000000 1.0
C      1  0.6047740000000  0.5319130000000  0.5072980000000 1.0
C      1  0.4911680000000  0.4823530000000  0.5992140000000 1.0
C      1  0.5633160000000  0.4569990000000  0.4475840000000 1.0
C      1  0.4671630000000  0.5895860000000  0.5170220000000 1.0
C      1  0.4435020000000  0.5078400000000  0.5908590000000 1.0
C      1  0.5942550000000  0.4408520000000  0.5327500000000 1.0
C      1  0.5278970000000  0.3802790000000  0.4922500000000 1.0
C      1  0.5302580000000  0.5214160000000  0.4281810000000 1.0
C      1  0.4442760000000  0.4314170000000  0.5361860000000 1.0
C      1  0.5771040000000  0.4815830000000  0.4546140000000 1.0
C      1  0.4973000000000  0.5072220000000  0.4835650000000 1.0
C      1  0.5484780000000  0.4164880000000  0.5234320000000 1.0
C      1  0.5134110000000  0.5927420000000  0.5413180000000 1.0
C      1  0.5340300000000  0.5599310000000  0.5862060000000 1.0
C      1  0.5302790000000  0.5740650000000  0.4828930000000 1.0
C      1  0.4457160000000  0.5361630000000  0.5892760000000 1.0
C      1  0.4786550000000  0.4373600000000  0.4364790000000 1.0
C      1  0.5122110000000  0.4801150000000  0.4452500000000 1.0
C      1  0.6195270000000  0.4855030000000  0.5244030000000 1.0
C      1  0.5754870000000  0.4750990000000  0.3789670000000 1.0
C      1  0.5519520000000  0.5253930000000  0.4462070000000 1.0
C      1  0.5013320000000  0.5692780000000  0.5459200000000 1.0
C      1  0.4944650000000  0.5317710000000  0.4011990000000 1.0
C      1  0.4235070000000  0.4345320000000  0.4720900000000 1.0
C      1  0.5300190000000  0.5988770000000  0.4957310000000 1.0
C      1  0.4210300000000  0.5042100000000  0.5000520000000 1.0
C      1  0.5087510000000  0.5645510000000  0.4392930000000 1.0
C      1  0.5560340000000  0.4416660000000  0.4709360000000 1.0
C      1  0.4416000000000  0.4409850000000  0.5644560000000 1.0
C      1  0.5498980000000  0.5172510000000  0.5283620000000 1.0
C      1  0.4173880000000  0.4798530000000  0.4826020000000 1.0
C      1  0.4874250000000  0.4923620000000  0.5357080000000 1.0
C      1  0.5470970000000  0.5479360000000  0.5645360000000 1.0
C      1  0.5235450000000  0.4546310000000  0.5458400000000 1.0
C      1  0.3959810000000  0.5119180000000  0.5156580000000 1.0
C      1  0.4225150000000  0.6187040000000  0.4447780000000 1.0
C      1  0.4376390000000  0.5989610000000  0.4564320000000 1.0
C      1  0.5546880000000  0.5446230000000  0.5155500000000 1.0
C      1  0.5172660000000  0.4915290000000  0.4709580000000 1.0
C      1  0.4279620000000  0.5715090000000  0.5033480000000 1.0
C      1  0.4716050000000  0.5574480000000  0.4719690000000 1.0
C      1  0.4839850000000  0.5496460000000  0.5407350000000 1.0
C      1  0.5995850000000  0.4571990000000  0.4902110000000 1.0
C      1  0.4531420000000  0.5803460000000  0.5666190000000 1.0
C      1  0.4541430000000  0.4766110000000  0.4191990000000 1.0
C      1  0.4230900000000  0.4925500000000  0.5779050000000 1.0
C      1  0.6181120000000  0.5114420000000  0.5180670000000 1.0
C      1  0.4474900000000  0.4262600000000  0.5865440000000 1.0
C      1  0.5479160000000  0.4208790000000  0.4192310000000 1.0
C      1  0.5093360000000  0.3958220000000  0.4447410000000 1.0
C      1  0.4683540000000  0.4262020000000  0.5222920000000 1.0
C      1  0.5735860000000  0.4277730000000  0.5172690000000 1.0
C      1  0.4731270000000  0.4640560000000  0.4921390000000 1.0
C      1  0.5432870000000  0.5203450000000  0.5565510000000 1.0
C      1  0.4630970000000  0.5072480000000  0.5314020000000 1.0
C      1  0.5125290000000  0.5439800000000  0.4199730000000 1.0
C      1  0.5769670000000  0.4385080000000  0.4901660000000 1.0
C      1  0.4259020000000  0.4484280000000  0.5208610000000 1.0
C      1  0.4853080000000  0.4102530000000  0.4403740000000 1.0
C      1  0.4397130000000  0.4944450000000  0.4370990000000 1.0
C      1  0.5081830000000  0.5313630000000  0.4945960000000 1.0
C      1  0.5298460000000  0.5500710000000  0.4986560000000 1.0
C      1  0.5605920000000  0.5033110000000  0.4635500000000 1.0
C      1  0.5420170000000  0.4947330000000  0.4851440000000 1.0
C      1  0.5290570000000  0.4379370000000  0.4786360000000 1.0
C      1  0.4616100000000  0.5361790000000  0.5302850000000 1.0
C      1  0.4996370000000  0.4556190000000  0.4412320000000 1.0
C      1  0.4652880000000  0.4931060000000  0.6006010000000 1.0
C      1  0.4600190000000  0.5606250000000  0.5861340000000 1.0
C      1  0.5151520000000  0.3822650000000  0.4687560000000 1.0
C      1  0.5246050000000  0.5005430000000  0.5650000000000 1.0
C      1  0.4840970000000  0.4407680000000  0.5035510000000 1.0
C      1  0.4480750000000  0.5200320000000  0.4448530000000 1.0
C      1  0.5557980000000  0.5617690000000  0.5408770000000 1.0
C      1  0.5307410000000  0.4022420000000  0.4275170000000 1.0
C      1  0.5156550000000  0.4972650000000  0.4230520000000 1.0
C      1  0.4362240000000  0.5283180000000  0.4905730000000 1.0
C      1  0.4282170000000  0.5871900000000  0.4809400000000 1.0
C      1  0.6007350000000  0.4760170000000  0.4692910000000 1.0
C      1  0.4244820000000  0.4776790000000  0.4547890000000 1.0
C      1  0.4304380000000  0.4682580000000  0.5642050000000 1.0
C      1  0.4856310000000  0.5621810000000  0.5984830000000 1.0
C      1  0.4966360000000  0.4577380000000  0.6096040000000 1.0
C      1  0.4724540000000  0.4864380000000  0.4007010000000 1.0
C      1  0.4751990000000  0.4904490000000  0.4876070000000 1.0
C      1  0.4536170000000  0.4494460000000  0.4305400000000 1.0
C      1  0.5132600000000  0.5235000000000  0.6065390000000 1.0
C      1  0.5687500000000  0.4599830000000  0.3990980000000 1.0
C      1  0.4945530000000  0.5029720000000  0.4036200000000 1.0
C      1  0.5113910000000  0.5003530000000  0.5904870000000 1.0
C      1  0.4404780000000  0.5469170000000  0.5124760000000 1.0
C      1  0.5813850000000  0.5442680000000  0.5029290000000 1.0
C      1  0.4571070000000  0.5916300000000  0.5422690000000 1.0
C      1  0.4181470000000  0.4521780000000  0.4942160000000 1.0
C      1  0.4621680000000  0.5910930000000  0.4434730000000 1.0
C      1  0.5327520000000  0.5688270000000  0.4553300000000 1.0
C      1  0.6088100000000  0.4607550000000  0.5175070000000 1.0
C      1  0.4005330000000  0.5058840000000  0.5664890000000 1.0
C      1  0.5161410000000  0.4831380000000  0.5407200000000 1.0
C      1  0.5269000000000  0.4354320000000  0.5254580000000 1.0
C      1  0.4524400000000  0.5353540000000  0.4680430000000 1.0
C      1  0.5121320000000  0.4374990000000  0.5012900000000 1.0
C      1  0.5811070000000  0.5651830000000  0.4450550000000 1.0
C      1  0.4277690000000  0.4725290000000  0.5360060000000 1.0
C      1  0.3906430000000  0.5125560000000  0.5422330000000 1.0
C      1  0.5411600000000  0.3912030000000  0.5129140000000 1.0
C      1  0.4741470000000  0.5741240000000  0.4956460000000 1.0
C      1  0.4389260000000  0.4945290000000  0.5234460000000 1.0
C      1  0.5114000000000  0.5508510000000  0.6003770000000 1.0
C      1  0.5240760000000  0.6063550000000  0.5208200000000 1.0
C      1  0.4313010000000  0.4489380000000  0.4487100000000 1.0
C      1  0.5306570000000  0.4469550000000  0.5713000000000 1.0
END
