TITL C-247196-3112-384 557.948628269396 125000 -958.217262350272 0 0 157 (C1) n - 1
REM
REM in /home/nfs/bkarasulu/CARBON/AIRSS/Generating-Clusters/LCBOP/Only-C1/SD-CG/FIRE-HFTN
REM
REM
REM
REM
REM
REM ./C.cell (11c1c37f851c82e70ff6c80c92926a4b)
REM AIRSS Version 0.9.1 bugfix July 2018 build 013d7b7c2542+ Fri, 06 Jul 2018 19:26:36 +0100
REM compiler GCC version 9.2.1 20190827 (Red Hat 9.2.1-1)
REM options -cpp -mtune=generic -march=x86-64 -g -O0 -fpre-include=/usr/include/finclude/math-vector-fortran.h
REM seed 1180075043 -422207490 922777665 1840726739 -581014407 -649165487 -1379081439 -1847401053 1868873464 1750336889 -304422652 896191735 171923264 1401705592 -538205252 -1729761034 1509006197 -713143013 -864700514 -862276253 2133192164 -406845402 1009083400 -25776265 -1039211496 -32208548 -1356702438 -611483330 1245637660 23090134 127339621 -1438240195 1365690240
REM
CELL 1.54180   50.00000   50.00000   50.00000   90.00000   90.00000   90.00000
LATT -1
SFAC C  
C      1  0.5455610000000  0.5248540000000  0.4323260000000 1.0
C      1  0.3625730000000  0.4444280000000  0.5719880000000 1.0
C      1  0.4855390000000  0.4027580000000  0.5721340000000 1.0
C      1  0.4040170000000  0.4796070000000  0.4785350000000 1.0
C      1  0.4308650000000  0.4530410000000  0.4427490000000 1.0
C      1  0.4530190000000  0.6065710000000  0.5404650000000 1.0
C      1  0.6023730000000  0.5361710000000  0.5092460000000 1.0
C      1  0.5896310000000  0.5722010000000  0.4622100000000 1.0
C      1  0.5269260000000  0.5906080000000  0.5489490000000 1.0
C      1  0.6061700000000  0.5056610000000  0.4296370000000 1.0
C      1  0.4786600000000  0.4935210000000  0.4827860000000 1.0
C      1  0.4440980000000  0.5173190000000  0.5617200000000 1.0
C      1  0.5221230000000  0.4364560000000  0.5243920000000 1.0
C      1  0.4033210000000  0.4798550000000  0.5729630000000 1.0
C      1  0.5025780000000  0.4267970000000  0.4236520000000 1.0
C      1  0.4647540000000  0.4246800000000  0.4557310000000 1.0
C      1  0.5522210000000  0.4834250000000  0.6948850000000 1.0
C      1  0.6242340000000  0.5039560000000  0.4515680000000 1.0
C      1  0.4360860000000  0.5415620000000  0.4459420000000 1.0
C      1  0.4095150000000  0.5809840000000  0.4865670000000 1.0
C      1  0.5849680000000  0.5620260000000  0.5538470000000 1.0
C      1  0.4905010000000  0.5398240000000  0.4742800000000 1.0
C      1  0.5176100000000  0.4191710000000  0.6346340000000 1.0
C      1  0.5655280000000  0.5719440000000  0.5697200000000 1.0
C      1  0.4917710000000  0.4169050000000  0.5939950000000 1.0
C      1  0.4329250000000  0.5214800000000  0.4887260000000 1.0
C      1  0.5564500000000  0.5288270000000  0.3625840000000 1.0
C      1  0.4667560000000  0.5041090000000  0.4323950000000 1.0
C      1  0.4291870000000  0.6040420000000  0.5245100000000 1.0
C      1  0.4999710000000  0.5502560000000  0.5910970000000 1.0
C      1  0.4878250000000  0.4207350000000  0.4960660000000 1.0
C      1  0.3655990000000  0.5149620000000  0.5256920000000 1.0
C      1  0.4975800000000  0.5843210000000  0.4311430000000 1.0
C      1  0.5181300000000  0.5098560000000  0.5087590000000 1.0
C      1  0.5527770000000  0.3984990000000  0.5476120000000 1.0
C      1  0.5103930000000  0.5236840000000  0.5856680000000 1.0
C      1  0.4658860000000  0.3538880000000  0.5213130000000 1.0
C      1  0.5386680000000  0.5807210000000  0.5728420000000 1.0
C      1  0.4176030000000  0.4981480000000  0.4330750000000 1.0
C      1  0.4782090000000  0.6056520000000  0.4966370000000 1.0
C      1  0.4568640000000  0.4567040000000  0.4269540000000 1.0
C      1  0.4597780000000  0.5840650000000  0.4903570000000 1.0
C      1  0.4315800000000  0.4350370000000  0.5117190000000 1.0
C      1  0.4022400000000  0.5574760000000  0.4760530000000 1.0
C      1  0.4485040000000  0.5670420000000  0.5787780000000 1.0
C      1  0.4010870000000  0.5036620000000  0.5564120000000 1.0
C      1  0.4813270000000  0.4391450000000  0.4748600000000 1.0
C      1  0.4683480000000  0.5650170000000  0.5269540000000 1.0
C      1  0.4531970000000  0.5917980000000  0.5650300000000 1.0
C      1  0.4928810000000  0.6144360000000  0.4743720000000 1.0
C      1  0.5461510000000  0.4563710000000  0.4194710000000 1.0
C      1  0.5400830000000  0.4920920000000  0.5982220000000 1.0
C      1  0.5130060000000  0.4041560000000  0.4386770000000 1.0
C      1  0.5402710000000  0.5797840000000  0.4059400000000 1.0
C      1  0.4897020000000  0.4776360000000  0.5358800000000 1.0
C      1  0.3986590000000  0.4869020000000  0.5048470000000 1.0
C      1  0.4951730000000  0.4319660000000  0.5204020000000 1.0
C      1  0.4975410000000  0.4807240000000  0.5647340000000 1.0
C      1  0.4892870000000  0.5221930000000  0.4230430000000 1.0
C      1  0.4819250000000  0.3912660000000  0.5482180000000 1.0
C      1  0.4489430000000  0.4716330000000  0.6032540000000 1.0
C      1  0.3822500000000  0.4614750000000  0.5731460000000 1.0
C      1  0.4829380000000  0.3762510000000  0.4727110000000 1.0
C      1  0.5654050000000  0.5308650000000  0.4744040000000 1.0
C      1  0.4364110000000  0.4302920000000  0.4603970000000 1.0
C      1  0.5584720000000  0.4309160000000  0.4843160000000 1.0
C      1  0.5158060000000  0.4828820000000  0.5193840000000 1.0
C      1  0.5477410000000  0.4190130000000  0.5640600000000 1.0
C      1  0.4740910000000  0.5681050000000  0.4254730000000 1.0
C      1  0.5024620000000  0.5359930000000  0.4479240000000 1.0
C      1  0.4172850000000  0.5263810000000  0.5667790000000 1.0
C      1  0.4935900000000  0.5586040000000  0.5332170000000 1.0
C      1  0.5564220000000  0.5703700000000  0.3869890000000 1.0
C      1  0.4962850000000  0.5335200000000  0.5429190000000 1.0
C      1  0.5085590000000  0.5057470000000  0.4075620000000 1.0
C      1  0.5654390000000  0.4774230000000  0.4832360000000 1.0
C      1  0.5320130000000  0.5021970000000  0.4221390000000 1.0
C      1  0.3895410000000  0.5011860000000  0.5290630000000 1.0
C      1  0.4966510000000  0.5157550000000  0.4898190000000 1.0
C      1  0.5507520000000  0.4053270000000  0.4763990000000 1.0
C      1  0.4771600000000  0.4505300000000  0.5314500000000 1.0
C      1  0.5036870000000  0.4320360000000  0.6148250000000 1.0
C      1  0.5826020000000  0.6054910000000  0.4981460000000 1.0
C      1  0.4711060000000  0.3506060000000  0.4748230000000 1.0
C      1  0.5355070000000  0.5140830000000  0.3553070000000 1.0
C      1  0.5194720000000  0.5706880000000  0.5912780000000 1.0
C      1  0.5340210000000  0.4812210000000  0.6451710000000 1.0
C      1  0.5403350000000  0.4785870000000  0.4364830000000 1.0
C      1  0.4477370000000  0.5331670000000  0.4014750000000 1.0
C      1  0.5237160000000  0.5726820000000  0.4272530000000 1.0
C      1  0.5209370000000  0.4448140000000  0.4092340000000 1.0
C      1  0.5578480000000  0.4862150000000  0.4578160000000 1.0
C      1  0.5631490000000  0.5138330000000  0.4526050000000 1.0
C      1  0.6268980000000  0.5304770000000  0.4961410000000 1.0
C      1  0.4325980000000  0.5900260000000  0.4995420000000 1.0
C      1  0.4737530000000  0.4325660000000  0.4290520000000 1.0
C      1  0.4706160000000  0.5494350000000  0.5867070000000 1.0
C      1  0.5799560000000  0.4946030000000  0.4999730000000 1.0
C      1  0.5357930000000  0.4418700000000  0.5712840000000 1.0
C      1  0.4150490000000  0.4759580000000  0.4512400000000 1.0
C      1  0.5375850000000  0.5573350000000  0.5157620000000 1.0
C      1  0.5808210000000  0.5225400000000  0.4966320000000 1.0
C      1  0.4652740000000  0.5209490000000  0.5794910000000 1.0
C      1  0.4685020000000  0.4960870000000  0.5282350000000 1.0
C      1  0.5248130000000  0.4778790000000  0.6187650000000 1.0
C      1  0.5174100000000  0.4614400000000  0.5715720000000 1.0
C      1  0.5745310000000  0.5829580000000  0.4849010000000 1.0
C      1  0.5439790000000  0.5194660000000  0.5511740000000 1.0
C      1  0.4824950000000  0.4690860000000  0.4674460000000 1.0
C      1  0.5512900000000  0.3863160000000  0.4971860000000 1.0
C      1  0.5176990000000  0.5728270000000  0.5292950000000 1.0
C      1  0.4567930000000  0.5614130000000  0.4478910000000 1.0
C      1  0.5363100000000  0.5283120000000  0.5237020000000 1.0
C      1  0.4515230000000  0.5016990000000  0.4821520000000 1.0
C      1  0.4742070000000  0.5448740000000  0.4076950000000 1.0
C      1  0.4204200000000  0.5374100000000  0.4691910000000 1.0
C      1  0.5454550000000  0.5516680000000  0.4701900000000 1.0
C      1  0.4496130000000  0.4451800000000  0.5288070000000 1.0
C      1  0.6328090000000  0.5157710000000  0.4742110000000 1.0
C      1  0.5614810000000  0.4840660000000  0.7192460000000 1.0
C      1  0.5062580000000  0.4891920000000  0.3845080000000 1.0
C      1  0.4221030000000  0.5535340000000  0.5762860000000 1.0
C      1  0.5978090000000  0.5506990000000  0.5330560000000 1.0
C      1  0.5905670000000  0.5385400000000  0.3966070000000 1.0
C      1  0.5089340000000  0.4612700000000  0.3890840000000 1.0
C      1  0.4892310000000  0.5047610000000  0.5787990000000 1.0
C      1  0.5300210000000  0.5484260000000  0.4439660000000 1.0
C      1  0.5381610000000  0.4032820000000  0.4513640000000 1.0
C      1  0.4262820000000  0.4747820000000  0.5890890000000 1.0
C      1  0.5111500000000  0.5004860000000  0.3588990000000 1.0
C      1  0.4830070000000  0.3925030000000  0.4968320000000 1.0
C      1  0.4928010000000  0.4984730000000  0.3387790000000 1.0
C      1  0.4771460000000  0.3799680000000  0.5228100000000 1.0
C      1  0.4963050000000  0.6063220000000  0.4489270000000 1.0
C      1  0.5931250000000  0.4820380000000  0.4178890000000 1.0
C      1  0.5743800000000  0.4621130000000  0.4124920000000 1.0
C      1  0.4718920000000  0.4774160000000  0.4402870000000 1.0
C      1  0.4053250000000  0.6147000000000  0.5324400000000 1.0
C      1  0.4262330000000  0.4277830000000  0.4864250000000 1.0
C      1  0.5976760000000  0.5549280000000  0.4425070000000 1.0
C      1  0.4948600000000  0.3850570000000  0.4489350000000 1.0
C      1  0.5361360000000  0.5133350000000  0.5786340000000 1.0
C      1  0.5008820000000  0.4608210000000  0.6156960000000 1.0
C      1  0.5528730000000  0.3858910000000  0.5239930000000 1.0
C      1  0.4753220000000  0.6145560000000  0.5238460000000 1.0
C      1  0.5429510000000  0.4826320000000  0.6700650000000 1.0
C      1  0.4739890000000  0.4700250000000  0.6130690000000 1.0
C      1  0.5328890000000  0.4602470000000  0.5142210000000 1.0
C      1  0.4487340000000  0.5137390000000  0.5347080000000 1.0
C      1  0.4696510000000  0.5617770000000  0.4740450000000 1.0
C      1  0.5991750000000  0.5333700000000  0.4229160000000 1.0
C      1  0.5527370000000  0.4559590000000  0.4947830000000 1.0
C      1  0.5500640000000  0.5686230000000  0.4922880000000 1.0
C      1  0.4392820000000  0.5178620000000  0.4271190000000 1.0
C      1  0.4629940000000  0.3398810000000  0.4983230000000 1.0
C      1  0.5694460000000  0.5465060000000  0.3799840000000 1.0
C      1  0.4334030000000  0.5274280000000  0.5158290000000 1.0
END
