TITL C-247202-1916-268 -400.978152675545 125000 -165.67877388178 0 0 29 (C1) n - 1
REM
REM in /home/nfs/bkarasulu/CARBON/AIRSS/Generating-Clusters/LCBOP/Only-C1/SD-CG/FIRE-HFTN
REM
REM
REM
REM
REM
REM ./C.cell (11c1c37f851c82e70ff6c80c92926a4b)
REM AIRSS Version 0.9.1 bugfix July 2018 build 013d7b7c2542+ Fri, 06 Jul 2018 19:26:36 +0100
REM compiler GCC version 9.2.1 20190827 (Red Hat 9.2.1-1)
REM options -cpp -mtune=generic -march=x86-64 -g -O0 -fpre-include=/usr/include/finclude/math-vector-fortran.h
REM seed -748579341 1260702073 -447768065 314003463 428121942 1057581897 1654518426 573843291 1992658175 973455 -1918664063 -1831401010 -1902271284 724683894 -198211081 1752290088 -857961470 1475145186 -1415923207 -754092152 30172456 1638482484 750511630 221139287 -1740664400 1647385152 -784335164 -1786570232 680746155 -672120141 -1380642636 -74622730 -2113853898
REM
CELL 1.54180   50.00000   50.00000   50.00000   90.00000   90.00000   90.00000
LATT -1
SFAC C  
C      1  0.4945970000000  0.5378290000000  0.3828510000000 1.0
C      1  0.4967600000000  0.4956850000000  0.5362970000000 1.0
C      1  0.5047040000000  0.4925480000000  0.4034040000000 1.0
C      1  0.4727600000000  0.5058230000000  0.4941550000000 1.0
C      1  0.5185480000000  0.5157900000000  0.4966040000000 1.0
C      1  0.5006370000000  0.4412840000000  0.6856350000000 1.0
C      1  0.4980850000000  0.4774520000000  0.5860310000000 1.0
C      1  0.5012740000000  0.4322720000000  0.7105550000000 1.0
C      1  0.4783710000000  0.6036430000000  0.4557100000000 1.0
C      1  0.4957800000000  0.5259820000000  0.4551440000000 1.0
C      1  0.4983810000000  0.5193760000000  0.4047530000000 1.0
C      1  0.4828210000000  0.5844080000000  0.4380450000000 1.0
C      1  0.5000050000000  0.4503020000000  0.6607250000000 1.0
C      1  0.4974270000000  0.4865530000000  0.5611520000000 1.0
C      1  0.5438080000000  0.5355840000000  0.4599420000000 1.0
C      1  0.4732310000000  0.5154690000000  0.4688160000000 1.0
C      1  0.5019050000000  0.4234120000000  0.7350650000000 1.0
C      1  0.4879600000000  0.5631230000000  0.4212490000000 1.0
C      1  0.4987330000000  0.4683810000000  0.6109210000000 1.0
C      1  0.4740730000000  0.6223900000000  0.4733090000000 1.0
C      1  0.5203450000000  0.5261520000000  0.4701990000000 1.0
C      1  0.4960530000000  0.5052820000000  0.5103200000000 1.0
C      1  0.5172840000000  0.4411040000000  0.4050330000000 1.0
C      1  0.5235970000000  0.4153780000000  0.4059930000000 1.0
C      1  0.4993720000000  0.4593320000000  0.6358200000000 1.0
C      1  0.4885850000000  0.5630670000000  0.3923680000000 1.0
C      1  0.4941270000000  0.5354810000000  0.4289030000000 1.0
C      1  0.5109720000000  0.4668230000000  0.4040730000000 1.0
C      1  0.5298040000000  0.3900750000000  0.4069330000000 1.0
END
