TITL C-247200-3482-194 6.34099088304107e-07 125000 -909.385641479558 0 0 151 (C1) n - 1
REM
REM in /home/nfs/bkarasulu/CARBON/AIRSS/Generating-Clusters/LCBOP/Only-C1/SD-CG/FIRE-HFTN
REM
REM
REM
REM
REM
REM ./C.cell (11c1c37f851c82e70ff6c80c92926a4b)
REM AIRSS Version 0.9.1 bugfix July 2018 build 013d7b7c2542+ Fri, 06 Jul 2018 19:26:36 +0100
REM compiler GCC version 9.2.1 20190827 (Red Hat 9.2.1-1)
REM options -cpp -mtune=generic -march=x86-64 -g -O0 -fpre-include=/usr/include/finclude/math-vector-fortran.h
REM seed 1557691998 -1521630014 1756529753 -1210421733 2086554849 764320931 -90222209 1075543568 -1781120168 2013542146 1965369653 1512695875 -913047563 -1769617763 638855566 493562946 1374378796 -863682492 -1762178216 -1565991813 -1538403761 138205380 -1609467393 -374263812 -52008779 -1331129280 1573391515 1108150 217280463 971860932 -1906292029 478145079 818040722
REM
CELL 1.54180   50.00000   50.00000   50.00000   90.00000   90.00000   90.00000
LATT -1
SFAC C  
C      1  0.4470420000000  0.5049510000000  0.4590790000000 1.0
C      1  0.5025530000000  0.5529420000000  0.5465500000000 1.0
C      1  0.4564350000000  0.5755240000000  0.5329240000000 1.0
C      1  0.5607030000000  0.5206830000000  0.4289060000000 1.0
C      1  0.4361830000000  0.5311420000000  0.4724780000000 1.0
C      1  0.5130360000000  0.5059830000000  0.4217960000000 1.0
C      1  0.5506250000000  0.4750970000000  0.4609720000000 1.0
C      1  0.4544530000000  0.5946070000000  0.4862410000000 1.0
C      1  0.4519060000000  0.5211770000000  0.6005030000000 1.0
C      1  0.4481760000000  0.4082480000000  0.4598680000000 1.0
C      1  0.5240510000000  0.5372640000000  0.4593250000000 1.0
C      1  0.3817370000000  0.4593190000000  0.5306900000000 1.0
C      1  0.5208120000000  0.4777700000000  0.4219310000000 1.0
C      1  0.4749580000000  0.5629130000000  0.4083600000000 1.0
C      1  0.4499950000000  0.5178890000000  0.5153780000000 1.0
C      1  0.5084950000000  0.4350560000000  0.6050410000000 1.0
C      1  0.4588820000000  0.4900520000000  0.5110040000000 1.0
C      1  0.4611490000000  0.5090840000000  0.4341690000000 1.0
C      1  0.3939140000000  0.5112140000000  0.5014490000000 1.0
C      1  0.4572780000000  0.5331820000000  0.4929490000000 1.0
C      1  0.5254040000000  0.5941160000000  0.5504500000000 1.0
C      1  0.4083400000000  0.5320430000000  0.4866780000000 1.0
C      1  0.5571720000000  0.5534450000000  0.3872760000000 1.0
C      1  0.6040160000000  0.5056160000000  0.5551820000000 1.0
C      1  0.4244060000000  0.5277080000000  0.5965840000000 1.0
C      1  0.5346900000000  0.5520950000000  0.4053490000000 1.0
C      1  0.5723520000000  0.5686800000000  0.5507900000000 1.0
C      1  0.5340860000000  0.5265690000000  0.4192440000000 1.0
C      1  0.4860620000000  0.4584180000000  0.4456140000000 1.0
C      1  0.5872020000000  0.5193200000000  0.5120950000000 1.0
C      1  0.4868310000000  0.5845300000000  0.4525230000000 1.0
C      1  0.4907980000000  0.4881840000000  0.6085330000000 1.0
C      1  0.5387460000000  0.5963080000000  0.5249820000000 1.0
C      1  0.5364760000000  0.4173860000000  0.3824590000000 1.0
C      1  0.4257490000000  0.4565170000000  0.5000860000000 1.0
C      1  0.5306950000000  0.6098620000000  0.4512490000000 1.0
C      1  0.5926120000000  0.4167430000000  0.5201130000000 1.0
C      1  0.4447650000000  0.5220670000000  0.4145860000000 1.0
C      1  0.4987160000000  0.4326740000000  0.4080980000000 1.0
C      1  0.6015160000000  0.5371350000000  0.4949790000000 1.0
C      1  0.5016740000000  0.4568700000000  0.4228160000000 1.0
C      1  0.4939490000000  0.5745410000000  0.4258210000000 1.0
C      1  0.5126940000000  0.6017060000000  0.4715830000000 1.0
C      1  0.4592110000000  0.5944340000000  0.5126080000000 1.0
C      1  0.5154050000000  0.5286460000000  0.5366430000000 1.0
C      1  0.4359880000000  0.4341000000000  0.4595030000000 1.0
C      1  0.5150710000000  0.5612620000000  0.5915910000000 1.0
C      1  0.6191140000000  0.4887730000000  0.5681210000000 1.0
C      1  0.4911610000000  0.4518750000000  0.4934210000000 1.0
C      1  0.5752950000000  0.5030380000000  0.4119340000000 1.0
C      1  0.3999590000000  0.5143960000000  0.5555660000000 1.0
C      1  0.4899790000000  0.4960980000000  0.5514350000000 1.0
C      1  0.5916330000000  0.5401730000000  0.4688020000000 1.0
C      1  0.4648340000000  0.4028410000000  0.4375470000000 1.0
C      1  0.4096200000000  0.5697210000000  0.5181840000000 1.0
C      1  0.4990470000000  0.4366710000000  0.3601340000000 1.0
C      1  0.5806120000000  0.5398500000000  0.3831030000000 1.0
C      1  0.4788410000000  0.4033210000000  0.4961400000000 1.0
C      1  0.4893430000000  0.5138120000000  0.4369680000000 1.0
C      1  0.4846210000000  0.4526160000000  0.5415900000000 1.0
C      1  0.4752990000000  0.5633500000000  0.5500530000000 1.0
C      1  0.5246950000000  0.5939030000000  0.4983770000000 1.0
C      1  0.5698130000000  0.5400640000000  0.5558760000000 1.0
C      1  0.4632780000000  0.4952660000000  0.5994270000000 1.0
C      1  0.4972650000000  0.5558240000000  0.4993620000000 1.0
C      1  0.5259190000000  0.4115250000000  0.4891440000000 1.0
C      1  0.5473480000000  0.4502330000000  0.5166860000000 1.0
C      1  0.4413210000000  0.4278650000000  0.5747520000000 1.0
C      1  0.5410440000000  0.4315380000000  0.4986210000000 1.0
C      1  0.5845410000000  0.5911680000000  0.5086660000000 1.0
C      1  0.3885040000000  0.5162760000000  0.5294080000000 1.0
C      1  0.5216710000000  0.5748170000000  0.4173200000000 1.0
C      1  0.5685330000000  0.4762290000000  0.4159430000000 1.0
C      1  0.6043830000000  0.4308950000000  0.5006070000000 1.0
C      1  0.5055010000000  0.3940750000000  0.4986280000000 1.0
C      1  0.5744190000000  0.4980830000000  0.4986310000000 1.0
C      1  0.5369760000000  0.4849080000000  0.5571580000000 1.0
C      1  0.6134650000000  0.4461100000000  0.4804970000000 1.0
C      1  0.5939050000000  0.5970120000000  0.5917570000000 1.0
C      1  0.5176630000000  0.5704570000000  0.5644200000000 1.0
C      1  0.4530420000000  0.3958490000000  0.4859890000000 1.0
C      1  0.4337270000000  0.3936230000000  0.5072000000000 1.0
C      1  0.5518820000000  0.3974130000000  0.5506840000000 1.0
C      1  0.5841000000000  0.5834250000000  0.5718000000000 1.0
C      1  0.6253180000000  0.5490910000000  0.5031170000000 1.0
C      1  0.4369580000000  0.5329440000000  0.5348140000000 1.0
C      1  0.3915590000000  0.4151200000000  0.5069700000000 1.0
C      1  0.4181070000000  0.4239030000000  0.5488100000000 1.0
C      1  0.6220890000000  0.4615250000000  0.4603380000000 1.0
C      1  0.4886360000000  0.4930420000000  0.5196410000000 1.0
C      1  0.4045430000000  0.4498140000000  0.5455950000000 1.0
C      1  0.5282080000000  0.5039780000000  0.4931590000000 1.0
C      1  0.4809930000000  0.4663940000000  0.4714500000000 1.0
C      1  0.3999910000000  0.5075230000000  0.4370460000000 1.0
C      1  0.5387490000000  0.5169690000000  0.5971330000000 1.0
C      1  0.5465800000000  0.4715530000000  0.4331670000000 1.0
C      1  0.5360850000000  0.5967790000000  0.4281120000000 1.0
C      1  0.4036140000000  0.5301100000000  0.5790400000000 1.0
C      1  0.5453080000000  0.4698360000000  0.5347280000000 1.0
C      1  0.4822430000000  0.4124890000000  0.4194940000000 1.0
C      1  0.4751890000000  0.4301270000000  0.5037910000000 1.0
C      1  0.4181530000000  0.4931180000000  0.5571710000000 1.0
C      1  0.6307920000000  0.4933130000000  0.4184460000000 1.0
C      1  0.3896320000000  0.4922780000000  0.4576150000000 1.0
C      1  0.5864350000000  0.5219860000000  0.5405830000000 1.0
C      1  0.4775610000000  0.4731310000000  0.5598760000000 1.0
C      1  0.5167710000000  0.5057750000000  0.5551640000000 1.0
C      1  0.4193390000000  0.5543960000000  0.4353110000000 1.0
C      1  0.3858800000000  0.4877110000000  0.4863880000000 1.0
C      1  0.4247330000000  0.4697570000000  0.5449730000000 1.0
C      1  0.4708300000000  0.5421520000000  0.5969970000000 1.0
C      1  0.4967580000000  0.5293690000000  0.4598280000000 1.0
C      1  0.5116030000000  0.4288260000000  0.3831720000000 1.0
C      1  0.5654180000000  0.5844290000000  0.5271550000000 1.0
C      1  0.4621780000000  0.4411510000000  0.5272600000000 1.0
C      1  0.5144430000000  0.3772690000000  0.5194260000000 1.0
C      1  0.5514560000000  0.4914690000000  0.4838720000000 1.0
C      1  0.4433560000000  0.4652790000000  0.5226770000000 1.0
C      1  0.4989250000000  0.4647220000000  0.5178150000000 1.0
C      1  0.4581510000000  0.5431820000000  0.4010150000000 1.0
C      1  0.4596570000000  0.5794330000000  0.4627960000000 1.0
C      1  0.4655380000000  0.5606250000000  0.5766220000000 1.0
C      1  0.4172950000000  0.5272850000000  0.4244440000000 1.0
C      1  0.5107150000000  0.5123170000000  0.6057780000000 1.0
C      1  0.5930840000000  0.5168120000000  0.3947160000000 1.0
C      1  0.3803030000000  0.4354380000000  0.4924740000000 1.0
C      1  0.5433880000000  0.4094250000000  0.5747040000000 1.0
C      1  0.5379710000000  0.5520620000000  0.4769000000000 1.0
C      1  0.4597760000000  0.4469490000000  0.5913220000000 1.0
C      1  0.5755830000000  0.5343860000000  0.4483430000000 1.0
C      1  0.4145820000000  0.4077410000000  0.5232410000000 1.0
C      1  0.5338330000000  0.3798680000000  0.5378490000000 1.0
C      1  0.5560110000000  0.5294180000000  0.5794690000000 1.0
C      1  0.6294530000000  0.4770380000000  0.4397550000000 1.0
C      1  0.4864340000000  0.4516470000000  0.6066280000000 1.0
C      1  0.3791810000000  0.4628820000000  0.5014610000000 1.0
C      1  0.4351990000000  0.4583570000000  0.4737030000000 1.0
C      1  0.5229770000000  0.5654020000000  0.4961400000000 1.0
C      1  0.5275620000000  0.4208360000000  0.5929120000000 1.0
C      1  0.5097180000000  0.5133400000000  0.5118950000000 1.0
C      1  0.4986710000000  0.5395180000000  0.6027200000000 1.0
C      1  0.4826380000000  0.5386540000000  0.4831150000000 1.0
C      1  0.5756150000000  0.4054240000000  0.5375100000000 1.0
C      1  0.6473680000000  0.5594480000000  0.5123740000000 1.0
C      1  0.5460470000000  0.4750600000000  0.5811830000000 1.0
C      1  0.4395840000000  0.5580870000000  0.4560820000000 1.0
C      1  0.4319970000000  0.5608750000000  0.5327480000000 1.0
C      1  0.6198090000000  0.5091870000000  0.3995160000000 1.0
C      1  0.4553450000000  0.4813180000000  0.4757760000000 1.0
C      1  0.4007310000000  0.5583350000000  0.4953120000000 1.0
C      1  0.4579860000000  0.4741680000000  0.5803620000000 1.0
END
