TITL C-247199-3331-405 -14.7161710444408 125000 -1081.60908468115 0 0 179 (C1) n - 1
REM
REM in /home/nfs/bkarasulu/CARBON/AIRSS/Generating-Clusters/LCBOP/Only-C1/SD-CG/FIRE-HFTN
REM
REM
REM
REM
REM
REM ./C.cell (11c1c37f851c82e70ff6c80c92926a4b)
REM AIRSS Version 0.9.1 bugfix July 2018 build 013d7b7c2542+ Fri, 06 Jul 2018 19:26:36 +0100
REM compiler GCC version 9.2.1 20190827 (Red Hat 9.2.1-1)
REM options -cpp -mtune=generic -march=x86-64 -g -O0 -fpre-include=/usr/include/finclude/math-vector-fortran.h
REM seed -1439333295 -302446098 -181024927 1743281146 1471125991 -340317069 1512140470 -1373268140 -770735550 717324022 -2101188118 2026332726 592030701 1135406407 -810540378 -897522775 -1250335342 -1391661069 1202444961 1357883592 -1876422734 -930057748 735394827 1187406411 1718022094 470150233 363261285 -338583659 875747972 981789558 856698849 844627419 771867353
REM
CELL 1.54180   50.00000   50.00000   50.00000   90.00000   90.00000   90.00000
LATT -1
SFAC C  
C      1  0.5282070000000  0.4364060000000  0.4663900000000 1.0
C      1  0.5630080000000  0.4549560000000  0.5811780000000 1.0
C      1  0.4447510000000  0.3928680000000  0.4760580000000 1.0
C      1  0.4920350000000  0.4882450000000  0.5064300000000 1.0
C      1  0.4701480000000  0.4930030000000  0.6275470000000 1.0
C      1  0.4150460000000  0.5597070000000  0.5454670000000 1.0
C      1  0.4369150000000  0.5370520000000  0.4778400000000 1.0
C      1  0.5200320000000  0.4588020000000  0.4486730000000 1.0
C      1  0.5084980000000  0.5191940000000  0.4344930000000 1.0
C      1  0.5477320000000  0.5243510000000  0.5388670000000 1.0
C      1  0.3497270000000  0.4872310000000  0.4849290000000 1.0
C      1  0.4698190000000  0.4532160000000  0.4685390000000 1.0
C      1  0.5095580000000  0.5931250000000  0.5271600000000 1.0
C      1  0.5657800000000  0.4177750000000  0.4993960000000 1.0
C      1  0.5552550000000  0.4557030000000  0.6068180000000 1.0
C      1  0.4552190000000  0.5443640000000  0.5780750000000 1.0
C      1  0.5299800000000  0.4456860000000  0.5174790000000 1.0
C      1  0.5118200000000  0.5647370000000  0.5314020000000 1.0
C      1  0.5890890000000  0.4622080000000  0.5243670000000 1.0
C      1  0.5755150000000  0.5138750000000  0.4824160000000 1.0
C      1  0.4655830000000  0.4778800000000  0.3989690000000 1.0
C      1  0.5025170000000  0.5328000000000  0.4794990000000 1.0
C      1  0.4519300000000  0.4197290000000  0.5601540000000 1.0
C      1  0.4948930000000  0.5227240000000  0.5541730000000 1.0
C      1  0.4797250000000  0.4794250000000  0.5666020000000 1.0
C      1  0.5072670000000  0.4439860000000  0.4266410000000 1.0
C      1  0.4745080000000  0.5015750000000  0.5497620000000 1.0
C      1  0.4862940000000  0.5482160000000  0.4591470000000 1.0
C      1  0.5219490000000  0.6252300000000  0.4641730000000 1.0
C      1  0.6095180000000  0.5628440000000  0.5156640000000 1.0
C      1  0.3496970000000  0.4803280000000  0.4598000000000 1.0
C      1  0.4226970000000  0.4555200000000  0.4624160000000 1.0
C      1  0.4804520000000  0.5284940000000  0.4373890000000 1.0
C      1  0.4696590000000  0.5391270000000  0.4118100000000 1.0
C      1  0.3957340000000  0.5109940000000  0.5872140000000 1.0
C      1  0.5327430000000  0.4659200000000  0.6170650000000 1.0
C      1  0.3864850000000  0.5313640000000  0.5175340000000 1.0
C      1  0.4632450000000  0.5267770000000  0.5985130000000 1.0
C      1  0.4164210000000  0.4978010000000  0.5745550000000 1.0
C      1  0.4605840000000  0.5823630000000  0.4750340000000 1.0
C      1  0.5314820000000  0.6070630000000  0.4444520000000 1.0
C      1  0.4432170000000  0.5284620000000  0.4084450000000 1.0
C      1  0.4806650000000  0.4337710000000  0.4242910000000 1.0
C      1  0.5512390000000  0.5867990000000  0.4490470000000 1.0
C      1  0.4938790000000  0.5261150000000  0.6031980000000 1.0
C      1  0.4874910000000  0.5904910000000  0.4340510000000 1.0
C      1  0.4859980000000  0.4357180000000  0.5875520000000 1.0
C      1  0.5083400000000  0.4447010000000  0.5356040000000 1.0
C      1  0.4037620000000  0.5707410000000  0.4680040000000 1.0
C      1  0.4564410000000  0.4336410000000  0.5852440000000 1.0
C      1  0.4433270000000  0.4975350000000  0.4063930000000 1.0
C      1  0.5880800000000  0.5823030000000  0.5216090000000 1.0
C      1  0.5220670000000  0.5600440000000  0.5592810000000 1.0
C      1  0.5406240000000  0.4890220000000  0.5030220000000 1.0
C      1  0.4222650000000  0.4903870000000  0.4264960000000 1.0
C      1  0.4792710000000  0.5752890000000  0.4559110000000 1.0
C      1  0.5594070000000  0.5626780000000  0.5899510000000 1.0
C      1  0.4938450000000  0.4634750000000  0.5863360000000 1.0
C      1  0.4165920000000  0.4980360000000  0.5461020000000 1.0
C      1  0.5698980000000  0.5677960000000  0.5415250000000 1.0
C      1  0.5091670000000  0.4768140000000  0.6068540000000 1.0
C      1  0.5673670000000  0.5122550000000  0.5559010000000 1.0
C      1  0.5169000000000  0.4965590000000  0.5157610000000 1.0
C      1  0.5754290000000  0.4660900000000  0.4745870000000 1.0
C      1  0.5091300000000  0.4553990000000  0.3815370000000 1.0
C      1  0.4201210000000  0.5163320000000  0.4709390000000 1.0
C      1  0.6052330000000  0.5157040000000  0.5222230000000 1.0
C      1  0.5141830000000  0.5443090000000  0.5913820000000 1.0
C      1  0.4008120000000  0.4337060000000  0.5540310000000 1.0
C      1  0.5942220000000  0.5283250000000  0.4275440000000 1.0
C      1  0.5177580000000  0.4400690000000  0.4920350000000 1.0
C      1  0.5988470000000  0.5237520000000  0.4944780000000 1.0
C      1  0.4302410000000  0.5536200000000  0.5673120000000 1.0
C      1  0.5486580000000  0.4355230000000  0.4082150000000 1.0
C      1  0.4942490000000  0.6074150000000  0.5451450000000 1.0
C      1  0.4146590000000  0.4657720000000  0.4374820000000 1.0
C      1  0.4927140000000  0.4800740000000  0.3868060000000 1.0
C      1  0.4083820000000  0.5769130000000  0.4969640000000 1.0
C      1  0.6107470000000  0.4306690000000  0.4580640000000 1.0
C      1  0.5519210000000  0.4654430000000  0.5576790000000 1.0
C      1  0.5891940000000  0.5428700000000  0.3809670000000 1.0
C      1  0.4020870000000  0.5566110000000  0.5194880000000 1.0
C      1  0.5273660000000  0.5390510000000  0.4267650000000 1.0
C      1  0.4474600000000  0.5599020000000  0.4843800000000 1.0
C      1  0.4503450000000  0.4119180000000  0.4560670000000 1.0
C      1  0.5919370000000  0.5925680000000  0.4757910000000 1.0
C      1  0.5131320000000  0.5083390000000  0.4619560000000 1.0
C      1  0.5019510000000  0.4121350000000  0.5769350000000 1.0
C      1  0.4784760000000  0.6223720000000  0.4918020000000 1.0
C      1  0.4546820000000  0.4385630000000  0.5395520000000 1.0
C      1  0.4677160000000  0.5037880000000  0.4483350000000 1.0
C      1  0.5378970000000  0.4574710000000  0.3913000000000 1.0
C      1  0.5991090000000  0.5013150000000  0.4397080000000 1.0
C      1  0.5170310000000  0.5531210000000  0.4041500000000 1.0
C      1  0.4586540000000  0.5135930000000  0.5274780000000 1.0
C      1  0.5480800000000  0.5572340000000  0.4955840000000 1.0
C      1  0.4713000000000  0.5376360000000  0.5165990000000 1.0
C      1  0.4712030000000  0.4788740000000  0.4570100000000 1.0
C      1  0.5415280000000  0.4873940000000  0.3918310000000 1.0
C      1  0.5658730000000  0.4881870000000  0.4914550000000 1.0
C      1  0.4977180000000  0.3987730000000  0.4581360000000 1.0
C      1  0.5288560000000  0.4109360000000  0.5671660000000 1.0
C      1  0.4861190000000  0.3901270000000  0.5663630000000 1.0
C      1  0.5601710000000  0.4565130000000  0.5316180000000 1.0
C      1  0.3776620000000  0.5030320000000  0.5213520000000 1.0
C      1  0.4224850000000  0.4717770000000  0.4856360000000 1.0
C      1  0.5930310000000  0.5564550000000  0.4404220000000 1.0
C      1  0.5284480000000  0.4848370000000  0.4545230000000 1.0
C      1  0.4337410000000  0.4514710000000  0.5265410000000 1.0
C      1  0.4754030000000  0.4103230000000  0.4418450000000 1.0
C      1  0.5243460000000  0.4110140000000  0.4512820000000 1.0
C      1  0.5541070000000  0.4939890000000  0.4463390000000 1.0
C      1  0.4114380000000  0.5612340000000  0.4429590000000 1.0
C      1  0.5958010000000  0.4294810000000  0.4353910000000 1.0
C      1  0.5461210000000  0.4050380000000  0.5470410000000 1.0
C      1  0.5236820000000  0.6080170000000  0.5077260000000 1.0
C      1  0.6094960000000  0.5412570000000  0.5369040000000 1.0
C      1  0.6067120000000  0.4454630000000  0.5085160000000 1.0
C      1  0.5275550000000  0.4220380000000  0.4235670000000 1.0
C      1  0.5856490000000  0.5513020000000  0.5860640000000 1.0
C      1  0.5601890000000  0.5200400000000  0.4585110000000 1.0
C      1  0.5823480000000  0.5252920000000  0.4008970000000 1.0
C      1  0.4627650000000  0.3944240000000  0.5511760000000 1.0
C      1  0.3520850000000  0.4953400000000  0.5115780000000 1.0
C      1  0.4967400000000  0.4998870000000  0.6177620000000 1.0
C      1  0.4677010000000  0.5591570000000  0.5352660000000 1.0
C      1  0.4178850000000  0.4985970000000  0.4919110000000 1.0
C      1  0.4674540000000  0.4782650000000  0.5043610000000 1.0
C      1  0.6154740000000  0.4362890000000  0.4843210000000 1.0
C      1  0.5104370000000  0.3724980000000  0.4985960000000 1.0
C      1  0.4628170000000  0.4510160000000  0.4101820000000 1.0
C      1  0.4893530000000  0.4431860000000  0.4867290000000 1.0
C      1  0.5145170000000  0.4992240000000  0.3888020000000 1.0
C      1  0.6002290000000  0.4886130000000  0.5293260000000 1.0
C      1  0.4983100000000  0.5425130000000  0.5066020000000 1.0
C      1  0.5073380000000  0.6213320000000  0.4881650000000 1.0
C      1  0.4316130000000  0.5070360000000  0.5232850000000 1.0
C      1  0.5520410000000  0.6090040000000  0.5044220000000 1.0
C      1  0.4224600000000  0.3919840000000  0.5281990000000 1.0
C      1  0.4059010000000  0.4548470000000  0.5350720000000 1.0
C      1  0.4507850000000  0.5012590000000  0.6080030000000 1.0
C      1  0.6017950000000  0.5663580000000  0.4669500000000 1.0
C      1  0.5488440000000  0.5708680000000  0.5638440000000 1.0
C      1  0.4903910000000  0.5518580000000  0.3967880000000 1.0
C      1  0.4633720000000  0.3872310000000  0.4972490000000 1.0
C      1  0.4770100000000  0.5472820000000  0.5595840000000 1.0
C      1  0.4426580000000  0.4650290000000  0.5043440000000 1.0
C      1  0.5643120000000  0.5037990000000  0.3951710000000 1.0
C      1  0.4907220000000  0.3863150000000  0.4851710000000 1.0
C      1  0.5799530000000  0.4802440000000  0.4487100000000 1.0
C      1  0.5582680000000  0.4061050000000  0.5227900000000 1.0
C      1  0.4216140000000  0.5383160000000  0.4280160000000 1.0
C      1  0.5454080000000  0.5643650000000  0.4674540000000 1.0
C      1  0.3302870000000  0.4958980000000  0.5280830000000 1.0
C      1  0.4277960000000  0.6000320000000  0.5009990000000 1.0
C      1  0.6084610000000  0.5502590000000  0.4891880000000 1.0
C      1  0.3948320000000  0.4823840000000  0.5342870000000 1.0
C      1  0.5454250000000  0.5419640000000  0.4492880000000 1.0
C      1  0.5211920000000  0.5098550000000  0.5426620000000 1.0
C      1  0.5699210000000  0.4390730000000  0.4826880000000 1.0
C      1  0.5896720000000  0.5251160000000  0.5958170000000 1.0
C      1  0.5545050000000  0.5478600000000  0.5226600000000 1.0
C      1  0.4157530000000  0.5134440000000  0.4428030000000 1.0
C      1  0.4549860000000  0.6058290000000  0.4900720000000 1.0
C      1  0.4049550000000  0.4074160000000  0.5426560000000 1.0
C      1  0.5313440000000  0.4853330000000  0.5590950000000 1.0
C      1  0.4343050000000  0.4530810000000  0.5901970000000 1.0
C      1  0.5781560000000  0.5984270000000  0.5004680000000 1.0
C      1  0.4090630000000  0.4413710000000  0.5806360000000 1.0
C      1  0.5802320000000  0.5061310000000  0.5789420000000 1.0
C      1  0.4347780000000  0.4832530000000  0.5917860000000 1.0
C      1  0.4817500000000  0.4437000000000  0.5343220000000 1.0
C      1  0.5928950000000  0.5533150000000  0.5580000000000 1.0
C      1  0.5753970000000  0.4323270000000  0.4177480000000 1.0
C      1  0.5109190000000  0.6009950000000  0.4260350000000 1.0
C      1  0.5733050000000  0.5773560000000  0.4319570000000 1.0
C      1  0.4515080000000  0.3873760000000  0.5248650000000 1.0
C      1  0.4454670000000  0.4387650000000  0.4624620000000 1.0
C      1  0.5380870000000  0.5514360000000  0.6054090000000 1.0
END
