TITL C-247200-3482-446 -9.63927044574733e-07 125000 -1040.27253028013 0 0 172 (C1) n - 1
REM
REM in /home/nfs/bkarasulu/CARBON/AIRSS/Generating-Clusters/LCBOP/Only-C1/SD-CG/FIRE-HFTN
REM
REM
REM
REM
REM
REM ./C.cell (11c1c37f851c82e70ff6c80c92926a4b)
REM AIRSS Version 0.9.1 bugfix July 2018 build 013d7b7c2542+ Fri, 06 Jul 2018 19:26:36 +0100
REM compiler GCC version 9.2.1 20190827 (Red Hat 9.2.1-1)
REM options -cpp -mtune=generic -march=x86-64 -g -O0 -fpre-include=/usr/include/finclude/math-vector-fortran.h
REM seed 1799410806 1126251222 2062503437 -1533292399 -1516997001 -1771042735 1720207492 233715187 -1842280106 1706598865 2114615909 -1788753191 -1490636554 -285093801 2083049231 1621322408 1811827109 1169053524 480547306 537988784 212747249 -2053564032 1767501601 1140757142 1759820497 1275905525 -1835820427 -743286802 -632259622 70853773 1362461500 237200294 -1354973748
REM
CELL 1.54180   50.00000   50.00000   50.00000   90.00000   90.00000   90.00000
LATT -1
SFAC C  
C      1  0.5151690000000  0.4744850000000  0.5520460000000 1.0
C      1  0.4767290000000  0.6008350000000  0.4352580000000 1.0
C      1  0.4939330000000  0.4534570000000  0.4958020000000 1.0
C      1  0.4619050000000  0.5560950000000  0.5594060000000 1.0
C      1  0.4987370000000  0.4315930000000  0.4319910000000 1.0
C      1  0.3908010000000  0.4600610000000  0.5423060000000 1.0
C      1  0.5189750000000  0.4592900000000  0.3885560000000 1.0
C      1  0.5309380000000  0.6078900000000  0.4901090000000 1.0
C      1  0.4243990000000  0.5718760000000  0.4127760000000 1.0
C      1  0.4827840000000  0.5272770000000  0.4735040000000 1.0
C      1  0.5759840000000  0.4693950000000  0.4927320000000 1.0
C      1  0.4403880000000  0.5194490000000  0.5340420000000 1.0
C      1  0.4381690000000  0.5462830000000  0.4164180000000 1.0
C      1  0.5599860000000  0.5110450000000  0.6002880000000 1.0
C      1  0.5542150000000  0.4605030000000  0.5874550000000 1.0
C      1  0.6241380000000  0.4865000000000  0.4862010000000 1.0
C      1  0.4237570000000  0.5223610000000  0.4217100000000 1.0
C      1  0.4814850000000  0.4308510000000  0.4785450000000 1.0
C      1  0.4864860000000  0.5766680000000  0.4750490000000 1.0
C      1  0.4775380000000  0.4717830000000  0.4524300000000 1.0
C      1  0.5334490000000  0.5221110000000  0.5553970000000 1.0
C      1  0.4824100000000  0.4780460000000  0.4795910000000 1.0
C      1  0.5321250000000  0.4664480000000  0.4572300000000 1.0
C      1  0.4717510000000  0.5838990000000  0.5579760000000 1.0
C      1  0.5776670000000  0.5048920000000  0.4088040000000 1.0
C      1  0.3831980000000  0.5243920000000  0.4982750000000 1.0
C      1  0.4682970000000  0.5490390000000  0.4262750000000 1.0
C      1  0.4278930000000  0.6574870000000  0.5462330000000 1.0
C      1  0.4006890000000  0.4365770000000  0.5255850000000 1.0
C      1  0.4169330000000  0.5019480000000  0.5402260000000 1.0
C      1  0.4308270000000  0.4552830000000  0.4940060000000 1.0
C      1  0.3976820000000  0.5235520000000  0.4735100000000 1.0
C      1  0.4927180000000  0.4061620000000  0.5513970000000 1.0
C      1  0.5928030000000  0.4922590000000  0.4308580000000 1.0
C      1  0.5508110000000  0.5225750000000  0.5120700000000 1.0
C      1  0.5016640000000  0.4315050000000  0.5436280000000 1.0
C      1  0.4675980000000  0.6253310000000  0.5297040000000 1.0
C      1  0.5648740000000  0.5786570000000  0.5386360000000 1.0
C      1  0.4392050000000  0.5443810000000  0.4678270000000 1.0
C      1  0.6371850000000  0.4689020000000  0.5035830000000 1.0
C      1  0.5525660000000  0.4034660000000  0.5283770000000 1.0
C      1  0.5504490000000  0.5094780000000  0.4867710000000 1.0
C      1  0.5459570000000  0.4205970000000  0.4415420000000 1.0
C      1  0.4202320000000  0.3941850000000  0.4617900000000 1.0
C      1  0.4242460000000  0.4956370000000  0.4144310000000 1.0
C      1  0.4752150000000  0.4421670000000  0.4488150000000 1.0
C      1  0.4985390000000  0.4012310000000  0.4329960000000 1.0
C      1  0.5010460000000  0.5508600000000  0.4748630000000 1.0
C      1  0.4462430000000  0.4667730000000  0.5126740000000 1.0
C      1  0.4352430000000  0.6055170000000  0.4834230000000 1.0
C      1  0.3798200000000  0.5447310000000  0.5503740000000 1.0
C      1  0.5426030000000  0.5717030000000  0.4154000000000 1.0
C      1  0.5378410000000  0.4390920000000  0.5057640000000 1.0
C      1  0.4230270000000  0.4237320000000  0.5403000000000 1.0
C      1  0.4826140000000  0.6064110000000  0.5459220000000 1.0
C      1  0.4624260000000  0.6155490000000  0.4810870000000 1.0
C      1  0.4192610000000  0.5950020000000  0.4612190000000 1.0
C      1  0.5688830000000  0.5210580000000  0.4673270000000 1.0
C      1  0.5842110000000  0.5481030000000  0.4313300000000 1.0
C      1  0.6065430000000  0.4670290000000  0.4314950000000 1.0
C      1  0.5840340000000  0.4563450000000  0.5164390000000 1.0
C      1  0.4715330000000  0.5792110000000  0.4204000000000 1.0
C      1  0.5789880000000  0.5053300000000  0.5488600000000 1.0
C      1  0.5728210000000  0.5481220000000  0.4579190000000 1.0
C      1  0.4873510000000  0.4959690000000  0.4080400000000 1.0
C      1  0.4111390000000  0.5767090000000  0.3892390000000 1.0
C      1  0.5873660000000  0.5013720000000  0.4578040000000 1.0
C      1  0.5100290000000  0.3821100000000  0.4482720000000 1.0
C      1  0.4261840000000  0.4557910000000  0.4426320000000 1.0
C      1  0.4773390000000  0.6000990000000  0.4630240000000 1.0
C      1  0.4824680000000  0.5350660000000  0.5519520000000 1.0
C      1  0.5210050000000  0.5374820000000  0.6114070000000 1.0
C      1  0.4005470000000  0.5447610000000  0.5703340000000 1.0
C      1  0.5446590000000  0.5455140000000  0.4026440000000 1.0
C      1  0.4994160000000  0.4767090000000  0.5750650000000 1.0
C      1  0.4561870000000  0.4759150000000  0.5823860000000 1.0
C      1  0.5085170000000  0.4632960000000  0.6195150000000 1.0
C      1  0.5475290000000  0.5371040000000  0.6002500000000 1.0
C      1  0.4981920000000  0.5554250000000  0.6083650000000 1.0
C      1  0.5547770000000  0.5143050000000  0.5387130000000 1.0
C      1  0.6411190000000  0.4694870000000  0.5535090000000 1.0
C      1  0.5474260000000  0.4407200000000  0.5663080000000 1.0
C      1  0.6377230000000  0.4367120000000  0.4544930000000 1.0
C      1  0.4452840000000  0.4348740000000  0.4472530000000 1.0
C      1  0.4292980000000  0.5706330000000  0.5233750000000 1.0
C      1  0.5236340000000  0.4655120000000  0.5035190000000 1.0
C      1  0.5229600000000  0.4467190000000  0.5534190000000 1.0
C      1  0.4291840000000  0.5926960000000  0.5082280000000 1.0
C      1  0.6390360000000  0.5079070000000  0.4758360000000 1.0
C      1  0.5519760000000  0.4929650000000  0.4045090000000 1.0
C      1  0.4791800000000  0.5137370000000  0.6114330000000 1.0
C      1  0.4722660000000  0.5417920000000  0.6052130000000 1.0
C      1  0.4593350000000  0.3963850000000  0.5103000000000 1.0
C      1  0.4646580000000  0.4037280000000  0.5567780000000 1.0
C      1  0.4623060000000  0.4589360000000  0.5341830000000 1.0
C      1  0.5086500000000  0.6063860000000  0.5336710000000 1.0
C      1  0.4163980000000  0.4821470000000  0.4391900000000 1.0
C      1  0.4511840000000  0.5491110000000  0.5869170000000 1.0
C      1  0.4627330000000  0.5365960000000  0.4556860000000 1.0
C      1  0.4845670000000  0.5040090000000  0.4898190000000 1.0
C      1  0.4454670000000  0.4059620000000  0.5348550000000 1.0
C      1  0.4226220000000  0.5464160000000  0.5861990000000 1.0
C      1  0.5026000000000  0.3861150000000  0.5342880000000 1.0
C      1  0.5386650000000  0.5014610000000  0.4287740000000 1.0
C      1  0.5716830000000  0.4283290000000  0.4336570000000 1.0
C      1  0.4245610000000  0.5919460000000  0.4334150000000 1.0
C      1  0.4403630000000  0.4122180000000  0.4649430000000 1.0
C      1  0.5553060000000  0.5725740000000  0.5128840000000 1.0
C      1  0.4142970000000  0.4904050000000  0.5674070000000 1.0
C      1  0.6121010000000  0.4444520000000  0.4489300000000 1.0
C      1  0.3902860000000  0.4751390000000  0.4996360000000 1.0
C      1  0.5835900000000  0.5979710000000  0.5781640000000 1.0
C      1  0.5083160000000  0.5113240000000  0.6174700000000 1.0
C      1  0.4928010000000  0.4861920000000  0.4340810000000 1.0
C      1  0.4705020000000  0.5148460000000  0.5349070000000 1.0
C      1  0.4968640000000  0.3629680000000  0.4960170000000 1.0
C      1  0.5298820000000  0.3853040000000  0.5222120000000 1.0
C      1  0.5239390000000  0.4869020000000  0.6193050000000 1.0
C      1  0.4061080000000  0.5041180000000  0.4538130000000 1.0
C      1  0.4961570000000  0.4590900000000  0.5959020000000 1.0
C      1  0.4623150000000  0.4935640000000  0.6015890000000 1.0
C      1  0.3952190000000  0.4855790000000  0.5261830000000 1.0
C      1  0.6459240000000  0.4630170000000  0.5280420000000 1.0
C      1  0.5094910000000  0.5334660000000  0.5582100000000 1.0
C      1  0.5295550000000  0.4859530000000  0.3877160000000 1.0
C      1  0.4523410000000  0.4578010000000  0.5610030000000 1.0
C      1  0.5406550000000  0.5485710000000  0.5107600000000 1.0
C      1  0.5156990000000  0.5504420000000  0.4995630000000 1.0
C      1  0.5138820000000  0.5526790000000  0.4475280000000 1.0
C      1  0.4791780000000  0.6244360000000  0.5028350000000 1.0
C      1  0.5447300000000  0.4785660000000  0.4845200000000 1.0
C      1  0.4900070000000  0.5027490000000  0.5178230000000 1.0
C      1  0.5506860000000  0.4008180000000  0.4622820000000 1.0
C      1  0.4476020000000  0.6422900000000  0.5385090000000 1.0
C      1  0.5038090000000  0.4425900000000  0.4037790000000 1.0
C      1  0.4037610000000  0.4491810000000  0.4990850000000 1.0
C      1  0.3812910000000  0.5346360000000  0.5234690000000 1.0
C      1  0.5172290000000  0.5327900000000  0.4019800000000 1.0
C      1  0.5082440000000  0.6153960000000  0.5057070000000 1.0
C      1  0.5200730000000  0.4869940000000  0.4422840000000 1.0
C      1  0.4397910000000  0.5492270000000  0.5380520000000 1.0
C      1  0.5241670000000  0.3733640000000  0.4944500000000 1.0
C      1  0.5260580000000  0.4399690000000  0.4460760000000 1.0
C      1  0.6228980000000  0.4840460000000  0.5665070000000 1.0
C      1  0.5089980000000  0.5066940000000  0.3921540000000 1.0
C      1  0.5577930000000  0.4188620000000  0.5034660000000 1.0
C      1  0.5848790000000  0.4389060000000  0.5370570000000 1.0
C      1  0.5685370000000  0.5779510000000  0.5668280000000 1.0
C      1  0.5305050000000  0.3825230000000  0.4682660000000 1.0
C      1  0.3556630000000  0.5556890000000  0.5579310000000 1.0
C      1  0.5719350000000  0.4141140000000  0.4785650000000 1.0
C      1  0.4814980000000  0.3776880000000  0.5149540000000 1.0
C      1  0.5966370000000  0.4843270000000  0.4790430000000 1.0
C      1  0.4994270000000  0.5422120000000  0.4240130000000 1.0
C      1  0.4060860000000  0.4622890000000  0.5669540000000 1.0
C      1  0.5718420000000  0.5339870000000  0.4093300000000 1.0
C      1  0.5555370000000  0.5713180000000  0.4636980000000 1.0
C      1  0.6517240000000  0.5281320000000  0.4653910000000 1.0
C      1  0.4292350000000  0.4842510000000  0.3904050000000 1.0
C      1  0.6003820000000  0.4976560000000  0.5625580000000 1.0
C      1  0.5894990000000  0.4286420000000  0.4570640000000 1.0
C      1  0.5485880000000  0.4849750000000  0.6034560000000 1.0
C      1  0.4853060000000  0.4457030000000  0.5248540000000 1.0
C      1  0.5578060000000  0.5581580000000  0.5842130000000 1.0
C      1  0.4118670000000  0.5477250000000  0.4704390000000 1.0
C      1  0.5637640000000  0.4232890000000  0.5491990000000 1.0
C      1  0.4604620000000  0.4113690000000  0.4858580000000 1.0
C      1  0.5512070000000  0.5872980000000  0.4880790000000 1.0
C      1  0.5353550000000  0.5709360000000  0.4429890000000 1.0
C      1  0.5128330000000  0.4852120000000  0.5256980000000 1.0
C      1  0.4018890000000  0.5738620000000  0.4696990000000 1.0
C      1  0.4277710000000  0.4432240000000  0.5627950000000 1.0
END
