TITL C-247200-3482-147 0.0924839683049498 125000 -325.709678776668 0 0 55 (C1) n - 1
REM
REM in /home/nfs/bkarasulu/CARBON/AIRSS/Generating-Clusters/LCBOP/Only-C1/SD-CG/FIRE-HFTN
REM
REM
REM
REM
REM
REM ./C.cell (11c1c37f851c82e70ff6c80c92926a4b)
REM AIRSS Version 0.9.1 bugfix July 2018 build 013d7b7c2542+ Fri, 06 Jul 2018 19:26:36 +0100
REM compiler GCC version 9.2.1 20190827 (Red Hat 9.2.1-1)
REM options -cpp -mtune=generic -march=x86-64 -g -O0 -fpre-include=/usr/include/finclude/math-vector-fortran.h
REM seed 132301647 24006290 -1165596166 -1536864161 -287955558 690364941 -240745231 1679703116 1296416499 -2109037000 299635902 1425063894 716076606 180919033 1565482817 1516947173 1032730695 376616456 1573371815 -668204472 517481463 -2041768264 2127648631 296343090 -91042855 -766180487 -898377499 -1680975793 -862980897 42525984 -1335375085 1321186354 -1668900691
REM
CELL 1.54180   50.00000   50.00000   50.00000   90.00000   90.00000   90.00000
LATT -1
SFAC C  
C      1  0.4044140000000  0.5632810000000  0.3733880000000 1.0
C      1  0.5246240000000  0.4546630000000  0.4759540000000 1.0
C      1  0.4167250000000  0.5071100000000  0.5061430000000 1.0
C      1  0.4582580000000  0.4751230000000  0.5797700000000 1.0
C      1  0.4418210000000  0.4982420000000  0.5174490000000 1.0
C      1  0.4185180000000  0.5396670000000  0.4197550000000 1.0
C      1  0.3837520000000  0.5422130000000  0.5188800000000 1.0
C      1  0.4444500000000  0.4763130000000  0.6040480000000 1.0
C      1  0.6233610000000  0.5056840000000  0.5536540000000 1.0
C      1  0.4800200000000  0.4876080000000  0.4798120000000 1.0
C      1  0.3728120000000  0.5573900000000  0.4998680000000 1.0
C      1  0.4417780000000  0.5056890000000  0.5454220000000 1.0
C      1  0.4178910000000  0.5213370000000  0.5506210000000 1.0
C      1  0.4631110000000  0.4894010000000  0.5020620000000 1.0
C      1  0.3723150000000  0.5631450000000  0.4737900000000 1.0
C      1  0.4016760000000  0.5122810000000  0.4561550000000 1.0
C      1  0.6046110000000  0.4640450000000  0.4299740000000 1.0
C      1  0.5558490000000  0.5387650000000  0.5482670000000 1.0
C      1  0.3995060000000  0.5354560000000  0.4403880000000 1.0
C      1  0.5569510000000  0.5452510000000  0.5210760000000 1.0
C      1  0.6123000000000  0.4644300000000  0.4050780000000 1.0
C      1  0.4310390000000  0.4784310000000  0.6262920000000 1.0
C      1  0.6349110000000  0.4892500000000  0.5362940000000 1.0
C      1  0.6278990000000  0.4599760000000  0.4937540000000 1.0
C      1  0.5016430000000  0.4699670000000  0.4798080000000 1.0
C      1  0.5311920000000  0.5362230000000  0.5610610000000 1.0
C      1  0.5878800000000  0.4002810000000  0.4791440000000 1.0
C      1  0.6104460000000  0.4478890000000  0.4756230000000 1.0
C      1  0.4043060000000  0.5416670000000  0.5984420000000 1.0
C      1  0.4447180000000  0.5308240000000  0.4245240000000 1.0
C      1  0.5759670000000  0.5068280000000  0.4669580000000 1.0
C      1  0.4104910000000  0.5320660000000  0.5750190000000 1.0
C      1  0.4749870000000  0.5035020000000  0.4572930000000 1.0
C      1  0.5376160000000  0.4039670000000  0.4804750000000 1.0
C      1  0.3824440000000  0.5554770000000  0.4502370000000 1.0
C      1  0.4687450000000  0.4515050000000  0.5707850000000 1.0
C      1  0.5962800000000  0.4636970000000  0.4566410000000 1.0
C      1  0.5780500000000  0.5519090000000  0.4504960000000 1.0
C      1  0.6035530000000  0.5207780000000  0.5628670000000 1.0
C      1  0.4635640000000  0.5180870000000  0.4382720000000 1.0
C      1  0.5068440000000  0.5278260000000  0.5673090000000 1.0
C      1  0.4835850000000  0.5151750000000  0.5682100000000 1.0
C      1  0.4080230000000  0.5028690000000  0.4801890000000 1.0
C      1  0.4612510000000  0.4988500000000  0.5644100000000 1.0
C      1  0.4114190000000  0.5517790000000  0.3957000000000 1.0
C      1  0.6051060000000  0.4204570000000  0.4771960000000 1.0
C      1  0.4031890000000  0.5236100000000  0.5258590000000 1.0
C      1  0.5736730000000  0.4790800000000  0.4645600000000 1.0
C      1  0.5489540000000  0.4669090000000  0.4693790000000 1.0
C      1  0.5240460000000  0.4268150000000  0.4788610000000 1.0
C      1  0.5723970000000  0.5343200000000  0.4706460000000 1.0
C      1  0.6362890000000  0.4736080000000  0.5149000000000 1.0
C      1  0.5629380000000  0.5434780000000  0.4953250000000 1.0
C      1  0.5621400000000  0.3935150000000  0.4805130000000 1.0
C      1  0.5796730000000  0.5322890000000  0.5614060000000 1.0
END
