TITL C-247197-3123-461 0.108022853045253 125000 -763.954123195313 0 0 126 (C1) n - 1
REM
REM in /home/nfs/bkarasulu/CARBON/AIRSS/Generating-Clusters/LCBOP/Only-C1/SD-CG/FIRE-HFTN
REM
REM
REM
REM
REM
REM ./C.cell (11c1c37f851c82e70ff6c80c92926a4b)
REM AIRSS Version 0.9.1 bugfix July 2018 build 013d7b7c2542+ Fri, 06 Jul 2018 19:26:36 +0100
REM compiler GCC version 9.2.1 20190827 (Red Hat 9.2.1-1)
REM options -cpp -mtune=generic -march=x86-64 -g -O0 -fpre-include=/usr/include/finclude/math-vector-fortran.h
REM seed 1705073435 -1464779471 -347775324 -535991151 -1241977405 1474248287 -1144504106 489014798 -745756011 221266915 1427639863 874640523 2103765378 -1919866871 -430040947 2101669693 1977079402 -1720984511 -191850281 -2019995329 402841561 487699429 473961304 -2122059907 -1720584328 1460354212 1301857603 -1687125511 -1521967351 -1083453790 -1547323141 -710459541 1450704161
REM
CELL 1.54180   50.00000   50.00000   50.00000   90.00000   90.00000   90.00000
LATT -1
SFAC C  
C      1  0.5363420000000  0.3934570000000  0.5223720000000 1.0
C      1  0.4759100000000  0.4771960000000  0.3926470000000 1.0
C      1  0.4878480000000  0.4634910000000  0.5265520000000 1.0
C      1  0.5248450000000  0.5401980000000  0.5426140000000 1.0
C      1  0.5193020000000  0.4992810000000  0.5171820000000 1.0
C      1  0.5506260000000  0.5417460000000  0.5295970000000 1.0
C      1  0.5456180000000  0.5672940000000  0.4572390000000 1.0
C      1  0.4449850000000  0.5044680000000  0.4205360000000 1.0
C      1  0.5923930000000  0.5372320000000  0.4571520000000 1.0
C      1  0.5031980000000  0.4901980000000  0.5841920000000 1.0
C      1  0.5755540000000  0.5338720000000  0.5435850000000 1.0
C      1  0.4429250000000  0.3998630000000  0.4951760000000 1.0
C      1  0.4257180000000  0.3805450000000  0.4865090000000 1.0
C      1  0.5367320000000  0.4929620000000  0.4597500000000 1.0
C      1  0.5755160000000  0.5625610000000  0.4623290000000 1.0
C      1  0.5562540000000  0.5241050000000  0.4296170000000 1.0
C      1  0.4460160000000  0.5139460000000  0.4733480000000 1.0
C      1  0.4730530000000  0.4324140000000  0.4359910000000 1.0
C      1  0.4591660000000  0.5352860000000  0.5720860000000 1.0
C      1  0.4480500000000  0.4440020000000  0.4351120000000 1.0
C      1  0.4099930000000  0.4742540000000  0.5178640000000 1.0
C      1  0.5747040000000  0.5633030000000  0.4919280000000 1.0
C      1  0.5106400000000  0.5147910000000  0.5401260000000 1.0
C      1  0.5228790000000  0.5260200000000  0.6063330000000 1.0
C      1  0.5251980000000  0.4361110000000  0.5846450000000 1.0
C      1  0.5800000000000  0.5473740000000  0.5679110000000 1.0
C      1  0.5929850000000  0.4865370000000  0.5423240000000 1.0
C      1  0.4249720000000  0.4550960000000  0.4492300000000 1.0
C      1  0.4866370000000  0.4022540000000  0.5286030000000 1.0
C      1  0.5185200000000  0.4106800000000  0.4596160000000 1.0
C      1  0.5461950000000  0.4230930000000  0.4617220000000 1.0
C      1  0.5011080000000  0.5833030000000  0.5474640000000 1.0
C      1  0.4899370000000  0.5395460000000  0.4444970000000 1.0
C      1  0.5241890000000  0.4720240000000  0.3956800000000 1.0
C      1  0.4674650000000  0.4403340000000  0.4905490000000 1.0
C      1  0.5634410000000  0.5638000000000  0.5814820000000 1.0
C      1  0.4909340000000  0.6157200000000  0.5080390000000 1.0
C      1  0.4355560000000  0.5304160000000  0.4144190000000 1.0
C      1  0.4933070000000  0.4695920000000  0.6013890000000 1.0
C      1  0.5518060000000  0.5332160000000  0.4043180000000 1.0
C      1  0.4919030000000  0.5024910000000  0.5601180000000 1.0
C      1  0.4958660000000  0.4283650000000  0.4529970000000 1.0
C      1  0.6061830000000  0.5264010000000  0.4805400000000 1.0
C      1  0.5560680000000  0.4696250000000  0.5140400000000 1.0
C      1  0.3866430000000  0.4661950000000  0.4220960000000 1.0
C      1  0.5080900000000  0.5200560000000  0.4359580000000 1.0
C      1  0.3997080000000  0.6102950000000  0.5634390000000 1.0
C      1  0.4647260000000  0.4501850000000  0.5168970000000 1.0
C      1  0.4633380000000  0.5087470000000  0.5613080000000 1.0
C      1  0.4651950000000  0.4687820000000  0.6068440000000 1.0
C      1  0.4447460000000  0.5544620000000  0.5576620000000 1.0
C      1  0.4052980000000  0.4752790000000  0.4404880000000 1.0
C      1  0.5009890000000  0.4797090000000  0.5048520000000 1.0
C      1  0.5087650000000  0.5489700000000  0.4864880000000 1.0
C      1  0.4725150000000  0.5178260000000  0.4844140000000 1.0
C      1  0.4955980000000  0.6158400000000  0.4805500000000 1.0
C      1  0.5802260000000  0.4614350000000  0.4411720000000 1.0
C      1  0.5533540000000  0.4256390000000  0.4899010000000 1.0
C      1  0.5819150000000  0.5165540000000  0.4395280000000 1.0
C      1  0.4275740000000  0.5478170000000  0.4363480000000 1.0
C      1  0.4521950000000  0.4989900000000  0.4481510000000 1.0
C      1  0.4088750000000  0.4582180000000  0.4962520000000 1.0
C      1  0.4621440000000  0.5821420000000  0.4646620000000 1.0
C      1  0.6156390000000  0.4768480000000  0.5552720000000 1.0
C      1  0.4927110000000  0.4422360000000  0.4779470000000 1.0
C      1  0.4976130000000  0.4937160000000  0.4317120000000 1.0
C      1  0.4865370000000  0.5392820000000  0.4732640000000 1.0
C      1  0.4501770000000  0.5659840000000  0.4428210000000 1.0
C      1  0.5250440000000  0.5873260000000  0.4526870000000 1.0
C      1  0.5104730000000  0.3939770000000  0.4827830000000 1.0
C      1  0.5527450000000  0.6246050000000  0.4348090000000 1.0
C      1  0.4767400000000  0.4318040000000  0.5776560000000 1.0
C      1  0.4425470000000  0.4393960000000  0.5301540000000 1.0
C      1  0.5922300000000  0.5131500000000  0.5312430000000 1.0
C      1  0.4738330000000  0.5563360000000  0.4292830000000 1.0
C      1  0.5279590000000  0.5019480000000  0.5924620000000 1.0
C      1  0.5637480000000  0.5137490000000  0.4966070000000 1.0
C      1  0.6365950000000  0.4677660000000  0.5678200000000 1.0
C      1  0.4907270000000  0.5919340000000  0.4647660000000 1.0
C      1  0.5877670000000  0.4880090000000  0.4393770000000 1.0
C      1  0.4996420000000  0.4414220000000  0.5950190000000 1.0
C      1  0.5296020000000  0.4491080000000  0.5595450000000 1.0
C      1  0.5330650000000  0.6149140000000  0.4508150000000 1.0
C      1  0.4481070000000  0.5827370000000  0.4892810000000 1.0
C      1  0.5367550000000  0.4682670000000  0.4498230000000 1.0
C      1  0.4225690000000  0.5191300000000  0.5177770000000 1.0
C      1  0.4231800000000  0.4951270000000  0.5324130000000 1.0
C      1  0.5186630000000  0.5639650000000  0.5573580000000 1.0
C      1  0.5453870000000  0.4652020000000  0.3821360000000 1.0
C      1  0.4880880000000  0.4226720000000  0.5507040000000 1.0
C      1  0.5378120000000  0.5709440000000  0.5771130000000 1.0
C      1  0.5419200000000  0.4496010000000  0.5000290000000 1.0
C      1  0.4408590000000  0.4905980000000  0.5554490000000 1.0
C      1  0.5921500000000  0.5143050000000  0.5020750000000 1.0
C      1  0.4022950000000  0.5033840000000  0.4482860000000 1.0
C      1  0.4520240000000  0.4872470000000  0.3995740000000 1.0
C      1  0.4995880000000  0.5400380000000  0.6064880000000 1.0
C      1  0.4372480000000  0.4642500000000  0.5680100000000 1.0
C      1  0.5538770000000  0.5419420000000  0.4993420000000 1.0
C      1  0.5510870000000  0.4681470000000  0.5608750000000 1.0
C      1  0.4409320000000  0.5775570000000  0.5144070000000 1.0
C      1  0.5348630000000  0.5433890000000  0.4738230000000 1.0
C      1  0.5098610000000  0.3945230000000  0.5120720000000 1.0
C      1  0.4615210000000  0.3952060000000  0.5165410000000 1.0
C      1  0.4855310000000  0.4920660000000  0.4816310000000 1.0
C      1  0.4262060000000  0.5219120000000  0.4912880000000 1.0
C      1  0.4757690000000  0.5425330000000  0.5940680000000 1.0
C      1  0.4067330000000  0.5309390000000  0.4486150000000 1.0
C      1  0.4437810000000  0.4260490000000  0.4834030000000 1.0
C      1  0.4162330000000  0.5931290000000  0.5528800000000 1.0
C      1  0.5553870000000  0.4470210000000  0.4471650000000 1.0
C      1  0.5000550000000  0.4802050000000  0.4067950000000 1.0
C      1  0.5692650000000  0.4703550000000  0.5392710000000 1.0
C      1  0.5499270000000  0.4883780000000  0.5811500000000 1.0
C      1  0.5344240000000  0.5211200000000  0.4506020000000 1.0
C      1  0.5460270000000  0.4953560000000  0.5079470000000 1.0
C      1  0.5051220000000  0.4468050000000  0.5432240000000 1.0
C      1  0.5148990000000  0.4559210000000  0.4910490000000 1.0
C      1  0.4791340000000  0.4865880000000  0.4526970000000 1.0
C      1  0.4224890000000  0.4441230000000  0.4758010000000 1.0
C      1  0.4549940000000  0.4516650000000  0.5859870000000 1.0
C      1  0.5568950000000  0.4049720000000  0.5087700000000 1.0
C      1  0.4932690000000  0.6029110000000  0.5312800000000 1.0
C      1  0.4341210000000  0.5748520000000  0.5415370000000 1.0
C      1  0.4264370000000  0.4451130000000  0.5505970000000 1.0
C      1  0.5166920000000  0.6306450000000  0.4681990000000 1.0
END
