TITL C-247198-3593-352 0.00447615801916883 125000 -747.198910942016 0 0 121 (C1) n - 1
REM
REM in /home/nfs/bkarasulu/CARBON/AIRSS/Generating-Clusters/LCBOP/Only-C1/SD-CG/FIRE-HFTN
REM
REM
REM
REM
REM
REM ./C.cell (11c1c37f851c82e70ff6c80c92926a4b)
REM AIRSS Version 0.9.1 bugfix July 2018 build 013d7b7c2542+ Fri, 06 Jul 2018 19:26:36 +0100
REM compiler GCC version 9.2.1 20190827 (Red Hat 9.2.1-1)
REM options -cpp -mtune=generic -march=x86-64 -g -O0 -fpre-include=/usr/include/finclude/math-vector-fortran.h
REM seed 844432460 -1538566348 488382299 526755816 1296034422 -147852403 698629553 1269781610 -1672686961 497357255 -1492700137 1847836033 1201741231 -2114325397 1702481393 -2073334151 1786055238 -1600177203 1118728356 -1022822282 585835441 316215343 1224790952 -1130461131 -1982697147 -191495888 1631360376 -1911149450 -1519111924 1568054104 -1331117824 779303533 -1607066623
REM
CELL 1.54180   50.00000   50.00000   50.00000   90.00000   90.00000   90.00000
LATT -1
SFAC C  
C      1  0.5192760000000  0.4654580000000  0.5207480000000 1.0
C      1  0.4872420000000  0.5702560000000  0.4288860000000 1.0
C      1  0.5259880000000  0.5644660000000  0.5201130000000 1.0
C      1  0.6681310000000  0.5391280000000  0.4819150000000 1.0
C      1  0.5582740000000  0.4853990000000  0.4278840000000 1.0
C      1  0.5049800000000  0.5811550000000  0.5356520000000 1.0
C      1  0.4944500000000  0.4863840000000  0.4499880000000 1.0
C      1  0.4517010000000  0.4990400000000  0.4695970000000 1.0
C      1  0.4639650000000  0.5596150000000  0.5530530000000 1.0
C      1  0.4607330000000  0.4700850000000  0.5598900000000 1.0
C      1  0.3846090000000  0.4653460000000  0.6584240000000 1.0
C      1  0.5111850000000  0.5537520000000  0.4950720000000 1.0
C      1  0.4340710000000  0.4773450000000  0.4625020000000 1.0
C      1  0.4398040000000  0.4008200000000  0.5451580000000 1.0
C      1  0.4784220000000  0.4901070000000  0.4730080000000 1.0
C      1  0.4665760000000  0.5545190000000  0.4217270000000 1.0
C      1  0.4261840000000  0.4611790000000  0.4852390000000 1.0
C      1  0.5002130000000  0.6243270000000  0.4703760000000 1.0
C      1  0.4257270000000  0.6295090000000  0.4880640000000 1.0
C      1  0.6913450000000  0.5419150000000  0.4703840000000 1.0
C      1  0.5153730000000  0.5677510000000  0.4264380000000 1.0
C      1  0.5704690000000  0.4425290000000  0.4483820000000 1.0
C      1  0.5414080000000  0.5182540000000  0.4527500000000 1.0
C      1  0.4941690000000  0.3942680000000  0.4672790000000 1.0
C      1  0.4775680000000  0.4022030000000  0.4901910000000 1.0
C      1  0.6445050000000  0.5363990000000  0.4935850000000 1.0
C      1  0.5342070000000  0.4601360000000  0.5438020000000 1.0
C      1  0.4467090000000  0.4411540000000  0.4928170000000 1.0
C      1  0.5765280000000  0.4759710000000  0.5343600000000 1.0
C      1  0.5478750000000  0.5199780000000  0.5263330000000 1.0
C      1  0.4409250000000  0.4659330000000  0.4361250000000 1.0
C      1  0.5044620000000  0.4511820000000  0.4806340000000 1.0
C      1  0.4612630000000  0.4796510000000  0.4199190000000 1.0
C      1  0.5038470000000  0.4574430000000  0.4082500000000 1.0
C      1  0.5752570000000  0.4102100000000  0.4832720000000 1.0
C      1  0.4924370000000  0.5643510000000  0.5537880000000 1.0
C      1  0.4981630000000  0.5034680000000  0.3961810000000 1.0
C      1  0.4876440000000  0.4690170000000  0.4285930000000 1.0
C      1  0.4877420000000  0.5213280000000  0.5669300000000 1.0
C      1  0.4086940000000  0.4908650000000  0.5237700000000 1.0
C      1  0.6181680000000  0.5981680000000  0.5412350000000 1.0
C      1  0.5567730000000  0.4225840000000  0.5307970000000 1.0
C      1  0.3557710000000  0.4538170000000  0.7013780000000 1.0
C      1  0.3990260000000  0.4711100000000  0.6369490000000 1.0
C      1  0.4134410000000  0.4768730000000  0.6154740000000 1.0
C      1  0.4506980000000  0.4445240000000  0.5211300000000 1.0
C      1  0.6191110000000  0.5343030000000  0.5054330000000 1.0
C      1  0.4119640000000  0.4653460000000  0.5119770000000 1.0
C      1  0.4199910000000  0.4195910000000  0.5438360000000 1.0
C      1  0.5314720000000  0.4105620000000  0.5420840000000 1.0
C      1  0.5579980000000  0.4087500000000  0.5051520000000 1.0
C      1  0.4694780000000  0.4599500000000  0.5354050000000 1.0
C      1  0.4597900000000  0.5303530000000  0.4121690000000 1.0
C      1  0.6111060000000  0.5083000000000  0.5140270000000 1.0
C      1  0.5831910000000  0.4988990000000  0.4231100000000 1.0
C      1  0.4278320000000  0.6138720000000  0.5115710000000 1.0
C      1  0.4022750000000  0.6392840000000  0.4783950000000 1.0
C      1  0.5315960000000  0.3974580000000  0.4984030000000 1.0
C      1  0.4508850000000  0.6337420000000  0.4757750000000 1.0
C      1  0.4288000000000  0.5453580000000  0.4807590000000 1.0
C      1  0.5395230000000  0.4058230000000  0.4503040000000 1.0
C      1  0.5650570000000  0.4168210000000  0.4578140000000 1.0
C      1  0.5137270000000  0.3991180000000  0.5218710000000 1.0
C      1  0.4277840000000  0.4825810000000  0.5939530000000 1.0
C      1  0.4432370000000  0.5254550000000  0.4705840000000 1.0
C      1  0.5445120000000  0.5870690000000  0.5115110000000 1.0
C      1  0.4106210000000  0.5388140000000  0.5260520000000 1.0
C      1  0.4565420000000  0.4174340000000  0.4502340000000 1.0
C      1  0.4906290000000  0.4697960000000  0.5199020000000 1.0
C      1  0.5533210000000  0.5201560000000  0.4982880000000 1.0
C      1  0.4496930000000  0.5800930000000  0.5402360000000 1.0
C      1  0.6005900000000  0.4845690000000  0.5219800000000 1.0
C      1  0.4849990000000  0.4703310000000  0.4915400000000 1.0
C      1  0.4225610000000  0.4444060000000  0.5302940000000 1.0
C      1  0.5253940000000  0.4638810000000  0.5699150000000 1.0
C      1  0.4698850000000  0.5046890000000  0.4061380000000 1.0
C      1  0.5409040000000  0.5037060000000  0.4780990000000 1.0
C      1  0.5223000000000  0.3960630000000  0.4711880000000 1.0
C      1  0.5250470000000  0.6140040000000  0.4788070000000 1.0
C      1  0.5196070000000  0.5181240000000  0.4091200000000 1.0
C      1  0.5364880000000  0.5048060000000  0.4279260000000 1.0
C      1  0.5606240000000  0.4994300000000  0.5408070000000 1.0
C      1  0.4646830000000  0.3946830000000  0.5363960000000 1.0
C      1  0.5609830000000  0.5829540000000  0.4880040000000 1.0
C      1  0.5801790000000  0.5620610000000  0.4911190000000 1.0
C      1  0.4606840000000  0.5313690000000  0.5599140000000 1.0
C      1  0.5014930000000  0.6059850000000  0.5222230000000 1.0
C      1  0.5262160000000  0.6101710000000  0.5076250000000 1.0
C      1  0.4422950000000  0.4881780000000  0.5709140000000 1.0
C      1  0.5339970000000  0.5814890000000  0.4428660000000 1.0
C      1  0.5434350000000  0.5945480000000  0.4662720000000 1.0
C      1  0.4758620000000  0.6244820000000  0.4848940000000 1.0
C      1  0.5674590000000  0.5324390000000  0.4542530000000 1.0
C      1  0.4954100000000  0.5010500000000  0.5842960000000 1.0
C      1  0.4146570000000  0.5511990000000  0.5026630000000 1.0
C      1  0.6116320000000  0.5790520000000  0.5247750000000 1.0
C      1  0.3701920000000  0.4595820000000  0.6798980000000 1.0
C      1  0.4793890000000  0.3847410000000  0.4201930000000 1.0
C      1  0.4777150000000  0.3986240000000  0.4435250000000 1.0
C      1  0.5450800000000  0.4755950000000  0.4756770000000 1.0
C      1  0.5061510000000  0.4770560000000  0.3876890000000 1.0
C      1  0.4184640000000  0.5141300000000  0.5369290000000 1.0
C      1  0.5577890000000  0.4672840000000  0.4505910000000 1.0
C      1  0.5612270000000  0.4508480000000  0.5373550000000 1.0
C      1  0.4428870000000  0.4373010000000  0.4356780000000 1.0
C      1  0.5170650000000  0.4332170000000  0.4111350000000 1.0
C      1  0.5292590000000  0.4596280000000  0.4930770000000 1.0
C      1  0.5298870000000  0.5393190000000  0.5373840000000 1.0
C      1  0.5702410000000  0.5376770000000  0.4822090000000 1.0
C      1  0.6036730000000  0.5589210000000  0.5071550000000 1.0
C      1  0.4854980000000  0.3978560000000  0.5173210000000 1.0
C      1  0.4760920000000  0.6120870000000  0.5112770000000 1.0
C      1  0.4392300000000  0.5128790000000  0.5567170000000 1.0
C      1  0.5076930000000  0.5392070000000  0.5563650000000 1.0
C      1  0.5289080000000  0.4141970000000  0.4256210000000 1.0
C      1  0.5225460000000  0.5462530000000  0.4093480000000 1.0
C      1  0.5868290000000  0.5229630000000  0.4358000000000 1.0
C      1  0.4570380000000  0.4193860000000  0.4792330000000 1.0
C      1  0.5108630000000  0.4794200000000  0.5858910000000 1.0
C      1  0.3415880000000  0.4481460000000  0.7225050000000 1.0
C      1  0.4511840000000  0.6021200000000  0.5225080000000 1.0
END
