TITL C-247195-3186-186 1.9301395260481e-07 125000 -344.754560435017 0 0 58 (C1) n - 1
REM
REM in /home/nfs/bkarasulu/CARBON/AIRSS/Generating-Clusters/LCBOP/Only-C1/SD-CG/FIRE-HFTN
REM
REM
REM
REM
REM
REM ./C.cell (11c1c37f851c82e70ff6c80c92926a4b)
REM AIRSS Version 0.9.1 bugfix July 2018 build 013d7b7c2542+ Fri, 06 Jul 2018 19:26:36 +0100
REM compiler GCC version 9.2.1 20190827 (Red Hat 9.2.1-1)
REM options -cpp -mtune=generic -march=x86-64 -g -O0 -fpre-include=/usr/include/finclude/math-vector-fortran.h
REM seed 1682472927 1766188355 1867818008 -1083596630 -1462986561 -929725549 -1063222134 -1535333231 -1708682090 1879735939 1041297615 217156534 640462646 -1555057374 -1814957332 -1475223860 1278036357 1334994177 -1126101793 -1171565138 1346361939 -1025837392 1050554207 1676236705 1069898487 -1519243773 -1998384158 1549757678 -787544125 -877092949 1924299930 -693378468 1813009166
REM
CELL 1.54180   50.00000   50.00000   50.00000   90.00000   90.00000   90.00000
LATT -1
SFAC C  
C      1  0.5453700000000  0.4981050000000  0.5377520000000 1.0
C      1  0.4836130000000  0.5418690000000  0.4515330000000 1.0
C      1  0.5466770000000  0.5584540000000  0.4712350000000 1.0
C      1  0.5125140000000  0.5716110000000  0.4347810000000 1.0
C      1  0.4809990000000  0.5521000000000  0.5218340000000 1.0
C      1  0.3867820000000  0.4852830000000  0.4951630000000 1.0
C      1  0.5341400000000  0.5451000000000  0.5355930000000 1.0
C      1  0.5400520000000  0.4782520000000  0.4685430000000 1.0
C      1  0.4339870000000  0.5277640000000  0.4880240000000 1.0
C      1  0.4873420000000  0.5584460000000  0.4279990000000 1.0
C      1  0.5706330000000  0.5140460000000  0.4666760000000 1.0
C      1  0.5571620000000  0.4747280000000  0.5416360000000 1.0
C      1  0.3856070000000  0.5193730000000  0.4555330000000 1.0
C      1  0.4800370000000  0.4654470000000  0.5709920000000 1.0
C      1  0.5899930000000  0.3682340000000  0.5581020000000 1.0
C      1  0.4407760000000  0.4931740000000  0.5467180000000 1.0
C      1  0.4673340000000  0.5845630000000  0.3632070000000 1.0
C      1  0.3815820000000  0.5001030000000  0.4735820000000 1.0
C      1  0.4449970000000  0.5194650000000  0.5366320000000 1.0
C      1  0.5905020000000  0.4516480000000  0.4992420000000 1.0
C      1  0.5244650000000  0.4372330000000  0.5683900000000 1.0
C      1  0.5839050000000  0.3944780000000  0.5476940000000 1.0
C      1  0.5665800000000  0.5769740000000  0.4737800000000 1.0
C      1  0.4351670000000  0.5529780000000  0.4746440000000 1.0
C      1  0.5860630000000  0.4682450000000  0.4788600000000 1.0
C      1  0.5508590000000  0.5311900000000  0.4779830000000 1.0
C      1  0.4683190000000  0.5352070000000  0.5385610000000 1.0
C      1  0.4237890000000  0.5541880000000  0.4485300000000 1.0
C      1  0.5541010000000  0.3826400000000  0.5817080000000 1.0
C      1  0.4956420000000  0.4816880000000  0.4891280000000 1.0
C      1  0.5602050000000  0.4041190000000  0.5631720000000 1.0
C      1  0.5017440000000  0.4502440000000  0.5728610000000 1.0
C      1  0.5209010000000  0.5656180000000  0.4622780000000 1.0
C      1  0.4184410000000  0.4794650000000  0.5361470000000 1.0
C      1  0.5366760000000  0.5685180000000  0.5467590000000 1.0
C      1  0.5324700000000  0.5169260000000  0.4953400000000 1.0
C      1  0.4970450000000  0.5536150000000  0.4747110000000 1.0
C      1  0.4642530000000  0.5660150000000  0.4137210000000 1.0
C      1  0.4917410000000  0.4330350000000  0.5116370000000 1.0
C      1  0.5359100000000  0.5201090000000  0.5233510000000 1.0
C      1  0.5491510000000  0.4294250000000  0.5577310000000 1.0
C      1  0.5675430000000  0.4857320000000  0.4674060000000 1.0
C      1  0.4278440000000  0.5272320000000  0.5154260000000 1.0
C      1  0.4595460000000  0.4802030000000  0.5627670000000 1.0
C      1  0.3999460000000  0.5395150000000  0.4452790000000 1.0
C      1  0.4719960000000  0.4926580000000  0.4789700000000 1.0
C      1  0.5211200000000  0.4928570000000  0.4840530000000 1.0
C      1  0.4491810000000  0.5063150000000  0.4780280000000 1.0
C      1  0.4394100000000  0.5634160000000  0.4270480000000 1.0
C      1  0.4798770000000  0.5620060000000  0.4954950000000 1.0
C      1  0.4941000000000  0.4576660000000  0.5034490000000 1.0
C      1  0.3996660000000  0.4775230000000  0.5172210000000 1.0
C      1  0.5936070000000  0.4121510000000  0.5284640000000 1.0
C      1  0.5720330000000  0.3616730000000  0.5782610000000 1.0
C      1  0.5833300000000  0.4376920000000  0.5223580000000 1.0
C      1  0.4656890000000  0.5755620000000  0.3876090000000 1.0
C      1  0.4542500000000  0.5705850000000  0.4859290000000 1.0
C      1  0.5633350000000  0.4475410000000  0.5404770000000 1.0
END
