TITL C-247196-3112-11 34334.2262604562 125000 -655.803416126258 0 0 110 (C1) n - 1
REM
REM in /home/nfs/bkarasulu/CARBON/AIRSS/Generating-Clusters/LCBOP/Only-C1/SD-CG/FIRE-HFTN
REM
REM
REM
REM
REM
REM ./C.cell (11c1c37f851c82e70ff6c80c92926a4b)
REM AIRSS Version 0.9.1 bugfix July 2018 build 013d7b7c2542+ Fri, 06 Jul 2018 19:26:36 +0100
REM compiler GCC version 9.2.1 20190827 (Red Hat 9.2.1-1)
REM options -cpp -mtune=generic -march=x86-64 -g -O0 -fpre-include=/usr/include/finclude/math-vector-fortran.h
REM seed -846201899 -1307764770 1711097079 -2089294778 -1538774110 1207066102 -1740875799 990330724 -909517605 -1011337613 -730666241 -306454250 1336661349 948103369 -2090347089 1711785900 2024651041 43030308 504685884 787984567 -2134529819 1804001789 902590682 398360385 599477871 -2095374542 -587634221 82104176 -799822005 -1759830548 -1831273968 -2010898302 -1991434795
REM
CELL 1.54180   50.00000   50.00000   50.00000   90.00000   90.00000   90.00000
LATT -1
SFAC C  
C      1  0.5342120000000  0.5739220000000  0.5169410000000 1.0
C      1  0.5451750000000  0.5185180000000  0.5534520000000 1.0
C      1  0.4945070000000  0.5215610000000  0.4507690000000 1.0
C      1  0.4547230000000  0.4071820000000  0.4798440000000 1.0
C      1  0.4915200000000  0.3772670000000  0.5383680000000 1.0
C      1  0.4555570000000  0.5155120000000  0.5077360000000 1.0
C      1  0.5008660000000  0.4577150000000  0.5890080000000 1.0
C      1  0.5470250000000  0.4192420000000  0.4803130000000 1.0
C      1  0.5543190000000  0.4395890000000  0.5906230000000 1.0
C      1  0.5146350000000  0.5069360000000  0.5915290000000 1.0
C      1  0.4490730000000  0.6122020000000  0.5811360000000 1.0
C      1  0.5336750000000  0.4259690000000  0.6014310000000 1.0
C      1  0.5656090000000  0.5420120000000  0.4471880000000 1.0
C      1  0.5108580000000  0.5501860000000  0.5674600000000 1.0
C      1  0.5169880000000  0.5949630000000  0.5078370000000 1.0
C      1  0.4861850000000  0.5942980000000  0.4673150000000 1.0
C      1  0.5573220000000  0.5426100000000  0.4196550000000 1.0
C      1  0.5860780000000  0.5269800000000  0.5216230000000 1.0
C      1  0.4997660000000  0.4653730000000  0.4730300000000 1.0
C      1  0.4718170000000  0.5062300000000  0.4571600000000 1.0
C      1  0.4953940000000  0.5390040000000  0.5032380000000 1.0
C      1  0.5330720000000  0.5769160000000  0.4653510000000 1.0
C      1  0.5059610000000  0.4167520000000  0.5209820000000 1.0
C      1  0.5861620000000  0.5246190000000  0.4568980000000 1.0
C      1  0.5247250000000  0.4737040000000  0.4856110000000 1.0
C      1  0.6002910000000  0.4590970000000  0.5220010000000 1.0
C      1  0.5053400000000  0.4832750000000  0.6017390000000 1.0
C      1  0.5484310000000  0.5111680000000  0.5041410000000 1.0
C      1  0.5237570000000  0.5251130000000  0.5712160000000 1.0
C      1  0.5204920000000  0.4217270000000  0.4754010000000 1.0
C      1  0.4569380000000  0.4751530000000  0.4134410000000 1.0
C      1  0.4316720000000  0.5305040000000  0.4606930000000 1.0
C      1  0.5409420000000  0.5303970000000  0.4012060000000 1.0
C      1  0.3748800000000  0.5093570000000  0.4995750000000 1.0
C      1  0.5064950000000  0.4011470000000  0.4604560000000 1.0
C      1  0.5215640000000  0.5499690000000  0.5072160000000 1.0
C      1  0.5063440000000  0.4299240000000  0.5946640000000 1.0
C      1  0.5125800000000  0.5924980000000  0.4788780000000 1.0
C      1  0.4409550000000  0.5931390000000  0.4952280000000 1.0
C      1  0.4704080000000  0.4250390000000  0.4329090000000 1.0
C      1  0.4546820000000  0.5475200000000  0.4682400000000 1.0
C      1  0.5134720000000  0.5118530000000  0.4688530000000 1.0
C      1  0.5563120000000  0.4610070000000  0.5721700000000 1.0
C      1  0.5332530000000  0.4658850000000  0.5559040000000 1.0
C      1  0.5274940000000  0.5053320000000  0.4057540000000 1.0
C      1  0.5490190000000  0.4856900000000  0.4916680000000 1.0
C      1  0.5083270000000  0.4614050000000  0.4088830000000 1.0
C      1  0.4993690000000  0.3888310000000  0.5132130000000 1.0
C      1  0.4398400000000  0.4835260000000  0.4355250000000 1.0
C      1  0.4988510000000  0.4390860000000  0.4820800000000 1.0
C      1  0.5448990000000  0.4464820000000  0.4384810000000 1.0
C      1  0.3745190000000  0.5096900000000  0.5487350000000 1.0
C      1  0.3862370000000  0.5157540000000  0.5249290000000 1.0
C      1  0.5054430000000  0.4637100000000  0.5609820000000 1.0
C      1  0.4992720000000  0.6028250000000  0.5281330000000 1.0
C      1  0.4634340000000  0.4468460000000  0.4145470000000 1.0
C      1  0.4122660000000  0.5486250000000  0.5006280000000 1.0
C      1  0.4999380000000  0.5759320000000  0.5715360000000 1.0
C      1  0.3852920000000  0.5179890000000  0.4759220000000 1.0
C      1  0.4931360000000  0.4081060000000  0.5816720000000 1.0
C      1  0.4224220000000  0.5748140000000  0.5016330000000 1.0
C      1  0.5033170000000  0.5388690000000  0.4318120000000 1.0
C      1  0.4988200000000  0.4179370000000  0.4360750000000 1.0
C      1  0.4990590000000  0.3831720000000  0.4836030000000 1.0
C      1  0.5414190000000  0.5362040000000  0.4911830000000 1.0
C      1  0.4081850000000  0.5346690000000  0.4753260000000 1.0
C      1  0.5322160000000  0.4224190000000  0.5296330000000 1.0
C      1  0.4857540000000  0.4364960000000  0.5088630000000 1.0
C      1  0.5410820000000  0.4954570000000  0.4289320000000 1.0
C      1  0.4637950000000  0.6010220000000  0.4835050000000 1.0
C      1  0.4358080000000  0.5164960000000  0.5283000000000 1.0
C      1  0.4517020000000  0.4204080000000  0.4549220000000 1.0
C      1  0.5479630000000  0.5522210000000  0.4674670000000 1.0
C      1  0.5031640000000  0.4899450000000  0.4024120000000 1.0
C      1  0.4802710000000  0.5974940000000  0.6142550000000 1.0
C      1  0.5995210000000  0.5078260000000  0.5033020000000 1.0
C      1  0.4720230000000  0.4804100000000  0.4728030000000 1.0
C      1  0.5896970000000  0.5033390000000  0.4755940000000 1.0
C      1  0.5584920000000  0.4276340000000  0.5290520000000 1.0
C      1  0.4352780000000  0.4429270000000  0.4601300000000 1.0
C      1  0.4113010000000  0.5297110000000  0.5225250000000 1.0
C      1  0.5820540000000  0.4398430000000  0.5255760000000 1.0
C      1  0.5620670000000  0.5722450000000  0.5228620000000 1.0
C      1  0.4871850000000  0.5933480000000  0.5518590000000 1.0
C      1  0.4749250000000  0.4919550000000  0.5015420000000 1.0
C      1  0.6087210000000  0.4837730000000  0.5155960000000 1.0
C      1  0.4453270000000  0.5116630000000  0.4420140000000 1.0
C      1  0.4897990000000  0.3885150000000  0.5632360000000 1.0
C      1  0.4646930000000  0.5563400000000  0.4407130000000 1.0
C      1  0.5350260000000  0.5020350000000  0.4540600000000 1.0
C      1  0.4801930000000  0.4658040000000  0.5191550000000 1.0
C      1  0.4750110000000  0.4986710000000  0.4053070000000 1.0
C      1  0.5603410000000  0.5154890000000  0.5298760000000 1.0
C      1  0.5837840000000  0.5555350000000  0.5222220000000 1.0
C      1  0.4421550000000  0.5026590000000  0.5518230000000 1.0
C      1  0.4824150000000  0.4708750000000  0.5467910000000 1.0
C      1  0.4459450000000  0.4684790000000  0.4601740000000 1.0
C      1  0.4574190000000  0.6098510000000  0.6067500000000 1.0
C      1  0.4611100000000  0.4849960000000  0.5586330000000 1.0
C      1  0.5708540000000  0.4804910000000  0.4731550000000 1.0
C      1  0.4610930000000  0.4198670000000  0.5032200000000 1.0
C      1  0.5782280000000  0.4772650000000  0.5724990000000 1.0
C      1  0.4669100000000  0.5406480000000  0.4947110000000 1.0
C      1  0.5641350000000  0.4603490000000  0.4529640000000 1.0
C      1  0.4979410000000  0.5845260000000  0.5985890000000 1.0
C      1  0.5010740000000  0.5103270000000  0.4957550000000 1.0
C      1  0.4794200000000  0.5805520000000  0.4428990000000 1.0
C      1  0.4618840000000  0.6040930000000  0.5588690000000 1.0
C      1  0.5184240000000  0.4402880000000  0.4266480000000 1.0
C      1  0.4592110000000  0.5271820000000  0.4200610000000 1.0
END
