TITL C-247195-3186-466 36.8639852579983 125000 -863.390278447686 0 0 142 (C1) n - 1
REM
REM in /home/nfs/bkarasulu/CARBON/AIRSS/Generating-Clusters/LCBOP/Only-C1/SD-CG/FIRE-HFTN
REM
REM
REM
REM
REM
REM ./C.cell (11c1c37f851c82e70ff6c80c92926a4b)
REM AIRSS Version 0.9.1 bugfix July 2018 build 013d7b7c2542+ Fri, 06 Jul 2018 19:26:36 +0100
REM compiler GCC version 9.2.1 20190827 (Red Hat 9.2.1-1)
REM options -cpp -mtune=generic -march=x86-64 -g -O0 -fpre-include=/usr/include/finclude/math-vector-fortran.h
REM seed 178361085 47687601 23721766 -1308844000 -480363966 -1208605583 -1897038791 -791737936 -665030837 684028506 -408456708 -1229542055 272408680 -1573238933 -219209846 -325493679 1457818725 -1348294866 -769344944 -1414365846 359012761 -1414352763 591328908 1843887006 1837476105 -362366076 1342611254 1239171513 -439269281 -863794172 -20394301 -1781444424 -1523741831
REM
CELL 1.54180   50.00000   50.00000   50.00000   90.00000   90.00000   90.00000
LATT -1
SFAC C  
C      1  0.4162530000000  0.4401970000000  0.5324990000000 1.0
C      1  0.4938810000000  0.4386480000000  0.6016450000000 1.0
C      1  0.5638310000000  0.5649480000000  0.5909780000000 1.0
C      1  0.5062930000000  0.4797520000000  0.3819190000000 1.0
C      1  0.4246490000000  0.4004020000000  0.5022000000000 1.0
C      1  0.4298350000000  0.4637440000000  0.3199400000000 1.0
C      1  0.4049300000000  0.5274170000000  0.5410220000000 1.0
C      1  0.4817100000000  0.4891310000000  0.4818570000000 1.0
C      1  0.4821810000000  0.5497120000000  0.5593380000000 1.0
C      1  0.4434630000000  0.4232590000000  0.4654210000000 1.0
C      1  0.4577230000000  0.5490480000000  0.5142800000000 1.0
C      1  0.5265680000000  0.5317400000000  0.5899940000000 1.0
C      1  0.5004670000000  0.4534690000000  0.4224450000000 1.0
C      1  0.4810870000000  0.5097830000000  0.4398650000000 1.0
C      1  0.5286460000000  0.4677750000000  0.4875660000000 1.0
C      1  0.5743850000000  0.5941320000000  0.5000240000000 1.0
C      1  0.4668710000000  0.3822870000000  0.4834600000000 1.0
C      1  0.4398400000000  0.5500220000000  0.4682710000000 1.0
C      1  0.4965570000000  0.5232170000000  0.3655040000000 1.0
C      1  0.4797960000000  0.4436770000000  0.5760440000000 1.0
C      1  0.4858540000000  0.5437110000000  0.3502620000000 1.0
C      1  0.6142180000000  0.4965060000000  0.5174350000000 1.0
C      1  0.5428430000000  0.5518600000000  0.5096830000000 1.0
C      1  0.5179750000000  0.5456330000000  0.4066500000000 1.0
C      1  0.4967950000000  0.5397410000000  0.4719000000000 1.0
C      1  0.5259480000000  0.4990110000000  0.3904810000000 1.0
C      1  0.5288170000000  0.3813640000000  0.5311620000000 1.0
C      1  0.5830740000000  0.5794690000000  0.5207150000000 1.0
C      1  0.5108430000000  0.4652150000000  0.5393990000000 1.0
C      1  0.5600820000000  0.5979800000000  0.4776440000000 1.0
C      1  0.5079230000000  0.5899070000000  0.4986030000000 1.0
C      1  0.4490540000000  0.4741570000000  0.3341460000000 1.0
C      1  0.4499990000000  0.5583350000000  0.4427080000000 1.0
C      1  0.5882280000000  0.4615420000000  0.4546760000000 1.0
C      1  0.5721850000000  0.5020230000000  0.4294740000000 1.0
C      1  0.4871120000000  0.4709040000000  0.5227040000000 1.0
C      1  0.4029070000000  0.5248130000000  0.4915790000000 1.0
C      1  0.5010490000000  0.4576750000000  0.4487360000000 1.0
C      1  0.4912700000000  0.6016370000000  0.5191800000000 1.0
C      1  0.4516630000000  0.5857260000000  0.5452320000000 1.0
C      1  0.6086330000000  0.4808300000000  0.4948620000000 1.0
C      1  0.5119040000000  0.5942420000000  0.4700050000000 1.0
C      1  0.3886820000000  0.4793090000000  0.5357050000000 1.0
C      1  0.5795360000000  0.5476150000000  0.4766660000000 1.0
C      1  0.4357430000000  0.4897820000000  0.5463400000000 1.0
C      1  0.5038350000000  0.4711400000000  0.4735000000000 1.0
C      1  0.5553030000000  0.4913910000000  0.5921730000000 1.0
C      1  0.4993780000000  0.4321660000000  0.3793540000000 1.0
C      1  0.4398450000000  0.4493130000000  0.4754440000000 1.0
C      1  0.5583040000000  0.4685380000000  0.5740160000000 1.0
C      1  0.6117400000000  0.5608510000000  0.5538880000000 1.0
C      1  0.4335600000000  0.4531420000000  0.5524450000000 1.0
C      1  0.5541160000000  0.4831010000000  0.5251860000000 1.0
C      1  0.5658040000000  0.5307440000000  0.4168140000000 1.0
C      1  0.5445660000000  0.5726980000000  0.4380510000000 1.0
C      1  0.5286780000000  0.4885630000000  0.5375350000000 1.0
C      1  0.4464340000000  0.4740480000000  0.5927660000000 1.0
C      1  0.5391430000000  0.5899950000000  0.4602660000000 1.0
C      1  0.4750040000000  0.5632620000000  0.3368810000000 1.0
C      1  0.5455090000000  0.5125860000000  0.4817750000000 1.0
C      1  0.4970580000000  0.4638750000000  0.5652370000000 1.0
C      1  0.5893130000000  0.5580650000000  0.5382340000000 1.0
C      1  0.4611990000000  0.5077930000000  0.5340410000000 1.0
C      1  0.4490240000000  0.5912820000000  0.4957030000000 1.0
C      1  0.5711660000000  0.5149770000000  0.5829900000000 1.0
C      1  0.4889950000000  0.4951310000000  0.3641410000000 1.0
C      1  0.4774550000000  0.5779370000000  0.5584570000000 1.0
C      1  0.4614120000000  0.5998150000000  0.5197610000000 1.0
C      1  0.4978190000000  0.5948570000000  0.5468480000000 1.0
C      1  0.4750680000000  0.4467310000000  0.5127530000000 1.0
C      1  0.4891780000000  0.3729460000000  0.4962160000000 1.0
C      1  0.4485980000000  0.5633860000000  0.4915610000000 1.0
C      1  0.4072210000000  0.4994840000000  0.5425280000000 1.0
C      1  0.4392710000000  0.4748020000000  0.5151310000000 1.0
C      1  0.4686040000000  0.4846510000000  0.3486180000000 1.0
C      1  0.5837570000000  0.5095680000000  0.5550570000000 1.0
C      1  0.5018490000000  0.5194680000000  0.5150030000000 1.0
C      1  0.5230940000000  0.5159480000000  0.5338310000000 1.0
C      1  0.4811340000000  0.4975070000000  0.5118330000000 1.0
C      1  0.4645530000000  0.4976320000000  0.4602650000000 1.0
C      1  0.4210140000000  0.5432510000000  0.5604500000000 1.0
C      1  0.6007490000000  0.4864740000000  0.4673320000000 1.0
C      1  0.4660810000000  0.5357130000000  0.5383680000000 1.0
C      1  0.5727620000000  0.5343340000000  0.5408620000000 1.0
C      1  0.5436550000000  0.3974660000000  0.5474150000000 1.0
C      1  0.5497010000000  0.4192190000000  0.5624710000000 1.0
C      1  0.4791350000000  0.4513920000000  0.6227350000000 1.0
C      1  0.4584520000000  0.4690340000000  0.6181990000000 1.0
C      1  0.4325680000000  0.5258150000000  0.5804160000000 1.0
C      1  0.3999270000000  0.4735270000000  0.4902410000000 1.0
C      1  0.4772680000000  0.5700030000000  0.4363510000000 1.0
C      1  0.5008420000000  0.5425310000000  0.4989010000000 1.0
C      1  0.4733040000000  0.5270960000000  0.4186880000000 1.0
C      1  0.5437420000000  0.5507040000000  0.4196580000000 1.0
C      1  0.4509400000000  0.4536210000000  0.5013760000000 1.0
C      1  0.4928950000000  0.4263580000000  0.5210690000000 1.0
C      1  0.5024800000000  0.3809240000000  0.5202750000000 1.0
C      1  0.6013850000000  0.4528750000000  0.4980050000000 1.0
C      1  0.4442270000000  0.3996500000000  0.4814720000000 1.0
C      1  0.4390530000000  0.4975130000000  0.5769430000000 1.0
C      1  0.5704550000000  0.4813150000000  0.5488790000000 1.0
C      1  0.4645350000000  0.3961270000000  0.5482380000000 1.0
C      1  0.4221070000000  0.4124010000000  0.5277190000000 1.0
C      1  0.4917550000000  0.5511380000000  0.4178860000000 1.0
C      1  0.4271660000000  0.5698490000000  0.5468480000000 1.0
C      1  0.4226520000000  0.4723910000000  0.4713600000000 1.0
C      1  0.5451880000000  0.5353210000000  0.5328390000000 1.0
C      1  0.5044260000000  0.5200340000000  0.4537540000000 1.0
C      1  0.5228140000000  0.4389360000000  0.5979940000000 1.0
C      1  0.5809920000000  0.4716820000000  0.4278330000000 1.0
C      1  0.6118980000000  0.5044600000000  0.5447910000000 1.0
C      1  0.4379170000000  0.3995520000000  0.5474770000000 1.0
C      1  0.5175720000000  0.5263590000000  0.3856520000000 1.0
C      1  0.5194540000000  0.4391000000000  0.5241380000000 1.0
C      1  0.4513700000000  0.4512470000000  0.5742920000000 1.0
C      1  0.4990510000000  0.5359610000000  0.5790540000000 1.0
C      1  0.5302830000000  0.5100240000000  0.4575540000000 1.0
C      1  0.5309930000000  0.5041490000000  0.6015060000000 1.0
C      1  0.4862490000000  0.5118000000000  0.5869440000000 1.0
C      1  0.5449820000000  0.4423780000000  0.5789670000000 1.0
C      1  0.4941230000000  0.4877000000000  0.5792410000000 1.0
C      1  0.4867250000000  0.4015440000000  0.5321900000000 1.0
C      1  0.4095540000000  0.5682410000000  0.5227410000000 1.0
C      1  0.5545530000000  0.5397200000000  0.5867170000000 1.0
C      1  0.5557570000000  0.5386380000000  0.4880640000000 1.0
C      1  0.5351130000000  0.4424630000000  0.4997490000000 1.0
C      1  0.4018010000000  0.5410800000000  0.5154480000000 1.0
C      1  0.6334360000000  0.5059030000000  0.5615470000000 1.0
C      1  0.5178560000000  0.5641400000000  0.5058050000000 1.0
C      1  0.4361840000000  0.4985590000000  0.4650720000000 1.0
C      1  0.3882670000000  0.5001160000000  0.4903470000000 1.0
C      1  0.4468490000000  0.5384020000000  0.4214680000000 1.0
C      1  0.3982750000000  0.4590050000000  0.5171200000000 1.0
C      1  0.5587520000000  0.4317210000000  0.4878980000000 1.0
C      1  0.5827640000000  0.4432800000000  0.4775880000000 1.0
C      1  0.4253350000000  0.5250980000000  0.4729150000000 1.0
C      1  0.4908100000000  0.5894670000000  0.4516580000000 1.0
C      1  0.5019390000000  0.4549000000000  0.3943620000000 1.0
C      1  0.5438430000000  0.4962690000000  0.4378500000000 1.0
C      1  0.5934340000000  0.5095600000000  0.4514750000000 1.0
C      1  0.5969680000000  0.5355680000000  0.4604650000000 1.0
C      1  0.5473330000000  0.4881560000000  0.4968120000000 1.0
END
