TITL C-247198-3593-526 0.0161900853359497 125000 -202.393510955518 0 0 35 (C1) n - 1
REM
REM in /home/nfs/bkarasulu/CARBON/AIRSS/Generating-Clusters/LCBOP/Only-C1/SD-CG/FIRE-HFTN
REM
REM
REM
REM
REM
REM ./C.cell (11c1c37f851c82e70ff6c80c92926a4b)
REM AIRSS Version 0.9.1 bugfix July 2018 build 013d7b7c2542+ Fri, 06 Jul 2018 19:26:36 +0100
REM compiler GCC version 9.2.1 20190827 (Red Hat 9.2.1-1)
REM options -cpp -mtune=generic -march=x86-64 -g -O0 -fpre-include=/usr/include/finclude/math-vector-fortran.h
REM seed -125909600 1622926606 1900311376 -681546818 629117133 -334973936 1693979047 -1342166202 1255005218 -365840911 502840783 541090083 -1988221632 -1041071820 1921774884 1546967655 -577745626 630407255 -386722680 -1010215493 -448126443 1361380947 393070050 -1084652733 2030137674 -961834394 -137542368 -2041167123 -888264427 30320715 1226921421 1293066933 -1677420956
REM
CELL 1.54180   50.00000   50.00000   50.00000   90.00000   90.00000   90.00000
LATT -1
SFAC C  
C      1  0.5180110000000  0.4534460000000  0.5464460000000 1.0
C      1  0.4844400000000  0.5115850000000  0.4353600000000 1.0
C      1  0.5270670000000  0.4521780000000  0.5200240000000 1.0
C      1  0.4388210000000  0.4785440000000  0.5098530000000 1.0
C      1  0.4843580000000  0.5334800000000  0.5841380000000 1.0
C      1  0.5131400000000  0.4979090000000  0.5670980000000 1.0
C      1  0.5573010000000  0.4923480000000  0.5976830000000 1.0
C      1  0.5014990000000  0.5236220000000  0.5640650000000 1.0
C      1  0.5243440000000  0.4338080000000  0.5644000000000 1.0
C      1  0.5261760000000  0.5279990000000  0.4178120000000 1.0
C      1  0.4353300000000  0.4840140000000  0.4841070000000 1.0
C      1  0.5031760000000  0.5679150000000  0.5438650000000 1.0
C      1  0.5043980000000  0.4794220000000  0.3414920000000 1.0
C      1  0.4902200000000  0.5848020000000  0.5602120000000 1.0
C      1  0.5215720000000  0.5248200000000  0.4917640000000 1.0
C      1  0.5176070000000  0.4626530000000  0.3900040000000 1.0
C      1  0.4978610000000  0.4879880000000  0.3177530000000 1.0
C      1  0.4719150000000  0.5557160000000  0.5961990000000 1.0
C      1  0.4744690000000  0.4750010000000  0.5475530000000 1.0
C      1  0.4568580000000  0.5537710000000  0.6188030000000 1.0
C      1  0.5016270000000  0.4753790000000  0.5541880000000 1.0
C      1  0.5282980000000  0.4533490000000  0.4409650000000 1.0
C      1  0.4433080000000  0.4920020000000  0.4600710000000 1.0
C      1  0.5105370000000  0.5210200000000  0.4390930000000 1.0
C      1  0.4528410000000  0.4757490000000  0.5322170000000 1.0
C      1  0.5236190000000  0.4565540000000  0.4150810000000 1.0
C      1  0.5308430000000  0.4520860000000  0.4938070000000 1.0
C      1  0.4763910000000  0.5801980000000  0.5828440000000 1.0
C      1  0.5171300000000  0.5295990000000  0.5174660000000 1.0
C      1  0.5359020000000  0.4950190000000  0.5830520000000 1.0
C      1  0.5201040000000  0.5231100000000  0.4653390000000 1.0
C      1  0.5110490000000  0.4707680000000  0.3656470000000 1.0
C      1  0.5309490000000  0.4523290000000  0.4673100000000 1.0
C      1  0.5078550000000  0.5402070000000  0.5415420000000 1.0
C      1  0.4609850000000  0.5016110000000  0.4427460000000 1.0
END
