TITL C-247202-1916-652 -13622.0500280945 125000 -1065.86480034637 0 0 177 (C1) n - 1
REM
REM in /home/nfs/bkarasulu/CARBON/AIRSS/Generating-Clusters/LCBOP/Only-C1/SD-CG/FIRE-HFTN
REM
REM
REM
REM
REM
REM ./C.cell (11c1c37f851c82e70ff6c80c92926a4b)
REM AIRSS Version 0.9.1 bugfix July 2018 build 013d7b7c2542+ Fri, 06 Jul 2018 19:26:36 +0100
REM compiler GCC version 9.2.1 20190827 (Red Hat 9.2.1-1)
REM options -cpp -mtune=generic -march=x86-64 -g -O0 -fpre-include=/usr/include/finclude/math-vector-fortran.h
REM seed 538292851 -1379157237 -199451647 2012390328 -1866893190 453372537 289319432 218275086 1808581954 1858606990 945855484 -2022826793 1922968727 -1690440733 197859292 -2075566949 735279005 -580164629 -2015249196 844242966 -1401382831 2044403892 -1830705801 -607701110 715678292 1697292621 1327657234 -334029398 -209923635 -1979087667 1265031379 -529391959 -718159370
REM
CELL 1.54180   50.00000   50.00000   50.00000   90.00000   90.00000   90.00000
LATT -1
SFAC C  
C      1  0.5315720000000  0.4999110000000  0.5128650000000 1.0
C      1  0.4024400000000  0.4438690000000  0.5361760000000 1.0
C      1  0.4045260000000  0.4437010000000  0.5663260000000 1.0
C      1  0.4495810000000  0.5026780000000  0.5587310000000 1.0
C      1  0.5419540000000  0.5140110000000  0.5632730000000 1.0
C      1  0.5159140000000  0.4710930000000  0.4337590000000 1.0
C      1  0.5773410000000  0.5464110000000  0.5608850000000 1.0
C      1  0.4548160000000  0.6323640000000  0.5700000000000 1.0
C      1  0.5945460000000  0.4304870000000  0.5420850000000 1.0
C      1  0.5021530000000  0.4681900000000  0.5423400000000 1.0
C      1  0.4443830000000  0.5587560000000  0.5687450000000 1.0
C      1  0.6179770000000  0.4815680000000  0.5291110000000 1.0
C      1  0.4525080000000  0.4884720000000  0.4001680000000 1.0
C      1  0.5010290000000  0.4514820000000  0.5192010000000 1.0
C      1  0.5400470000000  0.4587930000000  0.5787860000000 1.0
C      1  0.4370880000000  0.5892140000000  0.4977870000000 1.0
C      1  0.4979250000000  0.4439850000000  0.4710720000000 1.0
C      1  0.4509910000000  0.5871820000000  0.4478200000000 1.0
C      1  0.5754940000000  0.4867080000000  0.5961940000000 1.0
C      1  0.5135690000000  0.5419590000000  0.5254090000000 1.0
C      1  0.4424920000000  0.5835790000000  0.5537770000000 1.0
C      1  0.5678310000000  0.4781850000000  0.3894400000000 1.0
C      1  0.4999610000000  0.4934950000000  0.6119100000000 1.0
C      1  0.4876450000000  0.4441220000000  0.6137900000000 1.0
C      1  0.4904820000000  0.6586890000000  0.5442310000000 1.0
C      1  0.5141520000000  0.6266990000000  0.5119270000000 1.0
C      1  0.5462150000000  0.5241200000000  0.3777940000000 1.0
C      1  0.4446520000000  0.6078200000000  0.5680140000000 1.0
C      1  0.5424870000000  0.4594510000000  0.4871020000000 1.0
C      1  0.5291640000000  0.4961000000000  0.4403380000000 1.0
C      1  0.5555720000000  0.4856370000000  0.5258120000000 1.0
C      1  0.4744520000000  0.5959620000000  0.4317810000000 1.0
C      1  0.4136710000000  0.4532910000000  0.4600530000000 1.0
C      1  0.4687740000000  0.4559580000000  0.4665410000000 1.0
C      1  0.3873690000000  0.4940810000000  0.5192830000000 1.0
C      1  0.5777090000000  0.5479110000000  0.4415350000000 1.0
C      1  0.4031790000000  0.4837270000000  0.4996240000000 1.0
C      1  0.5377100000000  0.3929800000000  0.4656490000000 1.0
C      1  0.5215750000000  0.3981310000000  0.4421180000000 1.0
C      1  0.3973660000000  0.5046940000000  0.4393420000000 1.0
C      1  0.5237840000000  0.4235930000000  0.4294580000000 1.0
C      1  0.4220550000000  0.5409750000000  0.5717670000000 1.0
C      1  0.5286860000000  0.4874430000000  0.6169840000000 1.0
C      1  0.4394430000000  0.4220670000000  0.5149710000000 1.0
C      1  0.4053580000000  0.5734420000000  0.4619840000000 1.0
C      1  0.4209390000000  0.4695060000000  0.4820320000000 1.0
C      1  0.4531270000000  0.4838990000000  0.5127230000000 1.0
C      1  0.5214020000000  0.4035030000000  0.5633500000000 1.0
C      1  0.4171230000000  0.5602880000000  0.3952280000000 1.0
C      1  0.3857560000000  0.5521900000000  0.4708730000000 1.0
C      1  0.5840280000000  0.4707050000000  0.4579990000000 1.0
C      1  0.4966310000000  0.5805200000000  0.5040100000000 1.0
C      1  0.4832150000000  0.5975090000000  0.4827650000000 1.0
C      1  0.5301690000000  0.3916150000000  0.5173860000000 1.0
C      1  0.5115160000000  0.5133990000000  0.5276700000000 1.0
C      1  0.5028560000000  0.4204300000000  0.6118970000000 1.0
C      1  0.5623060000000  0.5520540000000  0.4178710000000 1.0
C      1  0.4259890000000  0.5710880000000  0.4421620000000 1.0
C      1  0.6261280000000  0.4634820000000  0.4809870000000 1.0
C      1  0.5204960000000  0.4998110000000  0.5726090000000 1.0
C      1  0.4711700000000  0.6514520000000  0.5611490000000 1.0
C      1  0.5297550000000  0.4313760000000  0.4022600000000 1.0
C      1  0.5251210000000  0.4014030000000  0.4904910000000 1.0
C      1  0.5776290000000  0.5867920000000  0.5240050000000 1.0
C      1  0.5202870000000  0.5566750000000  0.4352280000000 1.0
C      1  0.4824990000000  0.3964070000000  0.4690520000000 1.0
C      1  0.4180770000000  0.5446210000000  0.3731070000000 1.0
C      1  0.5830090000000  0.4987060000000  0.5715040000000 1.0
C      1  0.5732000000000  0.4116840000000  0.5435450000000 1.0
C      1  0.5348410000000  0.5012840000000  0.3674920000000 1.0
C      1  0.4560070000000  0.5931000000000  0.4765020000000 1.0
C      1  0.4877720000000  0.4260810000000  0.5129860000000 1.0
C      1  0.3928430000000  0.5553930000000  0.5035420000000 1.0
C      1  0.5488690000000  0.5410200000000  0.5696050000000 1.0
C      1  0.6259600000000  0.4844100000000  0.4999120000000 1.0
C      1  0.4403170000000  0.5338570000000  0.4711970000000 1.0
C      1  0.4963180000000  0.5104020000000  0.5862580000000 1.0
C      1  0.3915430000000  0.4334000000000  0.5100210000000 1.0
C      1  0.5741570000000  0.4984840000000  0.4092990000000 1.0
C      1  0.5516300000000  0.6136430000000  0.4860760000000 1.0
C      1  0.4948510000000  0.3883460000000  0.4458360000000 1.0
C      1  0.5098040000000  0.5580730000000  0.4611210000000 1.0
C      1  0.6081410000000  0.4548970000000  0.5383590000000 1.0
C      1  0.5744310000000  0.4242350000000  0.4946880000000 1.0
C      1  0.5245340000000  0.6224790000000  0.4850770000000 1.0
C      1  0.6189860000000  0.5111120000000  0.4897770000000 1.0
C      1  0.5548680000000  0.4410070000000  0.5061860000000 1.0
C      1  0.4319180000000  0.4461810000000  0.5295670000000 1.0
C      1  0.4461450000000  0.5365080000000  0.4983030000000 1.0
C      1  0.5240650000000  0.5524720000000  0.5808850000000 1.0
C      1  0.5616850000000  0.4976150000000  0.5519550000000 1.0
C      1  0.5942500000000  0.4276310000000  0.4766590000000 1.0
C      1  0.5005200000000  0.3849070000000  0.6525370000000 1.0
C      1  0.5272410000000  0.5987990000000  0.4240730000000 1.0
C      1  0.6123390000000  0.5114110000000  0.5380070000000 1.0
C      1  0.4119420000000  0.5817010000000  0.4891650000000 1.0
C      1  0.4924110000000  0.4959120000000  0.5398970000000 1.0
C      1  0.4702130000000  0.4800830000000  0.4482250000000 1.0
C      1  0.4696960000000  0.4020260000000  0.5507660000000 1.0
C      1  0.4419540000000  0.5032470000000  0.5309930000000 1.0
C      1  0.4038790000000  0.4961540000000  0.5765500000000 1.0
C      1  0.5036890000000  0.6121000000000  0.4671140000000 1.0
C      1  0.5020910000000  0.6054940000000  0.4386610000000 1.0
C      1  0.5813850000000  0.5693010000000  0.5441730000000 1.0
C      1  0.4495900000000  0.4095210000000  0.5708430000000 1.0
C      1  0.4621140000000  0.5310270000000  0.4536350000000 1.0
C      1  0.4331190000000  0.4338030000000  0.5723860000000 1.0
C      1  0.3924610000000  0.5190020000000  0.5631420000000 1.0
C      1  0.6044820000000  0.4520980000000  0.4666330000000 1.0
C      1  0.6264960000000  0.5187320000000  0.4426850000000 1.0
C      1  0.5660600000000  0.4762180000000  0.4798080000000 1.0
C      1  0.3753470000000  0.4476860000000  0.4901800000000 1.0
C      1  0.4279210000000  0.4351640000000  0.4463170000000 1.0
C      1  0.5060800000000  0.6016270000000  0.5231430000000 1.0
C      1  0.4833000000000  0.5483890000000  0.4590050000000 1.0
C      1  0.4870860000000  0.5129450000000  0.4927140000000 1.0
C      1  0.5194630000000  0.5677400000000  0.4865560000000 1.0
C      1  0.5070960000000  0.6501470000000  0.5251320000000 1.0
C      1  0.5395660000000  0.5134890000000  0.4872220000000 1.0
C      1  0.5607830000000  0.3784460000000  0.4644190000000 1.0
C      1  0.4768450000000  0.5036190000000  0.5632240000000 1.0
C      1  0.4775560000000  0.4783460000000  0.3992860000000 1.0
C      1  0.5345610000000  0.5530520000000  0.5071200000000 1.0
C      1  0.4836620000000  0.4706140000000  0.6160760000000 1.0
C      1  0.4976330000000  0.4162040000000  0.4861860000000 1.0
C      1  0.4965620000000  0.3909590000000  0.5523280000000 1.0
C      1  0.5117410000000  0.4629700000000  0.4916890000000 1.0
C      1  0.5498580000000  0.4744530000000  0.6015050000000 1.0
C      1  0.5554060000000  0.4557590000000  0.5306900000000 1.0
C      1  0.4991290000000  0.4898530000000  0.4870070000000 1.0
C      1  0.5468690000000  0.5089150000000  0.4600660000000 1.0
C      1  0.5445550000000  0.4027160000000  0.5421650000000 1.0
C      1  0.4302570000000  0.5061910000000  0.4004990000000 1.0
C      1  0.4235610000000  0.5181350000000  0.3753230000000 1.0
C      1  0.6064090000000  0.5247020000000  0.5122840000000 1.0
C      1  0.5092660000000  0.5377670000000  0.4181100000000 1.0
C      1  0.5796820000000  0.5242810000000  0.4566280000000 1.0
C      1  0.5789030000000  0.5219590000000  0.5057200000000 1.0
C      1  0.3808720000000  0.4871940000000  0.4531060000000 1.0
C      1  0.4166810000000  0.5200220000000  0.4233470000000 1.0
C      1  0.4968820000000  0.5413240000000  0.5853630000000 1.0
C      1  0.5178480000000  0.4712670000000  0.5663160000000 1.0
C      1  0.4649310000000  0.4134450000000  0.5241980000000 1.0
C      1  0.5404770000000  0.5724940000000  0.4227020000000 1.0
C      1  0.5183140000000  0.5131610000000  0.4205760000000 1.0
C      1  0.5419820000000  0.4752990000000  0.3776800000000 1.0
C      1  0.4708730000000  0.5532520000000  0.5800380000000 1.0
C      1  0.5746040000000  0.4922750000000  0.5030040000000 1.0
C      1  0.5145080000000  0.4455260000000  0.4459480000000 1.0
C      1  0.6436890000000  0.5196410000000  0.4231230000000 1.0
C      1  0.5072230000000  0.3773830000000  0.5289890000000 1.0
C      1  0.5629370000000  0.5264500000000  0.4015120000000 1.0
C      1  0.5036880000000  0.4704630000000  0.4066140000000 1.0
C      1  0.5552200000000  0.5358730000000  0.4988560000000 1.0
C      1  0.4424110000000  0.5861850000000  0.5254840000000 1.0
C      1  0.4471950000000  0.4514860000000  0.5532610000000 1.0
C      1  0.5184460000000  0.4139780000000  0.5892400000000 1.0
C      1  0.4309790000000  0.5064990000000  0.5787280000000 1.0
C      1  0.3719030000000  0.4669960000000  0.4701960000000 1.0
C      1  0.4034960000000  0.5365300000000  0.5206030000000 1.0
C      1  0.3972780000000  0.4688530000000  0.5782680000000 1.0
C      1  0.3879070000000  0.5178680000000  0.5354450000000 1.0
C      1  0.5686810000000  0.6010080000000  0.5029070000000 1.0
C      1  0.4544320000000  0.4342610000000  0.4507500000000 1.0
C      1  0.4140800000000  0.4151770000000  0.5020640000000 1.0
C      1  0.5556330000000  0.4483280000000  0.5581270000000 1.0
C      1  0.6077200000000  0.5172240000000  0.4637280000000 1.0
C      1  0.4667960000000  0.5058350000000  0.4432550000000 1.0
C      1  0.4734610000000  0.5355500000000  0.5037130000000 1.0
C      1  0.4301790000000  0.5267080000000  0.5186270000000 1.0
C      1  0.5022130000000  0.4023600000000  0.6332570000000 1.0
C      1  0.4203310000000  0.5504530000000  0.4220600000000 1.0
C      1  0.4491180000000  0.4686350000000  0.4891380000000 1.0
C      1  0.5969650000000  0.5222080000000  0.5612070000000 1.0
C      1  0.5236960000000  0.4571260000000  0.3902930000000 1.0
C      1  0.5830590000000  0.4853780000000  0.4334560000000 1.0
C      1  0.4885120000000  0.5548890000000  0.5177680000000 1.0
END
