TITL C-247202-1916-739 1146.61639990796 125000 -885.107100862651 0 0 146 (C1) n - 1
REM
REM in /home/nfs/bkarasulu/CARBON/AIRSS/Generating-Clusters/LCBOP/Only-C1/SD-CG/FIRE-HFTN
REM
REM
REM
REM
REM
REM ./C.cell (11c1c37f851c82e70ff6c80c92926a4b)
REM AIRSS Version 0.9.1 bugfix July 2018 build 013d7b7c2542+ Fri, 06 Jul 2018 19:26:36 +0100
REM compiler GCC version 9.2.1 20190827 (Red Hat 9.2.1-1)
REM options -cpp -mtune=generic -march=x86-64 -g -O0 -fpre-include=/usr/include/finclude/math-vector-fortran.h
REM seed 399880738 -1630573740 -1815706720 -1781917546 365255147 -559274155 -1155030359 -1987104859 514712083 -1064003914 1231715783 -346528727 457348748 598236224 1294629080 1388681055 1845393300 1968036861 -472717236 -1950346860 -967520689 1881042257 -1734018268 1685020889 -46911632 1739783297 1043069953 -1947446858 746429493 -1281409816 -454814366 2116324085 -1216940387
REM
CELL 1.54180   50.00000   50.00000   50.00000   90.00000   90.00000   90.00000
LATT -1
SFAC C  
C      1  0.4760740000000  0.4176770000000  0.4391140000000 1.0
C      1  0.5849500000000  0.5292240000000  0.5208690000000 1.0
C      1  0.5377930000000  0.5278200000000  0.5622430000000 1.0
C      1  0.5110670000000  0.5688850000000  0.5058320000000 1.0
C      1  0.5181570000000  0.4974820000000  0.4611330000000 1.0
C      1  0.4693890000000  0.4159170000000  0.5415360000000 1.0
C      1  0.5480410000000  0.4503410000000  0.4306000000000 1.0
C      1  0.5481250000000  0.4859100000000  0.5379810000000 1.0
C      1  0.6117970000000  0.4856450000000  0.4654040000000 1.0
C      1  0.4347330000000  0.5867370000000  0.4680490000000 1.0
C      1  0.4444970000000  0.4705340000000  0.4603800000000 1.0
C      1  0.4811150000000  0.5400020000000  0.4197300000000 1.0
C      1  0.5582190000000  0.4127920000000  0.4941550000000 1.0
C      1  0.4537160000000  0.6027360000000  0.4578340000000 1.0
C      1  0.3725790000000  0.5605830000000  0.5974280000000 1.0
C      1  0.5005510000000  0.6150940000000  0.5119450000000 1.0
C      1  0.4626890000000  0.5963590000000  0.5506160000000 1.0
C      1  0.5154170000000  0.4108630000000  0.5193660000000 1.0
C      1  0.4791160000000  0.5512970000000  0.4757180000000 1.0
C      1  0.5785010000000  0.4751360000000  0.4023400000000 1.0
C      1  0.5973860000000  0.5149190000000  0.4294470000000 1.0
C      1  0.4781650000000  0.4648890000000  0.4200840000000 1.0
C      1  0.5706020000000  0.4247210000000  0.4706440000000 1.0
C      1  0.5095180000000  0.4548850000000  0.4793830000000 1.0
C      1  0.3998870000000  0.4510240000000  0.4858860000000 1.0
C      1  0.4625780000000  0.4417320000000  0.4278750000000 1.0
C      1  0.5201430000000  0.5670830000000  0.5323760000000 1.0
C      1  0.5404030000000  0.5268600000000  0.5177620000000 1.0
C      1  0.5242450000000  0.5690230000000  0.4799440000000 1.0
C      1  0.3892320000000  0.4073950000000  0.3688420000000 1.0
C      1  0.5211990000000  0.4384610000000  0.4305540000000 1.0
C      1  0.5680990000000  0.5845580000000  0.5240930000000 1.0
C      1  0.6119870000000  0.5126350000000  0.4546050000000 1.0
C      1  0.4989330000000  0.5079640000000  0.5521050000000 1.0
C      1  0.4613870000000  0.4063800000000  0.4622340000000 1.0
C      1  0.5582610000000  0.5744700000000  0.5736400000000 1.0
C      1  0.4861330000000  0.4529560000000  0.5229540000000 1.0
C      1  0.4249280000000  0.5605810000000  0.5928650000000 1.0
C      1  0.5347070000000  0.4591940000000  0.4937620000000 1.0
C      1  0.4538780000000  0.4111480000000  0.5159040000000 1.0
C      1  0.5031780000000  0.4745720000000  0.5204570000000 1.0
C      1  0.4302930000000  0.4409220000000  0.5635930000000 1.0
C      1  0.3727740000000  0.3916400000000  0.3214590000000 1.0
C      1  0.5092430000000  0.5058700000000  0.6028170000000 1.0
C      1  0.5506460000000  0.4490830000000  0.5893250000000 1.0
C      1  0.4663920000000  0.5765720000000  0.5727590000000 1.0
C      1  0.5710920000000  0.4737030000000  0.5520250000000 1.0
C      1  0.5338070000000  0.5457890000000  0.4195570000000 1.0
C      1  0.5035730000000  0.4616950000000  0.4318240000000 1.0
C      1  0.4601080000000  0.4559120000000  0.5118900000000 1.0
C      1  0.3948670000000  0.5089100000000  0.5165150000000 1.0
C      1  0.4689940000000  0.4919690000000  0.4137130000000 1.0
C      1  0.4237190000000  0.4672700000000  0.5771980000000 1.0
C      1  0.5826630000000  0.5375900000000  0.4201930000000 1.0
C      1  0.5524060000000  0.6085960000000  0.5237610000000 1.0
C      1  0.5605430000000  0.5566910000000  0.4192210000000 1.0
C      1  0.4747090000000  0.5144410000000  0.5119600000000 1.0
C      1  0.4613340000000  0.5175030000000  0.4300150000000 1.0
C      1  0.4332110000000  0.5615320000000  0.4774400000000 1.0
C      1  0.4521400000000  0.5385350000000  0.4736840000000 1.0
C      1  0.4950740000000  0.5738210000000  0.5737740000000 1.0
C      1  0.5123110000000  0.5085770000000  0.4857730000000 1.0
C      1  0.5582270000000  0.4688390000000  0.4810770000000 1.0
C      1  0.4146140000000  0.5112860000000  0.4640750000000 1.0
C      1  0.5129840000000  0.4106170000000  0.4708690000000 1.0
C      1  0.5940290000000  0.4698550000000  0.4480670000000 1.0
C      1  0.5780590000000  0.5437230000000  0.4949140000000 1.0
C      1  0.4655690000000  0.5328880000000  0.5981590000000 1.0
C      1  0.5471000000000  0.4734830000000  0.6003840000000 1.0
C      1  0.3983740000000  0.4374430000000  0.4629400000000 1.0
C      1  0.4711970000000  0.4391860000000  0.5887170000000 1.0
C      1  0.4573910000000  0.4293320000000  0.5657120000000 1.0
C      1  0.5515760000000  0.4705660000000  0.4092640000000 1.0
C      1  0.5030350000000  0.5593530000000  0.4325840000000 1.0
C      1  0.5070110000000  0.4727050000000  0.4572600000000 1.0
C      1  0.5309930000000  0.4684740000000  0.5205140000000 1.0
C      1  0.5287710000000  0.6199420000000  0.5167400000000 1.0
C      1  0.4875880000000  0.6027460000000  0.5357280000000 1.0
C      1  0.4835860000000  0.5634220000000  0.5013100000000 1.0
C      1  0.5817040000000  0.5272990000000  0.5726020000000 1.0
C      1  0.4037660000000  0.4843220000000  0.5636990000000 1.0
C      1  0.4140100000000  0.4371980000000  0.4396420000000 1.0
C      1  0.5409940000000  0.5121380000000  0.4508100000000 1.0
C      1  0.3945910000000  0.4994230000000  0.5425360000000 1.0
C      1  0.5360000000000  0.4945900000000  0.4072930000000 1.0
C      1  0.4928540000000  0.6134300000000  0.4835480000000 1.0
C      1  0.5266910000000  0.5027720000000  0.5528450000000 1.0
C      1  0.4834320000000  0.5257550000000  0.5361420000000 1.0
C      1  0.4560730000000  0.5144080000000  0.4913960000000 1.0
C      1  0.4391790000000  0.4499190000000  0.4418130000000 1.0
C      1  0.5631370000000  0.5071970000000  0.5201830000000 1.0
C      1  0.5642130000000  0.5824980000000  0.4295870000000 1.0
C      1  0.4399370000000  0.5231520000000  0.4497190000000 1.0
C      1  0.4949890000000  0.5897280000000  0.4347180000000 1.0
C      1  0.4541370000000  0.4897210000000  0.4764240000000 1.0
C      1  0.5648420000000  0.4202330000000  0.5469530000000 1.0
C      1  0.5686440000000  0.4526150000000  0.4565830000000 1.0
C      1  0.4571020000000  0.4896250000000  0.5555540000000 1.0
C      1  0.5687310000000  0.4154970000000  0.5206320000000 1.0
C      1  0.5300720000000  0.4059600000000  0.4938790000000 1.0
C      1  0.4938300000000  0.4305020000000  0.4833000000000 1.0
C      1  0.5536760000000  0.5280770000000  0.4731840000000 1.0
C      1  0.4962200000000  0.4972590000000  0.5050730000000 1.0
C      1  0.5966320000000  0.4696870000000  0.5581690000000 1.0
C      1  0.4154370000000  0.4280480000000  0.5427150000000 1.0
C      1  0.5067310000000  0.4158190000000  0.4423750000000 1.0
C      1  0.4484100000000  0.5088650000000  0.6014470000000 1.0
C      1  0.4788850000000  0.5041170000000  0.3888760000000 1.0
C      1  0.5382380000000  0.5664490000000  0.5908490000000 1.0
C      1  0.4946960000000  0.4265460000000  0.5319400000000 1.0
C      1  0.4909000000000  0.4845080000000  0.5930630000000 1.0
C      1  0.5932760000000  0.4863640000000  0.4231160000000 1.0
C      1  0.5855810000000  0.5427050000000  0.5474550000000 1.0
C      1  0.4698540000000  0.4653260000000  0.6003120000000 1.0
C      1  0.4054670000000  0.4998380000000  0.4906610000000 1.0
C      1  0.5554990000000  0.5202340000000  0.5837150000000 1.0
C      1  0.4522170000000  0.5570310000000  0.5878750000000 1.0
C      1  0.3985690000000  0.5611360000000  0.5954770000000 1.0
C      1  0.5565580000000  0.4306410000000  0.5704640000000 1.0
C      1  0.4051560000000  0.4256120000000  0.4159670000000 1.0
C      1  0.4962850000000  0.5329970000000  0.6007950000000 1.0
C      1  0.4822140000000  0.6043170000000  0.4576510000000 1.0
C      1  0.5318700000000  0.5269940000000  0.4921540000000 1.0
C      1  0.5595410000000  0.5917240000000  0.4543250000000 1.0
C      1  0.4393540000000  0.4883460000000  0.5359030000000 1.0
C      1  0.5104610000000  0.5577280000000  0.5915910000000 1.0
C      1  0.5047960000000  0.5546640000000  0.4621650000000 1.0
C      1  0.5506190000000  0.5794950000000  0.4778580000000 1.0
C      1  0.4677910000000  0.4160240000000  0.4890880000000 1.0
C      1  0.5390650000000  0.5011040000000  0.6001300000000 1.0
C      1  0.5343220000000  0.5441630000000  0.5393270000000 1.0
C      1  0.5707210000000  0.4895220000000  0.4961500000000 1.0
C      1  0.5734710000000  0.5698260000000  0.5490030000000 1.0
C      1  0.4258040000000  0.4141540000000  0.5214200000000 1.0
C      1  0.6219930000000  0.4664040000000  0.5632060000000 1.0
C      1  0.5360850000000  0.5178860000000  0.4234820000000 1.0
C      1  0.4363690000000  0.4704180000000  0.5146700000000 1.0
C      1  0.6267010000000  0.4763400000000  0.4861050000000 1.0
C      1  0.4140170000000  0.4723900000000  0.4970220000000 1.0
C      1  0.4856810000000  0.5307570000000  0.3921160000000 1.0
C      1  0.4437650000000  0.4798260000000  0.5970340000000 1.0
C      1  0.5694930000000  0.5710620000000  0.4981490000000 1.0
C      1  0.3972950000000  0.4160000000000  0.3925710000000 1.0
C      1  0.4826540000000  0.4910690000000  0.5663100000000 1.0
C      1  0.3809710000000  0.3993550000000  0.3449730000000 1.0
C      1  0.5063550000000  0.5842230000000  0.5497120000000 1.0
END
