TITL C-247199-3331-271 -0.00462012197999135 125000 -256.461330730051 0 0 43 (C1) n - 1
REM
REM in /home/nfs/bkarasulu/CARBON/AIRSS/Generating-Clusters/LCBOP/Only-C1/SD-CG/FIRE-HFTN
REM
REM
REM
REM
REM
REM ./C.cell (11c1c37f851c82e70ff6c80c92926a4b)
REM AIRSS Version 0.9.1 bugfix July 2018 build 013d7b7c2542+ Fri, 06 Jul 2018 19:26:36 +0100
REM compiler GCC version 9.2.1 20190827 (Red Hat 9.2.1-1)
REM options -cpp -mtune=generic -march=x86-64 -g -O0 -fpre-include=/usr/include/finclude/math-vector-fortran.h
REM seed 2068761036 -1934659031 721567884 -1063111519 1802738412 -45628326 1698127395 1666543176 1388709499 1251830411 -250969352 -1156080898 -342249954 -1263812345 -190720221 671118098 1265390115 -384119746 1140414007 -646002515 -534685273 -1876707648 4061694 129103552 471952161 -53513375 -1763642946 512234148 359199022 -1781818002 1385718610 953730668 -65924229
REM
CELL 1.54180   50.00000   50.00000   50.00000   90.00000   90.00000   90.00000
LATT -1
SFAC C  
C      1  0.5270840000000  0.4961150000000  0.4911580000000 1.0
C      1  0.5157750000000  0.5052330000000  0.5451020000000 1.0
C      1  0.5473650000000  0.5446320000000  0.5412960000000 1.0
C      1  0.4574620000000  0.4761290000000  0.5139040000000 1.0
C      1  0.3870830000000  0.4137150000000  0.5534420000000 1.0
C      1  0.5048350000000  0.5176540000000  0.4379780000000 1.0
C      1  0.4997010000000  0.5952040000000  0.5197850000000 1.0
C      1  0.4715260000000  0.5796850000000  0.4787720000000 1.0
C      1  0.5312300000000  0.5150500000000  0.4345500000000 1.0
C      1  0.5911860000000  0.5309560000000  0.5179350000000 1.0
C      1  0.4598940000000  0.4905270000000  0.4898350000000 1.0
C      1  0.4461380000000  0.5147680000000  0.4822330000000 1.0
C      1  0.5563940000000  0.5088110000000  0.4408770000000 1.0
C      1  0.5338520000000  0.5436800000000  0.4865180000000 1.0
C      1  0.4342730000000  0.4615910000000  0.5192740000000 1.0
C      1  0.3877060000000  0.4516350000000  0.5071260000000 1.0
C      1  0.4634580000000  0.5582300000000  0.4652300000000 1.0
C      1  0.5051060000000  0.4793890000000  0.5411220000000 1.0
C      1  0.4072590000000  0.4293780000000  0.5447410000000 1.0
C      1  0.5852250000000  0.4953560000000  0.4788940000000 1.0
C      1  0.6028670000000  0.4974180000000  0.4336260000000 1.0
C      1  0.5782700000000  0.4705290000000  0.4901110000000 1.0
C      1  0.5748770000000  0.5417560000000  0.5361870000000 1.0
C      1  0.3619200000000  0.4106780000000  0.5440020000000 1.0
C      1  0.5237100000000  0.4584920000000  0.5379880000000 1.0
C      1  0.5812790000000  0.5006020000000  0.4511270000000 1.0
C      1  0.5080600000000  0.4808580000000  0.4801330000000 1.0
C      1  0.3508640000000  0.4232640000000  0.5227320000000 1.0
C      1  0.4785920000000  0.4763390000000  0.5324930000000 1.0
C      1  0.4825010000000  0.5128090000000  0.4540600000000 1.0
C      1  0.5178100000000  0.5872650000000  0.5376130000000 1.0
C      1  0.6232030000000  0.4943690000000  0.4176160000000 1.0
C      1  0.5650860000000  0.4550970000000  0.5073870000000 1.0
C      1  0.4614280000000  0.5305940000000  0.4633230000000 1.0
C      1  0.4104770000000  0.4479490000000  0.5235840000000 1.0
C      1  0.3627300000000  0.4414360000000  0.5065930000000 1.0
C      1  0.5941120000000  0.5155030000000  0.4963860000000 1.0
C      1  0.5457050000000  0.4505070000000  0.5251240000000 1.0
C      1  0.5311250000000  0.5214860000000  0.5022940000000 1.0
C      1  0.5353330000000  0.5693270000000  0.5466800000000 1.0
C      1  0.4838910000000  0.5924710000000  0.4985600000000 1.0
C      1  0.4828040000000  0.4895110000000  0.4718840000000 1.0
C      1  0.5308060000000  0.5240040000000  0.5307230000000 1.0
END
