TITL C-247197-3123-423 0.0179766307836606 125000 -964.659539295804 0 0 157 (C1) n - 1
REM
REM in /home/nfs/bkarasulu/CARBON/AIRSS/Generating-Clusters/LCBOP/Only-C1/SD-CG/FIRE-HFTN
REM
REM
REM
REM
REM
REM ./C.cell (11c1c37f851c82e70ff6c80c92926a4b)
REM AIRSS Version 0.9.1 bugfix July 2018 build 013d7b7c2542+ Fri, 06 Jul 2018 19:26:36 +0100
REM compiler GCC version 9.2.1 20190827 (Red Hat 9.2.1-1)
REM options -cpp -mtune=generic -march=x86-64 -g -O0 -fpre-include=/usr/include/finclude/math-vector-fortran.h
REM seed -877126189 220735222 1507892917 -1113364495 1644849514 -495756198 -1213449232 1434572217 -24509433 -1581076938 1941132644 -886125732 202021930 1423072939 1533784879 -572252466 -437463414 -522733599 773231956 -1081414649 1397440013 745087648 -580624471 -1262340497 -542769298 286489482 1081084154 1428151617 2026753554 88083014 140779127 1089423835 248646958
REM
CELL 1.54180   50.00000   50.00000   50.00000   90.00000   90.00000   90.00000
LATT -1
SFAC C  
C      1  0.4691960000000  0.4568540000000  0.4125010000000 1.0
C      1  0.5138610000000  0.5899180000000  0.4274540000000 1.0
C      1  0.5619160000000  0.4774660000000  0.5185250000000 1.0
C      1  0.4951010000000  0.4833410000000  0.4949000000000 1.0
C      1  0.4553800000000  0.5744560000000  0.4345860000000 1.0
C      1  0.3833520000000  0.5061760000000  0.4787120000000 1.0
C      1  0.4758660000000  0.5916600000000  0.5944550000000 1.0
C      1  0.5496300000000  0.5900720000000  0.5969960000000 1.0
C      1  0.5686570000000  0.5587170000000  0.4870230000000 1.0
C      1  0.4767830000000  0.5436330000000  0.5982990000000 1.0
C      1  0.4105430000000  0.5634720000000  0.4311780000000 1.0
C      1  0.5629500000000  0.5469530000000  0.3690140000000 1.0
C      1  0.5835830000000  0.4891240000000  0.4399970000000 1.0
C      1  0.6090280000000  0.3656660000000  0.5152430000000 1.0
C      1  0.4491600000000  0.4000020000000  0.5427880000000 1.0
C      1  0.4739160000000  0.5622620000000  0.4509220000000 1.0
C      1  0.3923810000000  0.4370920000000  0.5067030000000 1.0
C      1  0.4966510000000  0.4207780000000  0.4061870000000 1.0
C      1  0.4709280000000  0.5882760000000  0.5027900000000 1.0
C      1  0.5780440000000  0.4219590000000  0.4810870000000 1.0
C      1  0.5216920000000  0.4628880000000  0.5768480000000 1.0
C      1  0.5723040000000  0.4343130000000  0.5596760000000 1.0
C      1  0.4071130000000  0.5187670000000  0.5720090000000 1.0
C      1  0.4960080000000  0.4127510000000  0.5609450000000 1.0
C      1  0.4938200000000  0.4591150000000  0.5846770000000 1.0
C      1  0.4659440000000  0.5193920000000  0.4109740000000 1.0
C      1  0.4881230000000  0.5460960000000  0.5716020000000 1.0
C      1  0.5891590000000  0.4507550000000  0.5458400000000 1.0
C      1  0.4955050000000  0.4643950000000  0.4241930000000 1.0
C      1  0.5736530000000  0.5472600000000  0.6029030000000 1.0
C      1  0.3895180000000  0.4465570000000  0.4593870000000 1.0
C      1  0.5152600000000  0.5018970000000  0.3815360000000 1.0
C      1  0.4888780000000  0.5537630000000  0.4730190000000 1.0
C      1  0.4122840000000  0.5490800000000  0.3821430000000 1.0
C      1  0.5725650000000  0.5221010000000  0.5184350000000 1.0
C      1  0.6069820000000  0.4897500000000  0.4835640000000 1.0
C      1  0.4388840000000  0.4849770000000  0.5048630000000 1.0
C      1  0.5413600000000  0.4804630000000  0.5366760000000 1.0
C      1  0.6062360000000  0.4916480000000  0.5133470000000 1.0
C      1  0.5246280000000  0.4510880000000  0.4772460000000 1.0
C      1  0.4528640000000  0.5741910000000  0.5514920000000 1.0
C      1  0.5004250000000  0.5111710000000  0.4968680000000 1.0
C      1  0.6060560000000  0.5160510000000  0.4699810000000 1.0
C      1  0.5434270000000  0.3955040000000  0.5087020000000 1.0
C      1  0.4543810000000  0.4413560000000  0.4902490000000 1.0
C      1  0.5652280000000  0.5321090000000  0.4938020000000 1.0
C      1  0.4407170000000  0.5058550000000  0.4534210000000 1.0
C      1  0.5555830000000  0.5992910000000  0.5039490000000 1.0
C      1  0.3918680000000  0.5469190000000  0.4452180000000 1.0
C      1  0.4616590000000  0.4149270000000  0.4520320000000 1.0
C      1  0.5534270000000  0.4748590000000  0.3988840000000 1.0
C      1  0.5903520000000  0.3821880000000  0.5063160000000 1.0
C      1  0.4103820000000  0.4389700000000  0.4415060000000 1.0
C      1  0.4886110000000  0.5082060000000  0.4505010000000 1.0
C      1  0.5544590000000  0.6227160000000  0.5176540000000 1.0
C      1  0.4540300000000  0.5248620000000  0.6031420000000 1.0
C      1  0.4179540000000  0.4369820000000  0.5187440000000 1.0
C      1  0.5309040000000  0.4799610000000  0.3846940000000 1.0
C      1  0.4294360000000  0.5800940000000  0.4457700000000 1.0
C      1  0.5670530000000  0.5352850000000  0.4348190000000 1.0
C      1  0.4282210000000  0.5850570000000  0.5910950000000 1.0
C      1  0.4670360000000  0.4166960000000  0.4969650000000 1.0
C      1  0.3932160000000  0.5202250000000  0.4555080000000 1.0
C      1  0.5507910000000  0.4604290000000  0.4748910000000 1.0
C      1  0.5635210000000  0.5205660000000  0.4101740000000 1.0
C      1  0.4933960000000  0.5782120000000  0.4882290000000 1.0
C      1  0.4341550000000  0.4547200000000  0.4453060000000 1.0
C      1  0.5261420000000  0.4588280000000  0.5472890000000 1.0
C      1  0.5037590000000  0.3948890000000  0.4765250000000 1.0
C      1  0.6053380000000  0.5465950000000  0.5347030000000 1.0
C      1  0.4677640000000  0.5839260000000  0.5300020000000 1.0
C      1  0.4777940000000  0.5685980000000  0.6116460000000 1.0
C      1  0.5123290000000  0.5961690000000  0.4759040000000 1.0
C      1  0.5255720000000  0.4072590000000  0.5567450000000 1.0
C      1  0.3945610000000  0.4854030000000  0.5251320000000 1.0
C      1  0.4527430000000  0.5890810000000  0.5768990000000 1.0
C      1  0.5762580000000  0.5195470000000  0.5954930000000 1.0
C      1  0.4915000000000  0.5028860000000  0.5676960000000 1.0
C      1  0.4482660000000  0.5978780000000  0.4889320000000 1.0
C      1  0.4297730000000  0.5938960000000  0.4699570000000 1.0
C      1  0.5732800000000  0.5769580000000  0.5098430000000 1.0
C      1  0.4247080000000  0.5578910000000  0.4053720000000 1.0
C      1  0.4308290000000  0.5398900000000  0.6119430000000 1.0
C      1  0.4418200000000  0.4986860000000  0.4806050000000 1.0
C      1  0.5107140000000  0.4488970000000  0.5241710000000 1.0
C      1  0.4632910000000  0.4507390000000  0.5526860000000 1.0
C      1  0.5192510000000  0.5058970000000  0.5681980000000 1.0
C      1  0.5230300000000  0.5629800000000  0.4239060000000 1.0
C      1  0.6460030000000  0.3329920000000  0.5333940000000 1.0
C      1  0.5191710000000  0.4345280000000  0.4999820000000 1.0
C      1  0.4193130000000  0.5584140000000  0.5931780000000 1.0
C      1  0.5863060000000  0.5182120000000  0.4492460000000 1.0
C      1  0.5472150000000  0.5559250000000  0.4412160000000 1.0
C      1  0.4205370000000  0.4159670000000  0.4256050000000 1.0
C      1  0.4539860000000  0.5631760000000  0.4080930000000 1.0
C      1  0.4786400000000  0.5246540000000  0.5557970000000 1.0
C      1  0.5397220000000  0.5924230000000  0.4808030000000 1.0
C      1  0.5934460000000  0.4711100000000  0.4625050000000 1.0
C      1  0.4361740000000  0.4556300000000  0.5059030000000 1.0
C      1  0.4225720000000  0.4945750000000  0.5713070000000 1.0
C      1  0.4288530000000  0.4155790000000  0.5340100000000 1.0
C      1  0.5046310000000  0.4697810000000  0.4716990000000 1.0
C      1  0.5334400000000  0.4882120000000  0.5856240000000 1.0
C      1  0.4522840000000  0.4412740000000  0.4622840000000 1.0
C      1  0.4543420000000  0.5231220000000  0.5407760000000 1.0
C      1  0.5887570000000  0.4717690000000  0.5265270000000 1.0
C      1  0.4503070000000  0.4132560000000  0.4254500000000 1.0
C      1  0.4168200000000  0.5446020000000  0.5679690000000 1.0
C      1  0.5551270000000  0.4821540000000  0.4919740000000 1.0
C      1  0.5264430000000  0.6037630000000  0.5966690000000 1.0
C      1  0.4635730000000  0.5115840000000  0.4378230000000 1.0
C      1  0.5063820000000  0.5467890000000  0.4048430000000 1.0
C      1  0.4749830000000  0.3960260000000  0.5503380000000 1.0
C      1  0.4988880000000  0.4815010000000  0.4468980000000 1.0
C      1  0.5489660000000  0.4217570000000  0.5663220000000 1.0
C      1  0.5118850000000  0.4413450000000  0.4169630000000 1.0
C      1  0.4516700000000  0.4960840000000  0.5283180000000 1.0
C      1  0.4768700000000  0.4840330000000  0.5840580000000 1.0
C      1  0.6276690000000  0.3491930000000  0.5243920000000 1.0
C      1  0.5343690000000  0.5662060000000  0.5510350000000 1.0
C      1  0.4682870000000  0.4271440000000  0.4072800000000 1.0
C      1  0.5502490000000  0.5327410000000  0.3884680000000 1.0
C      1  0.5827160000000  0.5665950000000  0.5355770000000 1.0
C      1  0.4769130000000  0.4025190000000  0.4734380000000 1.0
C      1  0.5348840000000  0.3899630000000  0.5353960000000 1.0
C      1  0.5556440000000  0.5000700000000  0.5978580000000 1.0
C      1  0.4147810000000  0.5067230000000  0.4431050000000 1.0
C      1  0.4765090000000  0.5449380000000  0.4030950000000 1.0
C      1  0.5135830000000  0.5187150000000  0.5201230000000 1.0
C      1  0.5800800000000  0.5536360000000  0.6289640000000 1.0
C      1  0.5313600000000  0.5086280000000  0.5415460000000 1.0
C      1  0.3854960000000  0.4560260000000  0.4862810000000 1.0
C      1  0.4948410000000  0.5257750000000  0.4733220000000 1.0
C      1  0.4500440000000  0.4972980000000  0.5890870000000 1.0
C      1  0.5625840000000  0.5672410000000  0.5571910000000 1.0
C      1  0.5100330000000  0.5607690000000  0.5613490000000 1.0
C      1  0.4008430000000  0.5397110000000  0.3606870000000 1.0
C      1  0.5689570000000  0.4920420000000  0.4148300000000 1.0
C      1  0.4095330000000  0.4810740000000  0.5482850000000 1.0
C      1  0.3859470000000  0.4836430000000  0.4967070000000 1.0
C      1  0.4387960000000  0.5478980000000  0.5490540000000 1.0
C      1  0.6008840000000  0.5109740000000  0.5867150000000 1.0
C      1  0.4826620000000  0.4375870000000  0.5696710000000 1.0
C      1  0.5760850000000  0.4479780000000  0.4694930000000 1.0
C      1  0.4687680000000  0.4730390000000  0.5358350000000 1.0
C      1  0.4040770000000  0.3987210000000  0.4122230000000 1.0
C      1  0.5520050000000  0.5699890000000  0.4663240000000 1.0
C      1  0.4998640000000  0.6063770000000  0.5929360000000 1.0
C      1  0.4452810000000  0.4672830000000  0.4227480000000 1.0
C      1  0.5218750000000  0.5284880000000  0.3887040000000 1.0
C      1  0.6008630000000  0.5196540000000  0.5236270000000 1.0
C      1  0.5702940000000  0.4001490000000  0.4985060000000 1.0
C      1  0.5561940000000  0.5232550000000  0.5406650000000 1.0
C      1  0.5223400000000  0.4070260000000  0.4940690000000 1.0
C      1  0.5070440000000  0.6044160000000  0.4492370000000 1.0
C      1  0.5653910000000  0.5688880000000  0.5857910000000 1.0
C      1  0.4902360000000  0.4681650000000  0.5180170000000 1.0
END
