TITL C-247195-3186-496 2.41609903062842e-07 125000 -404.520994584212 0 0 67 (C1) n - 1
REM
REM in /home/nfs/bkarasulu/CARBON/AIRSS/Generating-Clusters/LCBOP/Only-C1/SD-CG/FIRE-HFTN
REM
REM
REM
REM
REM
REM ./C.cell (11c1c37f851c82e70ff6c80c92926a4b)
REM AIRSS Version 0.9.1 bugfix July 2018 build 013d7b7c2542+ Fri, 06 Jul 2018 19:26:36 +0100
REM compiler GCC version 9.2.1 20190827 (Red Hat 9.2.1-1)
REM options -cpp -mtune=generic -march=x86-64 -g -O0 -fpre-include=/usr/include/finclude/math-vector-fortran.h
REM seed 546150423 -900568672 534837637 251964561 -1724392878 1247595534 -1923494708 879543296 1854542933 2063071679 1572106655 1654125403 1563964227 -1243349802 1641055610 441734060 476666903 880431122 2032750292 1852108781 -1473907246 116946839 -1354051338 -798220963 128121188 434116682 1532915010 178120610 -1481781861 -1783123126 -1674753732 1438225703 161756608
REM
CELL 1.54180   50.00000   50.00000   50.00000   90.00000   90.00000   90.00000
LATT -1
SFAC C  
C      1  0.4275910000000  0.4862970000000  0.4431930000000 1.0
C      1  0.5708710000000  0.5266500000000  0.5400670000000 1.0
C      1  0.4733080000000  0.4731180000000  0.5652650000000 1.0
C      1  0.4746100000000  0.5658130000000  0.5518910000000 1.0
C      1  0.4838350000000  0.4204100000000  0.4749620000000 1.0
C      1  0.5916760000000  0.4538590000000  0.5153070000000 1.0
C      1  0.4772800000000  0.4778070000000  0.4731250000000 1.0
C      1  0.4824600000000  0.4030230000000  0.5605090000000 1.0
C      1  0.4291940000000  0.4601230000000  0.4496800000000 1.0
C      1  0.5481480000000  0.4702050000000  0.5236330000000 1.0
C      1  0.4949490000000  0.4905800000000  0.5615720000000 1.0
C      1  0.4802930000000  0.4891090000000  0.4469590000000 1.0
C      1  0.5510860000000  0.5268900000000  0.4245610000000 1.0
C      1  0.4321450000000  0.5142180000000  0.4812840000000 1.0
C      1  0.5159050000000  0.5722010000000  0.4656090000000 1.0
C      1  0.4591660000000  0.5428530000000  0.5577690000000 1.0
C      1  0.4983680000000  0.4846010000000  0.4258130000000 1.0
C      1  0.5029190000000  0.5661010000000  0.5507520000000 1.0
C      1  0.5446310000000  0.4675240000000  0.4936730000000 1.0
C      1  0.5148920000000  0.5466040000000  0.4005240000000 1.0
C      1  0.4533100000000  0.4321370000000  0.5108410000000 1.0
C      1  0.4431270000000  0.5243270000000  0.5467320000000 1.0
C      1  0.5593240000000  0.5489800000000  0.4706570000000 1.0
C      1  0.4773380000000  0.5505370000000  0.4999660000000 1.0
C      1  0.4936400000000  0.5276570000000  0.4980400000000 1.0
C      1  0.5238730000000  0.5678960000000  0.5339860000000 1.0
C      1  0.5666110000000  0.5457060000000  0.5184800000000 1.0
C      1  0.4426130000000  0.4998840000000  0.5033780000000 1.0
C      1  0.5551680000000  0.4430310000000  0.4839350000000 1.0
C      1  0.5343570000000  0.5188810000000  0.5783230000000 1.0
C      1  0.4354810000000  0.5020460000000  0.5310330000000 1.0
C      1  0.4573260000000  0.4126410000000  0.5554150000000 1.0
C      1  0.4542040000000  0.4355300000000  0.5387890000000 1.0
C      1  0.4519390000000  0.4612390000000  0.5509910000000 1.0
C      1  0.5115570000000  0.5044360000000  0.5798470000000 1.0
C      1  0.5032630000000  0.4940200000000  0.5347500000000 1.0
C      1  0.4039610000000  0.4708820000000  0.5516480000000 1.0
C      1  0.4626620000000  0.5823310000000  0.5319790000000 1.0
C      1  0.4402440000000  0.4405320000000  0.4643580000000 1.0
C      1  0.5047250000000  0.5241300000000  0.4719020000000 1.0
C      1  0.5814100000000  0.4387750000000  0.4946450000000 1.0
C      1  0.5496850000000  0.5292120000000  0.4524780000000 1.0
C      1  0.5834120000000  0.5008380000000  0.5357070000000 1.0
C      1  0.5034020000000  0.5643710000000  0.4174390000000 1.0
C      1  0.4294630000000  0.4777530000000  0.5447860000000 1.0
C      1  0.4584990000000  0.4298410000000  0.4832040000000 1.0
C      1  0.5398460000000  0.4943400000000  0.4838030000000 1.0
C      1  0.5149500000000  0.4983150000000  0.4095570000000 1.0
C      1  0.4983760000000  0.5609880000000  0.4450430000000 1.0
C      1  0.4687910000000  0.4884610000000  0.4984820000000 1.0
C      1  0.5550630000000  0.5281400000000  0.5637880000000 1.0
C      1  0.4884300000000  0.5034900000000  0.5125430000000 1.0
C      1  0.5362730000000  0.4250960000000  0.4736140000000 1.0
C      1  0.4665790000000  0.5154850000000  0.4459390000000 1.0
C      1  0.5381000000000  0.5097680000000  0.5086190000000 1.0
C      1  0.5306900000000  0.4923000000000  0.5298330000000 1.0
C      1  0.5289450000000  0.5228650000000  0.4071290000000 1.0
C      1  0.5418880000000  0.5621970000000  0.5130470000000 1.0
C      1  0.5103150000000  0.4187490000000  0.4716540000000 1.0
C      1  0.4868010000000  0.5353110000000  0.4519150000000 1.0
C      1  0.4646100000000  0.5732070000000  0.5065680000000 1.0
C      1  0.4389870000000  0.5103320000000  0.4538180000000 1.0
C      1  0.5781870000000  0.5431370000000  0.4918000000000 1.0
C      1  0.4351510000000  0.4005830000000  0.5660390000000 1.0
C      1  0.5299300000000  0.5124100000000  0.4648820000000 1.0
C      1  0.5764780000000  0.4737690000000  0.5291890000000 1.0
C      1  0.5376860000000  0.5654540000000  0.4832840000000 1.0
END
