TITL C-247195-3186-685 -1.1480426228752e-07 125000 -955.440896067531 0 0 155 (C1) n - 1
REM
REM in /home/nfs/bkarasulu/CARBON/AIRSS/Generating-Clusters/LCBOP/Only-C1/SD-CG/FIRE-HFTN
REM
REM
REM
REM
REM
REM ./C.cell (11c1c37f851c82e70ff6c80c92926a4b)
REM AIRSS Version 0.9.1 bugfix July 2018 build 013d7b7c2542+ Fri, 06 Jul 2018 19:26:36 +0100
REM compiler GCC version 9.2.1 20190827 (Red Hat 9.2.1-1)
REM options -cpp -mtune=generic -march=x86-64 -g -O0 -fpre-include=/usr/include/finclude/math-vector-fortran.h
REM seed 2058790428 -186882161 617836604 -1310154147 -877925440 -1409867402 1094748174 2009921307 736677330 -721301012 684486272 559458993 1292199016 1726879191 -189871422 1055503502 -1718691576 -107961155 -796884305 -254395545 88378613 -1382038069 -351622931 232275263 483351626 -1856555553 1100252058 -790446077 -1833538353 -1845827535 -1254296807 -782319350 733471427
REM
CELL 1.54180   50.00000   50.00000   50.00000   90.00000   90.00000   90.00000
LATT -1
SFAC C  
C      1  0.5043290000000  0.4241540000000  0.4242750000000 1.0
C      1  0.5748280000000  0.4752100000000  0.4546040000000 1.0
C      1  0.5193080000000  0.4786280000000  0.4681030000000 1.0
C      1  0.4676500000000  0.5332920000000  0.4741470000000 1.0
C      1  0.4352960000000  0.5255030000000  0.4142620000000 1.0
C      1  0.5688770000000  0.5395900000000  0.4829420000000 1.0
C      1  0.3766180000000  0.4889830000000  0.4813510000000 1.0
C      1  0.4106680000000  0.5303720000000  0.5942740000000 1.0
C      1  0.5284500000000  0.4582380000000  0.4510540000000 1.0
C      1  0.4917180000000  0.6246690000000  0.5167640000000 1.0
C      1  0.5404200000000  0.5910130000000  0.5464230000000 1.0
C      1  0.6353200000000  0.4193910000000  0.5077050000000 1.0
C      1  0.5620390000000  0.5527580000000  0.4377930000000 1.0
C      1  0.4189260000000  0.4719820000000  0.4651830000000 1.0
C      1  0.5332550000000  0.5861230000000  0.4664780000000 1.0
C      1  0.4438900000000  0.4987400000000  0.4089300000000 1.0
C      1  0.4756530000000  0.5463640000000  0.5018720000000 1.0
C      1  0.5801050000000  0.5144190000000  0.5796590000000 1.0
C      1  0.5563310000000  0.4539230000000  0.4497450000000 1.0
C      1  0.4949840000000  0.5961720000000  0.5658000000000 1.0
C      1  0.3959960000000  0.4586910000000  0.5690810000000 1.0
C      1  0.4188680000000  0.5559960000000  0.4525690000000 1.0
C      1  0.4960190000000  0.4970910000000  0.5060300000000 1.0
C      1  0.6006560000000  0.4660720000000  0.4610620000000 1.0
C      1  0.5095160000000  0.3781780000000  0.4974350000000 1.0
C      1  0.5819570000000  0.4624670000000  0.5208900000000 1.0
C      1  0.5109450000000  0.4510620000000  0.5108830000000 1.0
C      1  0.4653500000000  0.4621640000000  0.5187220000000 1.0
C      1  0.5075730000000  0.4977400000000  0.6031270000000 1.0
C      1  0.3947750000000  0.4489810000000  0.5005450000000 1.0
C      1  0.4924270000000  0.5761660000000  0.4964090000000 1.0
C      1  0.5671540000000  0.4109620000000  0.5507200000000 1.0
C      1  0.5663680000000  0.4879760000000  0.6385000000000 1.0
C      1  0.5064200000000  0.5799650000000  0.4720050000000 1.0
C      1  0.5639820000000  0.4040750000000  0.4575010000000 1.0
C      1  0.5277820000000  0.5063060000000  0.5474150000000 1.0
C      1  0.4243220000000  0.5517780000000  0.5855890000000 1.0
C      1  0.4132760000000  0.5567530000000  0.4807520000000 1.0
C      1  0.3905570000000  0.4870240000000  0.5719940000000 1.0
C      1  0.6170800000000  0.4498680000000  0.4743840000000 1.0
C      1  0.4728270000000  0.4432660000000  0.4722670000000 1.0
C      1  0.4903890000000  0.5990090000000  0.5119470000000 1.0
C      1  0.5122700000000  0.5286640000000  0.5388170000000 1.0
C      1  0.4683770000000  0.5017450000000  0.5729650000000 1.0
C      1  0.4469140000000  0.5856050000000  0.5518150000000 1.0
C      1  0.4918880000000  0.4048670000000  0.4382750000000 1.0
C      1  0.6011950000000  0.5013020000000  0.4186460000000 1.0
C      1  0.4002160000000  0.5060600000000  0.5900900000000 1.0
C      1  0.5321510000000  0.3747610000000  0.4826570000000 1.0
C      1  0.4405420000000  0.5604400000000  0.5645700000000 1.0
C      1  0.3974180000000  0.4911890000000  0.4622580000000 1.0
C      1  0.4429660000000  0.4760140000000  0.5211730000000 1.0
C      1  0.4448780000000  0.3952880000000  0.4412030000000 1.0
C      1  0.3763350000000  0.4715200000000  0.5032550000000 1.0
C      1  0.4193650000000  0.4416920000000  0.5671550000000 1.0
C      1  0.4145470000000  0.4196490000000  0.4693320000000 1.0
C      1  0.4679110000000  0.4646930000000  0.4547180000000 1.0
C      1  0.4436270000000  0.5825960000000  0.5227270000000 1.0
C      1  0.5168170000000  0.5243720000000  0.6036650000000 1.0
C      1  0.4494220000000  0.5509090000000  0.5172950000000 1.0
C      1  0.4664110000000  0.5543690000000  0.3827980000000 1.0
C      1  0.6166250000000  0.5613310000000  0.5536910000000 1.0
C      1  0.4882890000000  0.5419370000000  0.4556220000000 1.0
C      1  0.4365590000000  0.4953090000000  0.5381240000000 1.0
C      1  0.5413890000000  0.5502520000000  0.3893910000000 1.0
C      1  0.4308390000000  0.5965470000000  0.5009750000000 1.0
C      1  0.4979720000000  0.4979550000000  0.4305220000000 1.0
C      1  0.4516520000000  0.5130050000000  0.5535040000000 1.0
C      1  0.5862310000000  0.5536110000000  0.5000860000000 1.0
C      1  0.6347510000000  0.4989170000000  0.5093500000000 1.0
C      1  0.5575280000000  0.4723140000000  0.5688690000000 1.0
C      1  0.4958740000000  0.4578470000000  0.5782800000000 1.0
C      1  0.4213520000000  0.4082740000000  0.4445790000000 1.0
C      1  0.5574730000000  0.5492920000000  0.4105230000000 1.0
C      1  0.4844210000000  0.4710500000000  0.4282220000000 1.0
C      1  0.5772780000000  0.5772800000000  0.5122970000000 1.0
C      1  0.4868450000000  0.4420750000000  0.5560120000000 1.0
C      1  0.5488020000000  0.4150000000000  0.5025050000000 1.0
C      1  0.4074970000000  0.5828080000000  0.4915690000000 1.0
C      1  0.5688790000000  0.4891130000000  0.5889220000000 1.0
C      1  0.5661720000000  0.4116010000000  0.5241370000000 1.0
C      1  0.4680990000000  0.6328680000000  0.4214180000000 1.0
C      1  0.4272460000000  0.5811780000000  0.4428570000000 1.0
C      1  0.6008150000000  0.5159660000000  0.5592020000000 1.0
C      1  0.4463850000000  0.5452020000000  0.3976780000000 1.0
C      1  0.6219750000000  0.5198040000000  0.4950150000000 1.0
C      1  0.6214660000000  0.4417990000000  0.5008880000000 1.0
C      1  0.4685110000000  0.5998260000000  0.5629000000000 1.0
C      1  0.4616040000000  0.4781540000000  0.4090710000000 1.0
C      1  0.3848100000000  0.5202180000000  0.5353260000000 1.0
C      1  0.5271410000000  0.4774240000000  0.6100340000000 1.0
C      1  0.4828700000000  0.5872960000000  0.4308750000000 1.0
C      1  0.4497410000000  0.5400530000000  0.5462020000000 1.0
C      1  0.6210680000000  0.5183020000000  0.4660290000000 1.0
C      1  0.4435300000000  0.6028780000000  0.4513650000000 1.0
C      1  0.5557470000000  0.4776030000000  0.4008370000000 1.0
C      1  0.6153650000000  0.5113130000000  0.4400700000000 1.0
C      1  0.4917440000000  0.5560940000000  0.3749740000000 1.0
C      1  0.4433870000000  0.6098820000000  0.4791170000000 1.0
C      1  0.5689990000000  0.5032390000000  0.4519670000000 1.0
C      1  0.4878520000000  0.4858530000000  0.5851630000000 1.0
C      1  0.5610890000000  0.5895350000000  0.5296170000000 1.0
C      1  0.5656110000000  0.4278200000000  0.4453940000000 1.0
C      1  0.4895800000000  0.4530970000000  0.5297020000000 1.0
C      1  0.3807980000000  0.4505950000000  0.5445840000000 1.0
C      1  0.5119160000000  0.5530430000000  0.5524280000000 1.0
C      1  0.5641660000000  0.5364010000000  0.5880980000000 1.0
C      1  0.4176910000000  0.5324550000000  0.4360750000000 1.0
C      1  0.4671760000000  0.4163510000000  0.4794270000000 1.0
C      1  0.5610550000000  0.4808220000000  0.5224900000000 1.0
C      1  0.5316780000000  0.4647620000000  0.4041910000000 1.0
C      1  0.4477930000000  0.4170810000000  0.5318350000000 1.0
C      1  0.4693240000000  0.4002740000000  0.4548080000000 1.0
C      1  0.3999130000000  0.5124270000000  0.4445520000000 1.0
C      1  0.5509020000000  0.3960030000000  0.4807130000000 1.0
C      1  0.5108010000000  0.4749970000000  0.4947310000000 1.0
C      1  0.6168200000000  0.4931540000000  0.5538570000000 1.0
C      1  0.5181060000000  0.5535620000000  0.3770350000000 1.0
C      1  0.5484580000000  0.5253280000000  0.4958290000000 1.0
C      1  0.5524750000000  0.5764140000000  0.4503540000000 1.0
C      1  0.4231850000000  0.5412630000000  0.5028930000000 1.0
C      1  0.5799430000000  0.4896770000000  0.4055510000000 1.0
C      1  0.4098490000000  0.4466650000000  0.4764250000000 1.0
C      1  0.5217920000000  0.5319280000000  0.4901530000000 1.0
C      1  0.5220130000000  0.4248620000000  0.5075840000000 1.0
C      1  0.5135260000000  0.5023950000000  0.4534250000000 1.0
C      1  0.5043470000000  0.4021390000000  0.5093840000000 1.0
C      1  0.3989290000000  0.4360160000000  0.5260400000000 1.0
C      1  0.5164520000000  0.5804710000000  0.5565720000000 1.0
C      1  0.5562910000000  0.4235100000000  0.5715310000000 1.0
C      1  0.3770630000000  0.4965240000000  0.5477310000000 1.0
C      1  0.6098290000000  0.4592600000000  0.5199400000000 1.0
C      1  0.6066150000000  0.5377250000000  0.5123010000000 1.0
C      1  0.4462110000000  0.4822220000000  0.4629570000000 1.0
C      1  0.5548000000000  0.4852340000000  0.6139810000000 1.0
C      1  0.5471850000000  0.4855570000000  0.5464060000000 1.0
C      1  0.5450190000000  0.4480660000000  0.5775140000000 1.0
C      1  0.5697600000000  0.5318670000000  0.4555320000000 1.0
C      1  0.4227410000000  0.4283610000000  0.5409200000000 1.0
C      1  0.5560960000000  0.4997610000000  0.5032780000000 1.0
C      1  0.5216440000000  0.4542390000000  0.5923450000000 1.0
C      1  0.5121070000000  0.5279930000000  0.4635770000000 1.0
C      1  0.6246430000000  0.4815930000000  0.5293490000000 1.0
C      1  0.4238150000000  0.4039850000000  0.4914880000000 1.0
C      1  0.6072670000000  0.5383070000000  0.5416740000000 1.0
C      1  0.5392030000000  0.5384410000000  0.5982740000000 1.0
C      1  0.5001860000000  0.5268250000000  0.5113320000000 1.0
C      1  0.4532910000000  0.5090140000000  0.4704450000000 1.0
C      1  0.5111240000000  0.4532180000000  0.4254650000000 1.0
C      1  0.4689930000000  0.4196600000000  0.5515080000000 1.0
C      1  0.4031650000000  0.5294170000000  0.5184940000000 1.0
C      1  0.4650480000000  0.6088980000000  0.4339040000000 1.0
C      1  0.4495590000000  0.4101770000000  0.5029360000000 1.0
C      1  0.3697940000000  0.4742460000000  0.5309900000000 1.0
C      1  0.4922260000000  0.5690400000000  0.4496060000000 1.0
END
