TITL C-247202-1916-143 40.7551488754994 125000 -276.351907230356 0 0 48 (C1) n - 1
REM
REM in /home/nfs/bkarasulu/CARBON/AIRSS/Generating-Clusters/LCBOP/Only-C1/SD-CG/FIRE-HFTN
REM
REM
REM
REM
REM
REM ./C.cell (11c1c37f851c82e70ff6c80c92926a4b)
REM AIRSS Version 0.9.1 bugfix July 2018 build 013d7b7c2542+ Fri, 06 Jul 2018 19:26:36 +0100
REM compiler GCC version 9.2.1 20190827 (Red Hat 9.2.1-1)
REM options -cpp -mtune=generic -march=x86-64 -g -O0 -fpre-include=/usr/include/finclude/math-vector-fortran.h
REM seed -1995505685 1749241631 -1587126444 -464804290 116833800 2100776771 443526051 -771067974 -703376453 -142397920 -824448456 1219881959 -642143560 -18556550 186502480 -707640989 1229079395 -514996163 1650431824 -650588644 1859553210 -1139533324 1889030088 265720843 1844405558 -1547884585 -803904119 1379574772 -1480978331 -1535303126 -1917222605 1340807498 440417357
REM
CELL 1.54180   50.00000   50.00000   50.00000   90.00000   90.00000   90.00000
LATT -1
SFAC C  
C      1  0.4977450000000  0.5534210000000  0.5334420000000 1.0
C      1  0.5002450000000  0.5247710000000  0.4866150000000 1.0
C      1  0.4921730000000  0.4695290000000  0.4938940000000 1.0
C      1  0.5147230000000  0.4224590000000  0.5172480000000 1.0
C      1  0.5445480000000  0.5070510000000  0.5315040000000 1.0
C      1  0.5193100000000  0.5070220000000  0.4690050000000 1.0
C      1  0.5070590000000  0.5099490000000  0.4419210000000 1.0
C      1  0.5182540000000  0.4360790000000  0.5427300000000 1.0
C      1  0.4874790000000  0.5546250000000  0.4515320000000 1.0
C      1  0.4713770000000  0.4531140000000  0.4578130000000 1.0
C      1  0.4349410000000  0.5132170000000  0.4904100000000 1.0
C      1  0.4405500000000  0.4837910000000  0.5484650000000 1.0
C      1  0.4878330000000  0.4267470000000  0.5053970000000 1.0
C      1  0.5324790000000  0.5165660000000  0.5562040000000 1.0
C      1  0.5191260000000  0.4818620000000  0.4884940000000 1.0
C      1  0.4248890000000  0.4895730000000  0.5029270000000 1.0
C      1  0.4429100000000  0.4763060000000  0.5207910000000 1.0
C      1  0.4827070000000  0.5256000000000  0.4432160000000 1.0
C      1  0.5717880000000  0.5084630000000  0.5264690000000 1.0
C      1  0.5281240000000  0.4877510000000  0.3971440000000 1.0
C      1  0.4989920000000  0.5735010000000  0.4741430000000 1.0
C      1  0.4570080000000  0.5000930000000  0.5630120000000 1.0
C      1  0.5254340000000  0.4725500000000  0.5735960000000 1.0
C      1  0.5254100000000  0.4963800000000  0.5138440000000 1.0
C      1  0.4735380000000  0.4362760000000  0.5300500000000 1.0
C      1  0.4759040000000  0.5410040000000  0.4915470000000 1.0
C      1  0.4706910000000  0.4794960000000  0.5114110000000 1.0
C      1  0.4570190000000  0.5248380000000  0.5046150000000 1.0
C      1  0.5039720000000  0.5264400000000  0.5547100000000 1.0
C      1  0.4601830000000  0.5066550000000  0.4472240000000 1.0
C      1  0.5466210000000  0.5194470000000  0.4683350000000 1.0
C      1  0.5381800000000  0.4764300000000  0.3759230000000 1.0
C      1  0.5373310000000  0.4978510000000  0.5773660000000 1.0
C      1  0.4975910000000  0.4745460000000  0.5639910000000 1.0
C      1  0.5572200000000  0.5440790000000  0.4680220000000 1.0
C      1  0.4649080000000  0.4776260000000  0.4468230000000 1.0
C      1  0.4374610000000  0.5146680000000  0.4622730000000 1.0
C      1  0.5364160000000  0.4488850000000  0.5611330000000 1.0
C      1  0.4914460000000  0.4497460000000  0.5490050000000 1.0
C      1  0.4855650000000  0.5019010000000  0.5629260000000 1.0
C      1  0.4845900000000  0.4443740000000  0.4821470000000 1.0
C      1  0.5973140000000  0.5097370000000  0.5213810000000 1.0
C      1  0.5179070000000  0.4991390000000  0.4187690000000 1.0
C      1  0.5025510000000  0.5132440000000  0.5135290000000 1.0
C      1  0.4753970000000  0.5065150000000  0.5182140000000 1.0
C      1  0.4886030000000  0.5646780000000  0.5007680000000 1.0
C      1  0.5254890000000  0.5824140000000  0.4711050000000 1.0
C      1  0.5489980000000  0.5695890000000  0.4689190000000 1.0
END
