TITL C-247195-3186-426 -9.14982748753788e-07 125000 -647.03968881515 0 0 106 (C1) n - 1
REM
REM in /home/nfs/bkarasulu/CARBON/AIRSS/Generating-Clusters/LCBOP/Only-C1/SD-CG/FIRE-HFTN
REM
REM
REM
REM
REM
REM ./C.cell (11c1c37f851c82e70ff6c80c92926a4b)
REM AIRSS Version 0.9.1 bugfix July 2018 build 013d7b7c2542+ Fri, 06 Jul 2018 19:26:36 +0100
REM compiler GCC version 9.2.1 20190827 (Red Hat 9.2.1-1)
REM options -cpp -mtune=generic -march=x86-64 -g -O0 -fpre-include=/usr/include/finclude/math-vector-fortran.h
REM seed -1076462424 751676086 -1571202643 -452210336 26269266 -1816797480 -1547624294 780562743 -1401868837 -264318693 -1543287159 103772455 -835526315 -73799227 -783965574 1699023278 1939686781 -500267472 283813953 -1794256782 -1010092339 1894457502 -802997184 884313517 1382409522 1648831866 801645284 -370415957 1007870462 -986404420 333275699 -1660414645 2065032186
REM
CELL 1.54180   50.00000   50.00000   50.00000   90.00000   90.00000   90.00000
LATT -1
SFAC C  
C      1  0.4845770000000  0.5622720000000  0.5601720000000 1.0
C      1  0.4104480000000  0.4707860000000  0.4269890000000 1.0
C      1  0.5742640000000  0.4680960000000  0.4576960000000 1.0
C      1  0.4588920000000  0.4742170000000  0.4584590000000 1.0
C      1  0.5098970000000  0.5168620000000  0.5811760000000 1.0
C      1  0.5612590000000  0.4831620000000  0.4358130000000 1.0
C      1  0.4534590000000  0.5149160000000  0.4728320000000 1.0
C      1  0.4810180000000  0.4796930000000  0.5344420000000 1.0
C      1  0.4579900000000  0.4914810000000  0.5729570000000 1.0
C      1  0.4397350000000  0.5654580000000  0.4701080000000 1.0
C      1  0.5861180000000  0.4863510000000  0.5229830000000 1.0
C      1  0.4342520000000  0.5503980000000  0.4456030000000 1.0
C      1  0.4093550000000  0.4596320000000  0.4729120000000 1.0
C      1  0.5418170000000  0.4110560000000  0.4821980000000 1.0
C      1  0.5027980000000  0.4647470000000  0.4473520000000 1.0
C      1  0.5473140000000  0.4177660000000  0.4301440000000 1.0
C      1  0.5753070000000  0.4532280000000  0.4825170000000 1.0
C      1  0.5300680000000  0.5801950000000  0.4520170000000 1.0
C      1  0.5728850000000  0.5539960000000  0.4557510000000 1.0
C      1  0.4807790000000  0.4810020000000  0.4410520000000 1.0
C      1  0.5031070000000  0.5992820000000  0.5284610000000 1.0
C      1  0.4137720000000  0.4799520000000  0.4535830000000 1.0
C      1  0.4871410000000  0.5350940000000  0.5749730000000 1.0
C      1  0.4381250000000  0.4950200000000  0.4588180000000 1.0
C      1  0.4944360000000  0.4353940000000  0.4813560000000 1.0
C      1  0.5177630000000  0.4002680000000  0.4958920000000 1.0
C      1  0.5070350000000  0.5423560000000  0.4873110000000 1.0
C      1  0.4911530000000  0.4132650000000  0.4989450000000 1.0
C      1  0.5113710000000  0.6237020000000  0.4421550000000 1.0
C      1  0.4095450000000  0.4648910000000  0.5274880000000 1.0
C      1  0.4873990000000  0.5965320000000  0.4743620000000 1.0
C      1  0.5353410000000  0.5183620000000  0.5684220000000 1.0
C      1  0.5139150000000  0.4554700000000  0.4919900000000 1.0
C      1  0.4390700000000  0.4735690000000  0.5613840000000 1.0
C      1  0.4936970000000  0.4380150000000  0.5888800000000 1.0
C      1  0.4836890000000  0.4791540000000  0.5649580000000 1.0
C      1  0.4556870000000  0.5606920000000  0.5464130000000 1.0
C      1  0.4592310000000  0.5061780000000  0.4994480000000 1.0
C      1  0.5813470000000  0.5244910000000  0.5696630000000 1.0
C      1  0.5322410000000  0.4937100000000  0.5133620000000 1.0
C      1  0.5350770000000  0.5775240000000  0.5574720000000 1.0
C      1  0.5896850000000  0.4655480000000  0.5037180000000 1.0
C      1  0.5365280000000  0.4500790000000  0.5101920000000 1.0
C      1  0.5309950000000  0.5286590000000  0.5421940000000 1.0
C      1  0.4900600000000  0.4382700000000  0.4523440000000 1.0
C      1  0.4408680000000  0.5344530000000  0.4241670000000 1.0
C      1  0.5171120000000  0.5094860000000  0.5289820000000 1.0
C      1  0.4909040000000  0.5943940000000  0.5030880000000 1.0
C      1  0.5069730000000  0.5808540000000  0.5509720000000 1.0
C      1  0.5546260000000  0.4352680000000  0.4925500000000 1.0
C      1  0.4502100000000  0.4451590000000  0.5575440000000 1.0
C      1  0.4866670000000  0.5462700000000  0.5060940000000 1.0
C      1  0.5999280000000  0.5111990000000  0.5153080000000 1.0
C      1  0.4730590000000  0.4174980000000  0.5219870000000 1.0
C      1  0.4510560000000  0.5300140000000  0.5433460000000 1.0
C      1  0.5355730000000  0.4952110000000  0.4698450000000 1.0
C      1  0.5495490000000  0.5440130000000  0.5272340000000 1.0
C      1  0.5439540000000  0.5055640000000  0.4446270000000 1.0
C      1  0.4251480000000  0.4436860000000  0.5156480000000 1.0
C      1  0.4615060000000  0.5197260000000  0.5697810000000 1.0
C      1  0.4311210000000  0.5585380000000  0.4993160000000 1.0
C      1  0.4303390000000  0.4489910000000  0.4886670000000 1.0
C      1  0.4909980000000  0.5061490000000  0.5305160000000 1.0
C      1  0.4171050000000  0.5347720000000  0.5105800000000 1.0
C      1  0.4746770000000  0.4318370000000  0.5684680000000 1.0
C      1  0.5649290000000  0.4815620000000  0.5443250000000 1.0
C      1  0.5320600000000  0.4399920000000  0.5578380000000 1.0
C      1  0.5612840000000  0.5037790000000  0.5652710000000 1.0
C      1  0.4763440000000  0.5265140000000  0.4587920000000 1.0
C      1  0.5300000000000  0.5318930000000  0.4449990000000 1.0
C      1  0.4715150000000  0.5244120000000  0.5194280000000 1.0
C      1  0.5016080000000  0.4896880000000  0.5856990000000 1.0
C      1  0.5784240000000  0.5513210000000  0.5639210000000 1.0
C      1  0.4691040000000  0.4328280000000  0.4332050000000 1.0
C      1  0.4652780000000  0.4773930000000  0.5076900000000 1.0
C      1  0.5450100000000  0.4575130000000  0.5384160000000 1.0
C      1  0.5204080000000  0.4433770000000  0.5838790000000 1.0
C      1  0.5545770000000  0.4659690000000  0.4142920000000 1.0
C      1  0.4324010000000  0.4661940000000  0.4094770000000 1.0
C      1  0.4250090000000  0.5161650000000  0.5329010000000 1.0
C      1  0.5127770000000  0.6461270000000  0.4289500000000 1.0
C      1  0.4471790000000  0.4323510000000  0.5302960000000 1.0
C      1  0.4493210000000  0.5707340000000  0.5194310000000 1.0
C      1  0.5451310000000  0.5072640000000  0.4930730000000 1.0
C      1  0.5454290000000  0.5563860000000  0.4481790000000 1.0
C      1  0.4778710000000  0.5012810000000  0.4217400000000 1.0
C      1  0.5096130000000  0.5996330000000  0.4564250000000 1.0
C      1  0.4401770000000  0.4907940000000  0.3969530000000 1.0
C      1  0.5165180000000  0.4181000000000  0.5465740000000 1.0
C      1  0.5909520000000  0.5434620000000  0.4732750000000 1.0
C      1  0.4506000000000  0.4446650000000  0.4165970000000 1.0
C      1  0.5497850000000  0.4393940000000  0.4144520000000 1.0
C      1  0.5863850000000  0.5297860000000  0.4977680000000 1.0
C      1  0.5587710000000  0.5303540000000  0.5036520000000 1.0
C      1  0.4559550000000  0.4614960000000  0.4847680000000 1.0
C      1  0.4752770000000  0.5714630000000  0.5084640000000 1.0
C      1  0.4535410000000  0.5118400000000  0.4110610000000 1.0
C      1  0.6253160000000  0.5162730000000  0.5243030000000 1.0
C      1  0.5035580000000  0.4805090000000  0.6114930000000 1.0
C      1  0.4212020000000  0.4870440000000  0.5416160000000 1.0
C      1  0.5186120000000  0.4730290000000  0.4695820000000 1.0
C      1  0.5043380000000  0.5330980000000  0.4603190000000 1.0
C      1  0.4880950000000  0.4170210000000  0.5469350000000 1.0
C      1  0.4612030000000  0.5857290000000  0.4664170000000 1.0
C      1  0.5580320000000  0.5631070000000  0.5474220000000 1.0
C      1  0.5453900000000  0.4065900000000  0.4544480000000 1.0
END
