TITL C-247198-3593-376 7.81942852103026e-07 125000 -364.454694352924 0 0 60 (C1) n - 1
REM
REM in /home/nfs/bkarasulu/CARBON/AIRSS/Generating-Clusters/LCBOP/Only-C1/SD-CG/FIRE-HFTN
REM
REM
REM
REM
REM
REM ./C.cell (11c1c37f851c82e70ff6c80c92926a4b)
REM AIRSS Version 0.9.1 bugfix July 2018 build 013d7b7c2542+ Fri, 06 Jul 2018 19:26:36 +0100
REM compiler GCC version 9.2.1 20190827 (Red Hat 9.2.1-1)
REM options -cpp -mtune=generic -march=x86-64 -g -O0 -fpre-include=/usr/include/finclude/math-vector-fortran.h
REM seed 847002498 1806001446 -1304892073 582392034 -1634874109 1474236552 1247347084 2039252804 -611511342 1919242027 -1914398276 -2099314679 358239007 -989068292 1363540872 -870591707 -26617767 365798821 -1203932739 -1262629996 -1895347760 1647390059 327448946 1384267543 -491991422 -328645088 -559208160 1820572929 -87637027 325409482 346387605 810167638 -924733129
REM
CELL 1.54180   50.00000   50.00000   50.00000   90.00000   90.00000   90.00000
LATT -1
SFAC C  
C      1  0.5111250000000  0.4457370000000  0.4845440000000 1.0
C      1  0.5449910000000  0.5468740000000  0.4373670000000 1.0
C      1  0.4511040000000  0.4239160000000  0.4673370000000 1.0
C      1  0.4614960000000  0.4624860000000  0.4926110000000 1.0
C      1  0.4513370000000  0.5108680000000  0.4318210000000 1.0
C      1  0.5125030000000  0.4445260000000  0.4563890000000 1.0
C      1  0.5544630000000  0.4144480000000  0.4796610000000 1.0
C      1  0.5458150000000  0.4561150000000  0.5195420000000 1.0
C      1  0.5676910000000  0.4398620000000  0.4801290000000 1.0
C      1  0.5142880000000  0.4905470000000  0.5024250000000 1.0
C      1  0.4437880000000  0.4854960000000  0.4286290000000 1.0
C      1  0.5267510000000  0.4018880000000  0.5460590000000 1.0
C      1  0.5055410000000  0.3936570000000  0.5288980000000 1.0
C      1  0.5259160000000  0.5632060000000  0.4464820000000 1.0
C      1  0.5803380000000  0.6360430000000  0.5415480000000 1.0
C      1  0.5083790000000  0.4306870000000  0.5792940000000 1.0
C      1  0.5056620000000  0.6077670000000  0.5321800000000 1.0
C      1  0.5039050000000  0.5679030000000  0.4891760000000 1.0
C      1  0.5021570000000  0.5607890000000  0.5162290000000 1.0
C      1  0.5284240000000  0.4268170000000  0.5597010000000 1.0
C      1  0.5377580000000  0.4970150000000  0.4448030000000 1.0
C      1  0.4952380000000  0.5336530000000  0.5221390000000 1.0
C      1  0.5000650000000  0.5803550000000  0.5369670000000 1.0
C      1  0.4669490000000  0.5276080000000  0.5229150000000 1.0
C      1  0.5483760000000  0.4705630000000  0.4421600000000 1.0
C      1  0.5112450000000  0.4990740000000  0.4559930000000 1.0
C      1  0.4852090000000  0.5725790000000  0.5597170000000 1.0
C      1  0.4417120000000  0.4360270000000  0.4452130000000 1.0
C      1  0.5948400000000  0.4570300000000  0.5172380000000 1.0
C      1  0.5279310000000  0.4520660000000  0.4358480000000 1.0
C      1  0.4640450000000  0.5560050000000  0.5616130000000 1.0
C      1  0.4399510000000  0.4593410000000  0.4322310000000 1.0
C      1  0.5503250000000  0.5206760000000  0.4369210000000 1.0
C      1  0.4576220000000  0.5095600000000  0.5034860000000 1.0
C      1  0.5135160000000  0.5120600000000  0.5205160000000 1.0
C      1  0.4843320000000  0.6239660000000  0.5238280000000 1.0
C      1  0.4126810000000  0.5730190000000  0.5244870000000 1.0
C      1  0.4626920000000  0.5336750000000  0.4396880000000 1.0
C      1  0.5330520000000  0.4002560000000  0.4885360000000 1.0
C      1  0.5022840000000  0.5628690000000  0.4616620000000 1.0
C      1  0.5412650000000  0.4475140000000  0.5458660000000 1.0
C      1  0.4928800000000  0.4260380000000  0.4944560000000 1.0
C      1  0.5560050000000  0.6271550000000  0.5386270000000 1.0
C      1  0.5077150000000  0.4027410000000  0.5021540000000 1.0
C      1  0.4695340000000  0.4892300000000  0.4879390000000 1.0
C      1  0.4718690000000  0.4012100000000  0.5647090000000 1.0
C      1  0.5240370000000  0.4640300000000  0.5030730000000 1.0
C      1  0.4661460000000  0.4345360000000  0.4887140000000 1.0
C      1  0.4337320000000  0.6185950000000  0.5153750000000 1.0
C      1  0.4250430000000  0.5511220000000  0.5334670000000 1.0
C      1  0.4838580000000  0.4193160000000  0.5808400000000 1.0
C      1  0.5313070000000  0.6180460000000  0.5356360000000 1.0
C      1  0.4808890000000  0.3893170000000  0.5421110000000 1.0
C      1  0.5684080000000  0.4583020000000  0.4582620000000 1.0
C      1  0.4967570000000  0.4943850000000  0.4797520000000 1.0
C      1  0.4163260000000  0.5985550000000  0.5177110000000 1.0
C      1  0.5705660000000  0.4512590000000  0.5062670000000 1.0
C      1  0.4586770000000  0.6275860000000  0.5177720000000 1.0
C      1  0.4790050000000  0.5518990000000  0.4503010000000 1.0
C      1  0.4504850000000  0.5421330000000  0.5409900000000 1.0
END
