TITL C-247195-3186-395 96.5449843883301 125000 -247.02171689725 0 0 42 (C1) n - 1
REM
REM in /home/nfs/bkarasulu/CARBON/AIRSS/Generating-Clusters/LCBOP/Only-C1/SD-CG/FIRE-HFTN
REM
REM
REM
REM
REM
REM ./C.cell (11c1c37f851c82e70ff6c80c92926a4b)
REM AIRSS Version 0.9.1 bugfix July 2018 build 013d7b7c2542+ Fri, 06 Jul 2018 19:26:36 +0100
REM compiler GCC version 9.2.1 20190827 (Red Hat 9.2.1-1)
REM options -cpp -mtune=generic -march=x86-64 -g -O0 -fpre-include=/usr/include/finclude/math-vector-fortran.h
REM seed -1171893624 -630250661 1421916231 -658234893 -2132640032 -471863670 1220908941 -1755902048 711433193 1516038110 832512798 -1922836392 1348429128 985710975 446381323 65894454 -120360223 -1163420700 1901566870 979602919 -1537355659 -1749370564 1500720641 -2049463131 -39897699 -1892805110 -949480953 -701555619 -1669499538 -1558678047 1587162066 -1777940744 -1268729307
REM
CELL 1.54180   50.00000   50.00000   50.00000   90.00000   90.00000   90.00000
LATT -1
SFAC C  
C      1  0.5541740000000  0.5471100000000  0.4609980000000 1.0
C      1  0.4924160000000  0.5293350000000  0.5576880000000 1.0
C      1  0.5220030000000  0.4734320000000  0.5135490000000 1.0
C      1  0.5434500000000  0.4783710000000  0.4386160000000 1.0
C      1  0.4707820000000  0.4521160000000  0.4167700000000 1.0
C      1  0.4467450000000  0.4546710000000  0.4578200000000 1.0
C      1  0.4405600000000  0.5221340000000  0.5651720000000 1.0
C      1  0.4316030000000  0.5020020000000  0.4494650000000 1.0
C      1  0.4298000000000  0.5016030000000  0.4960090000000 1.0
C      1  0.5743680000000  0.5111590000000  0.5891690000000 1.0
C      1  0.4733230000000  0.5062380000000  0.4739860000000 1.0
C      1  0.4707500000000  0.5027470000000  0.4234470000000 1.0
C      1  0.4144740000000  0.5174440000000  0.5654770000000 1.0
C      1  0.5270850000000  0.5502050000000  0.5037750000000 1.0
C      1  0.5413470000000  0.5046170000000  0.4472610000000 1.0
C      1  0.5328710000000  0.4859890000000  0.5342880000000 1.0
C      1  0.5557080000000  0.5091220000000  0.5704970000000 1.0
C      1  0.4169880000000  0.5086940000000  0.4729050000000 1.0
C      1  0.5359370000000  0.5083210000000  0.5508670000000 1.0
C      1  0.5327280000000  0.5396330000000  0.4788840000000 1.0
C      1  0.6072950000000  0.4914160000000  0.6177560000000 1.0
C      1  0.5230190000000  0.5140200000000  0.4684200000000 1.0
C      1  0.5050460000000  0.4743780000000  0.4915040000000 1.0
C      1  0.4666390000000  0.5262830000000  0.5629600000000 1.0
C      1  0.4867650000000  0.4538470000000  0.4837240000000 1.0
C      1  0.5182850000000  0.5303580000000  0.5472140000000 1.0
C      1  0.5173290000000  0.4360590000000  0.4491560000000 1.0
C      1  0.4600000000000  0.5117440000000  0.4486100000000 1.0
C      1  0.4337970000000  0.4744780000000  0.4418430000000 1.0
C      1  0.5264060000000  0.5527250000000  0.5316360000000 1.0
C      1  0.4683000000000  0.4405610000000  0.4427950000000 1.0
C      1  0.5009200000000  0.4996810000000  0.4778830000000 1.0
C      1  0.5998730000000  0.5384140000000  0.6191310000000 1.0
C      1  0.4554640000000  0.4901980000000  0.4916250000000 1.0
C      1  0.4915810000000  0.4382060000000  0.4597620000000 1.0
C      1  0.4616750000000  0.4780420000000  0.4147340000000 1.0
C      1  0.3888580000000  0.5126280000000  0.5649670000000 1.0
C      1  0.5591840000000  0.5268800000000  0.4428260000000 1.0
C      1  0.5336060000000  0.5761540000000  0.5437670000000 1.0
C      1  0.4586120000000  0.4625110000000  0.4839270000000 1.0
C      1  0.5361720000000  0.4527860000000  0.4402170000000 1.0
C      1  0.5940600000000  0.5136900000000  0.6089000000000 1.0
END
