TITL C-247197-3123-636 224359.500267035 125000 -898.5305612947 0 0 148 (C1) n - 1
REM
REM in /home/nfs/bkarasulu/CARBON/AIRSS/Generating-Clusters/LCBOP/Only-C1/SD-CG/FIRE-HFTN
REM
REM
REM
REM
REM
REM ./C.cell (11c1c37f851c82e70ff6c80c92926a4b)
REM AIRSS Version 0.9.1 bugfix July 2018 build 013d7b7c2542+ Fri, 06 Jul 2018 19:26:36 +0100
REM compiler GCC version 9.2.1 20190827 (Red Hat 9.2.1-1)
REM options -cpp -mtune=generic -march=x86-64 -g -O0 -fpre-include=/usr/include/finclude/math-vector-fortran.h
REM seed 1489143679 -2096533699 1834650181 -331098455 -2013758437 260999333 -1258618089 -425415452 40863452 -1666682578 334993137 -826790553 528455519 1753045465 198598347 1958474223 -404061488 -1389344054 1167411136 549989891 -1092984889 354025540 653248522 -803960219 1438840802 -1111789085 -561608558 2108176492 1554518888 -210168823 1466973469 -1694648580 -928988852
REM
CELL 1.54180   50.00000   50.00000   50.00000   90.00000   90.00000   90.00000
LATT -1
SFAC C  
C      1  0.4370220000000  0.4523210000000  0.4287020000000 1.0
C      1  0.5209880000000  0.4011780000000  0.5698750000000 1.0
C      1  0.5026340000000  0.5566610000000  0.5850640000000 1.0
C      1  0.4551120000000  0.5562440000000  0.4402070000000 1.0
C      1  0.5770800000000  0.4890830000000  0.5775400000000 1.0
C      1  0.4995780000000  0.5058320000000  0.5139830000000 1.0
C      1  0.4981300000000  0.3800080000000  0.4979140000000 1.0
C      1  0.4931560000000  0.4001150000000  0.5760510000000 1.0
C      1  0.5305090000000  0.5669330000000  0.5499210000000 1.0
C      1  0.4881790000000  0.5346130000000  0.4019440000000 1.0
C      1  0.5311690000000  0.5449120000000  0.5308510000000 1.0
C      1  0.5144530000000  0.4510370000000  0.4101210000000 1.0
C      1  0.4625890000000  0.5337920000000  0.5580140000000 1.0
C      1  0.4484950000000  0.5100420000000  0.4593000000000 1.0
C      1  0.5755310000000  0.5606130000000  0.5397610000000 1.0
C      1  0.5327150000000  0.4500610000000  0.5779540000000 1.0
C      1  0.4562340000000  0.3882630000000  0.5400180000000 1.0
C      1  0.5852860000000  0.4593540000000  0.5713110000000 1.0
C      1  0.5294480000000  0.4542120000000  0.4660350000000 1.0
C      1  0.4381790000000  0.4294750000000  0.4455300000000 1.0
C      1  0.4596030000000  0.5235610000000  0.5317240000000 1.0
C      1  0.5538450000000  0.5737750000000  0.4223610000000 1.0
C      1  0.5423890000000  0.4005740000000  0.4657770000000 1.0
C      1  0.4887440000000  0.5885230000000  0.5461780000000 1.0
C      1  0.4561640000000  0.6418440000000  0.3965680000000 1.0
C      1  0.5825950000000  0.4283900000000  0.5194580000000 1.0
C      1  0.4559700000000  0.4849880000000  0.3708950000000 1.0
C      1  0.4325100000000  0.4311310000000  0.5872480000000 1.0
C      1  0.5220680000000  0.4709340000000  0.4888000000000 1.0
C      1  0.5431940000000  0.4750250000000  0.5071830000000 1.0
C      1  0.4681080000000  0.4966000000000  0.4437460000000 1.0
C      1  0.3845620000000  0.5147610000000  0.4851160000000 1.0
C      1  0.4385160000000  0.4112000000000  0.4965190000000 1.0
C      1  0.5325970000000  0.5200810000000  0.4087000000000 1.0
C      1  0.5313330000000  0.5675460000000  0.4085110000000 1.0
C      1  0.4274900000000  0.5194970000000  0.6088910000000 1.0
C      1  0.6059240000000  0.5314330000000  0.5637500000000 1.0
C      1  0.5588790000000  0.5171550000000  0.4534920000000 1.0
C      1  0.4045640000000  0.4402710000000  0.5177430000000 1.0
C      1  0.4206450000000  0.5746910000000  0.5134060000000 1.0
C      1  0.6012480000000  0.5415770000000  0.4732180000000 1.0
C      1  0.5518070000000  0.4150560000000  0.4874840000000 1.0
C      1  0.4440990000000  0.5885320000000  0.5237360000000 1.0
C      1  0.5085360000000  0.5101080000000  0.4656070000000 1.0
C      1  0.4005290000000  0.5364650000000  0.4918270000000 1.0
C      1  0.5566970000000  0.5768330000000  0.5539430000000 1.0
C      1  0.5074540000000  0.6674130000000  0.4517350000000 1.0
C      1  0.4708500000000  0.3936540000000  0.5620310000000 1.0
C      1  0.4793020000000  0.4708760000000  0.4491490000000 1.0
C      1  0.6026780000000  0.4972970000000  0.4492040000000 1.0
C      1  0.5756250000000  0.4292530000000  0.4919980000000 1.0
C      1  0.3733830000000  0.4678340000000  0.4903200000000 1.0
C      1  0.4106040000000  0.4817110000000  0.4624630000000 1.0
C      1  0.5089070000000  0.4484170000000  0.5384380000000 1.0
C      1  0.4544200000000  0.4545990000000  0.5147570000000 1.0
C      1  0.6053440000000  0.4906860000000  0.5358700000000 1.0
C      1  0.5957020000000  0.5058900000000  0.5595730000000 1.0
C      1  0.4631650000000  0.5426820000000  0.5111560000000 1.0
C      1  0.5138400000000  0.4957530000000  0.4421320000000 1.0
C      1  0.5833210000000  0.5641720000000  0.4667850000000 1.0
C      1  0.4624170000000  0.6236370000000  0.4141540000000 1.0
C      1  0.5499420000000  0.4943460000000  0.5884610000000 1.0
C      1  0.5311630000000  0.4588500000000  0.5507750000000 1.0
C      1  0.4195360000000  0.5481020000000  0.4728620000000 1.0
C      1  0.5634320000000  0.4644900000000  0.4302320000000 1.0
C      1  0.4819860000000  0.6147000000000  0.5047910000000 1.0
C      1  0.4447080000000  0.4126320000000  0.4680440000000 1.0
C      1  0.3815120000000  0.4501240000000  0.5086540000000 1.0
C      1  0.4876870000000  0.5043840000000  0.4017770000000 1.0
C      1  0.3866180000000  0.4881340000000  0.4762540000000 1.0
C      1  0.5256860000000  0.3877140000000  0.5441300000000 1.0
C      1  0.5780310000000  0.4584620000000  0.4788730000000 1.0
C      1  0.4683830000000  0.4829420000000  0.3955510000000 1.0
C      1  0.4592310000000  0.4717640000000  0.5648640000000 1.0
C      1  0.5133800000000  0.4993700000000  0.4144410000000 1.0
C      1  0.5695960000000  0.4263560000000  0.5673220000000 1.0
C      1  0.4793670000000  0.4350770000000  0.5090010000000 1.0
C      1  0.4028700000000  0.5520900000000  0.5163200000000 1.0
C      1  0.4640660000000  0.6042180000000  0.4321220000000 1.0
C      1  0.4746350000000  0.4177410000000  0.4336580000000 1.0
C      1  0.5037730000000  0.5278820000000  0.5843650000000 1.0
C      1  0.4479310000000  0.4483230000000  0.5751450000000 1.0
C      1  0.5159700000000  0.4070730000000  0.4596890000000 1.0
C      1  0.4251980000000  0.5742520000000  0.4836980000000 1.0
C      1  0.4311690000000  0.4351620000000  0.5111960000000 1.0
C      1  0.4914120000000  0.4438360000000  0.4303140000000 1.0
C      1  0.6000320000000  0.5541620000000  0.5509750000000 1.0
C      1  0.4888480000000  0.5507430000000  0.5073170000000 1.0
C      1  0.4635730000000  0.4937020000000  0.5832300000000 1.0
C      1  0.5573640000000  0.4546840000000  0.4563610000000 1.0
C      1  0.6103030000000  0.4932420000000  0.5005100000000 1.0
C      1  0.4602870000000  0.5814650000000  0.5465550000000 1.0
C      1  0.5643580000000  0.4834130000000  0.4904240000000 1.0
C      1  0.4681310000000  0.5483950000000  0.4163570000000 1.0
C      1  0.5299090000000  0.5151550000000  0.5857290000000 1.0
C      1  0.5064580000000  0.4944740000000  0.4889790000000 1.0
C      1  0.5538140000000  0.5209780000000  0.4273070000000 1.0
C      1  0.5271850000000  0.5996350000000  0.5125970000000 1.0
C      1  0.4511000000000  0.4717020000000  0.4897420000000 1.0
C      1  0.4464510000000  0.3908390000000  0.5149050000000 1.0
C      1  0.5514590000000  0.4649140000000  0.5316000000000 1.0
C      1  0.4725120000000  0.4622330000000  0.4739660000000 1.0
C      1  0.5626100000000  0.5098200000000  0.4805390000000 1.0
C      1  0.6067480000000  0.4666130000000  0.4871850000000 1.0
C      1  0.5647930000000  0.5290920000000  0.5004640000000 1.0
C      1  0.5167970000000  0.5439860000000  0.4025310000000 1.0
C      1  0.4884980000000  0.6376670000000  0.4904920000000 1.0
C      1  0.5871170000000  0.4818920000000  0.4318830000000 1.0
C      1  0.4580780000000  0.6006890000000  0.5005650000000 1.0
C      1  0.4401060000000  0.5371230000000  0.4562500000000 1.0
C      1  0.4606010000000  0.4599130000000  0.4117110000000 1.0
C      1  0.5117950000000  0.5636120000000  0.4618020000000 1.0
C      1  0.4940110000000  0.3930650000000  0.4721700000000 1.0
C      1  0.4478900000000  0.5896140000000  0.4758410000000 1.0
C      1  0.5494070000000  0.5928510000000  0.4987650000000 1.0
C      1  0.4159830000000  0.4700570000000  0.4369650000000 1.0
C      1  0.5705410000000  0.4127660000000  0.5404870000000 1.0
C      1  0.5980070000000  0.4641960000000  0.5448360000000 1.0
C      1  0.5068580000000  0.5737460000000  0.5628910000000 1.0
C      1  0.5415310000000  0.4581480000000  0.4117290000000 1.0
C      1  0.3677590000000  0.5598430000000  0.6147480000000 1.0
C      1  0.4627130000000  0.4746740000000  0.5364360000000 1.0
C      1  0.4520560000000  0.5597680000000  0.5637640000000 1.0
C      1  0.5091280000000  0.5333940000000  0.5177620000000 1.0
C      1  0.4439590000000  0.4992020000000  0.6029210000000 1.0
C      1  0.4743850000000  0.4993350000000  0.5268800000000 1.0
C      1  0.4974740000000  0.6544160000000  0.4720140000000 1.0
C      1  0.5076020000000  0.3765910000000  0.5237980000000 1.0
C      1  0.4784300000000  0.5169380000000  0.5757120000000 1.0
C      1  0.5123420000000  0.4351290000000  0.4541460000000 1.0
C      1  0.5415410000000  0.4225250000000  0.5782510000000 1.0
C      1  0.5378280000000  0.4698110000000  0.5969160000000 1.0
C      1  0.6078950000000  0.5126520000000  0.4752710000000 1.0
C      1  0.5590570000000  0.5426470000000  0.5235690000000 1.0
C      1  0.5778570000000  0.4542760000000  0.5288020000000 1.0
C      1  0.4331260000000  0.5608350000000  0.5843970000000 1.0
C      1  0.5326470000000  0.4176020000000  0.5092790000000 1.0
C      1  0.4707820000000  0.4016780000000  0.4580750000000 1.0
C      1  0.5735560000000  0.5692060000000  0.4402990000000 1.0
C      1  0.5080900000000  0.5379390000000  0.4643740000000 1.0
C      1  0.4572400000000  0.5836580000000  0.4497060000000 1.0
C      1  0.4178350000000  0.5451020000000  0.6021240000000 1.0
C      1  0.3927830000000  0.5537000000000  0.6108010000000 1.0
C      1  0.5069210000000  0.4313830000000  0.5159090000000 1.0
C      1  0.4345710000000  0.4905270000000  0.4757440000000 1.0
C      1  0.5699970000000  0.5802950000000  0.4864960000000 1.0
C      1  0.5004910000000  0.6022610000000  0.5227270000000 1.0
C      1  0.5453830000000  0.4028320000000  0.5311380000000 1.0
END
