TITL C-247197-3123-335 -7.4878828072926e-08 125000 -602.294045145766 0 0 99 (C1) n - 1
REM
REM in /home/nfs/bkarasulu/CARBON/AIRSS/Generating-Clusters/LCBOP/Only-C1/SD-CG/FIRE-HFTN
REM
REM
REM
REM
REM
REM ./C.cell (11c1c37f851c82e70ff6c80c92926a4b)
REM AIRSS Version 0.9.1 bugfix July 2018 build 013d7b7c2542+ Fri, 06 Jul 2018 19:26:36 +0100
REM compiler GCC version 9.2.1 20190827 (Red Hat 9.2.1-1)
REM options -cpp -mtune=generic -march=x86-64 -g -O0 -fpre-include=/usr/include/finclude/math-vector-fortran.h
REM seed -134077015 -343527524 -2030673734 1242742003 355582100 -1193499573 -1026487871 -1015609011 1014125998 1094195525 -661334567 -594531058 -1911037723 -2101041057 -1842580359 1173725312 -1471334662 823501336 1227508436 -1332112677 2013873820 -1888823525 -1919163608 411948932 -1262648375 -4852088 1418691605 826444016 -1926247306 594779514 144659817 -307008921 1868097999
REM
CELL 1.54180   50.00000   50.00000   50.00000   90.00000   90.00000   90.00000
LATT -1
SFAC C  
C      1  0.5678520000000  0.4280040000000  0.4741360000000 1.0
C      1  0.3947730000000  0.5303980000000  0.5280590000000 1.0
C      1  0.5483570000000  0.5112100000000  0.4987270000000 1.0
C      1  0.3947780000000  0.4745660000000  0.5071320000000 1.0
C      1  0.4048440000000  0.4687470000000  0.5317810000000 1.0
C      1  0.3716560000000  0.5443310000000  0.5244350000000 1.0
C      1  0.5582120000000  0.4845080000000  0.5039420000000 1.0
C      1  0.5418430000000  0.4215180000000  0.4631330000000 1.0
C      1  0.4228250000000  0.4706310000000  0.5535070000000 1.0
C      1  0.4350420000000  0.4293340000000  0.4362820000000 1.0
C      1  0.5595490000000  0.4573420000000  0.5707950000000 1.0
C      1  0.4701250000000  0.5107540000000  0.4318630000000 1.0
C      1  0.5781650000000  0.5406610000000  0.5507990000000 1.0
C      1  0.5559230000000  0.4803590000000  0.4217700000000 1.0
C      1  0.4598810000000  0.5556850000000  0.5358800000000 1.0
C      1  0.5594100000000  0.4622760000000  0.4441270000000 1.0
C      1  0.4807370000000  0.4885830000000  0.5134980000000 1.0
C      1  0.4818400000000  0.4060060000000  0.4764660000000 1.0
C      1  0.3988770000000  0.4973140000000  0.4898030000000 1.0
C      1  0.5084260000000  0.4197330000000  0.3959900000000 1.0
C      1  0.4110070000000  0.4960320000000  0.4635930000000 1.0
C      1  0.4533290000000  0.4919310000000  0.5138540000000 1.0
C      1  0.5160540000000  0.5114930000000  0.4052750000000 1.0
C      1  0.4846130000000  0.4731950000000  0.4589110000000 1.0
C      1  0.5109980000000  0.5625520000000  0.4604350000000 1.0
C      1  0.4786110000000  0.5017150000000  0.4579510000000 1.0
C      1  0.4510090000000  0.6135670000000  0.4971660000000 1.0
C      1  0.4584610000000  0.4531510000000  0.5804760000000 1.0
C      1  0.5568860000000  0.5046300000000  0.6082920000000 1.0
C      1  0.6662860000000  0.5578840000000  0.5245570000000 1.0
C      1  0.4337730000000  0.4475060000000  0.5670910000000 1.0
C      1  0.4213700000000  0.5182170000000  0.4476330000000 1.0
C      1  0.5338890000000  0.4920930000000  0.5985220000000 1.0
C      1  0.5095740000000  0.5066420000000  0.5902730000000 1.0
C      1  0.5465700000000  0.4686820000000  0.5251650000000 1.0
C      1  0.4406330000000  0.4928100000000  0.5633250000000 1.0
C      1  0.5038960000000  0.3924630000000  0.4697510000000 1.0
C      1  0.5155570000000  0.5844500000000  0.4775640000000 1.0
C      1  0.4955720000000  0.4652710000000  0.5185390000000 1.0
C      1  0.6258130000000  0.5008870000000  0.4989680000000 1.0
C      1  0.4661410000000  0.5683810000000  0.4333430000000 1.0
C      1  0.5318340000000  0.5445720000000  0.5649920000000 1.0
C      1  0.6383990000000  0.5228030000000  0.5069450000000 1.0
C      1  0.5109350000000  0.4669920000000  0.4172010000000 1.0
C      1  0.4407970000000  0.4504710000000  0.4527380000000 1.0
C      1  0.5276900000000  0.4920950000000  0.4589640000000 1.0
C      1  0.5014690000000  0.6035240000000  0.4899980000000 1.0
C      1  0.4268640000000  0.6027200000000  0.4938370000000 1.0
C      1  0.5775000000000  0.5183810000000  0.5981460000000 1.0
C      1  0.4065930000000  0.5266970000000  0.5535680000000 1.0
C      1  0.5362490000000  0.4692480000000  0.5810230000000 1.0
C      1  0.5110070000000  0.5261740000000  0.5218390000000 1.0
C      1  0.4102460000000  0.5837010000000  0.4851860000000 1.0
C      1  0.4929040000000  0.4882480000000  0.5743900000000 1.0
C      1  0.4519800000000  0.5405770000000  0.5565770000000 1.0
C      1  0.4753700000000  0.4322420000000  0.4836600000000 1.0
C      1  0.5277240000000  0.3981910000000  0.4560250000000 1.0
C      1  0.5340570000000  0.4466910000000  0.4511910000000 1.0
C      1  0.5758860000000  0.4555140000000  0.4676320000000 1.0
C      1  0.4664420000000  0.4520940000000  0.4650970000000 1.0
C      1  0.5646210000000  0.4572950000000  0.5441460000000 1.0
C      1  0.5859400000000  0.5305990000000  0.5759280000000 1.0
C      1  0.4870450000000  0.5231220000000  0.4782760000000 1.0
C      1  0.4330950000000  0.5201820000000  0.5614940000000 1.0
C      1  0.4939480000000  0.5116480000000  0.5053540000000 1.0
C      1  0.5392070000000  0.5267820000000  0.5211480000000 1.0
C      1  0.4879160000000  0.4201970000000  0.6109470000000 1.0
C      1  0.5033070000000  0.4453590000000  0.4014790000000 1.0
C      1  0.6416090000000  0.5485450000000  0.5174050000000 1.0
C      1  0.4421040000000  0.5110790000000  0.4289460000000 1.0
C      1  0.4090630000000  0.5180810000000  0.5068320000000 1.0
C      1  0.5506020000000  0.5385610000000  0.5443300000000 1.0
C      1  0.4677050000000  0.5447040000000  0.4860970000000 1.0
C      1  0.5201660000000  0.3978580000000  0.4059410000000 1.0
C      1  0.4857240000000  0.4415830000000  0.5079410000000 1.0
C      1  0.5341230000000  0.5154420000000  0.4734800000000 1.0
C      1  0.5136530000000  0.4707080000000  0.5624510000000 1.0
C      1  0.5803010000000  0.4744940000000  0.4882640000000 1.0
C      1  0.4064400000000  0.5617550000000  0.4703180000000 1.0
C      1  0.4361640000000  0.5121050000000  0.5110050000000 1.0
C      1  0.4654960000000  0.4811390000000  0.5747320000000 1.0
C      1  0.5187730000000  0.4675070000000  0.5343640000000 1.0
C      1  0.4406100000000  0.5613620000000  0.4372430000000 1.0
C      1  0.4622410000000  0.5572400000000  0.5092690000000 1.0
C      1  0.6183210000000  0.5645720000000  0.5208080000000 1.0
C      1  0.5120210000000  0.4670820000000  0.4478940000000 1.0
C      1  0.5303690000000  0.4873450000000  0.4097430000000 1.0
C      1  0.5138180000000  0.5357300000000  0.4698180000000 1.0
C      1  0.4905310000000  0.5170490000000  0.4131070000000 1.0
C      1  0.5296350000000  0.3890350000000  0.4294240000000 1.0
C      1  0.6173150000000  0.5900120000000  0.5108090000000 1.0
C      1  0.4728050000000  0.4356670000000  0.5964050000000 1.0
C      1  0.5963370000000  0.5536130000000  0.5341880000000 1.0
C      1  0.4204140000000  0.5467100000000  0.4512630000000 1.0
C      1  0.6059590000000  0.4843960000000  0.4929990000000 1.0
C      1  0.4921440000000  0.5673230000000  0.4397410000000 1.0
C      1  0.4776650000000  0.6139240000000  0.4961560000000 1.0
C      1  0.5141190000000  0.5331400000000  0.5817350000000 1.0
C      1  0.4215880000000  0.4706050000000  0.4566980000000 1.0
END
