TITL C-247202-1916-23 -182.34295661249 125000 -552.267771744889 0 0 91 (C1) n - 1
REM
REM in /home/nfs/bkarasulu/CARBON/AIRSS/Generating-Clusters/LCBOP/Only-C1/SD-CG/FIRE-HFTN
REM
REM
REM
REM
REM
REM ./C.cell (11c1c37f851c82e70ff6c80c92926a4b)
REM AIRSS Version 0.9.1 bugfix July 2018 build 013d7b7c2542+ Fri, 06 Jul 2018 19:26:36 +0100
REM compiler GCC version 9.2.1 20190827 (Red Hat 9.2.1-1)
REM options -cpp -mtune=generic -march=x86-64 -g -O0 -fpre-include=/usr/include/finclude/math-vector-fortran.h
REM seed -664543523 -667141133 1046421429 1502131285 -2024763975 -1905358132 991231420 -2068202091 -751209394 -1559158972 819807575 813776227 465923182 -1092000007 1419556925 -1640333599 1579793762 -1559921076 1548546743 -1330757159 -1186612944 -1467934851 -531624517 788293661 1387653138 534124802 558610820 -290527890 1606566417 1001584457 -410024546 -1256394535 -1552034855
REM
CELL 1.54180   50.00000   50.00000   50.00000   90.00000   90.00000   90.00000
LATT -1
SFAC C  
C      1  0.5133870000000  0.4149860000000  0.5734190000000 1.0
C      1  0.5940210000000  0.5024570000000  0.4359780000000 1.0
C      1  0.5063240000000  0.4573050000000  0.5282320000000 1.0
C      1  0.4779260000000  0.4778680000000  0.4886000000000 1.0
C      1  0.5170900000000  0.5166410000000  0.5793180000000 1.0
C      1  0.5365160000000  0.4790030000000  0.4114110000000 1.0
C      1  0.4465830000000  0.4966060000000  0.4463620000000 1.0
C      1  0.4747380000000  0.5865200000000  0.4891340000000 1.0
C      1  0.4402800000000  0.5171620000000  0.5569660000000 1.0
C      1  0.5495690000000  0.4953200000000  0.5568730000000 1.0
C      1  0.5497590000000  0.5765620000000  0.5014090000000 1.0
C      1  0.4892820000000  0.5226550000000  0.4298350000000 1.0
C      1  0.5737260000000  0.4220930000000  0.4607650000000 1.0
C      1  0.5605030000000  0.4869760000000  0.4029380000000 1.0
C      1  0.5268660000000  0.5624820000000  0.5653620000000 1.0
C      1  0.5180510000000  0.4217960000000  0.4726740000000 1.0
C      1  0.5139330000000  0.5310850000000  0.5125630000000 1.0
C      1  0.4141040000000  0.5445420000000  0.4288350000000 1.0
C      1  0.5617130000000  0.4451720000000  0.4699160000000 1.0
C      1  0.5355080000000  0.4300600000000  0.5740010000000 1.0
C      1  0.4847840000000  0.4077200000000  0.5085380000000 1.0
C      1  0.5550410000000  0.4351720000000  0.5283140000000 1.0
C      1  0.4894530000000  0.5506540000000  0.4284160000000 1.0
C      1  0.4659660000000  0.5277870000000  0.5470550000000 1.0
C      1  0.5645890000000  0.4714930000000  0.5586310000000 1.0
C      1  0.5126950000000  0.4074240000000  0.4987700000000 1.0
C      1  0.4321940000000  0.4886610000000  0.5541660000000 1.0
C      1  0.4278810000000  0.4734200000000  0.5290390000000 1.0
C      1  0.5084480000000  0.5098110000000  0.5319770000000 1.0
C      1  0.5452080000000  0.5758320000000  0.5485690000000 1.0
C      1  0.4979970000000  0.5659720000000  0.5647190000000 1.0
C      1  0.5253950000000  0.5229670000000  0.4628180000000 1.0
C      1  0.5306290000000  0.4854360000000  0.4836910000000 1.0
C      1  0.4475240000000  0.4396990000000  0.4928910000000 1.0
C      1  0.4255230000000  0.5624150000000  0.4944630000000 1.0
C      1  0.5634340000000  0.5348370000000  0.5283070000000 1.0
C      1  0.5075950000000  0.4317560000000  0.4481510000000 1.0
C      1  0.4776740000000  0.4150700000000  0.5358940000000 1.0
C      1  0.4024980000000  0.5481420000000  0.4052960000000 1.0
C      1  0.4314270000000  0.5855070000000  0.5096940000000 1.0
C      1  0.5580990000000  0.5237560000000  0.5550850000000 1.0
C      1  0.5206730000000  0.4992630000000  0.5558810000000 1.0
C      1  0.4279310000000  0.5403440000000  0.4525710000000 1.0
C      1  0.5251120000000  0.5840020000000  0.4929430000000 1.0
C      1  0.5603310000000  0.5168190000000  0.5025920000000 1.0
C      1  0.5864270000000  0.4957240000000  0.4621710000000 1.0
C      1  0.4378540000000  0.5614690000000  0.4686130000000 1.0
C      1  0.5360630000000  0.4423570000000  0.4829550000000 1.0
C      1  0.4578880000000  0.4611190000000  0.4764260000000 1.0
C      1  0.4527980000000  0.4689980000000  0.4498530000000 1.0
C      1  0.4690170000000  0.4868720000000  0.5155090000000 1.0
C      1  0.5665240000000  0.4621410000000  0.5154190000000 1.0
C      1  0.4792330000000  0.4627240000000  0.5324880000000 1.0
C      1  0.5761130000000  0.4693700000000  0.4657820000000 1.0
C      1  0.5844160000000  0.4708410000000  0.5372650000000 1.0
C      1  0.5573320000000  0.5637250000000  0.5255350000000 1.0
C      1  0.5825480000000  0.5157160000000  0.4822160000000 1.0
C      1  0.4996480000000  0.4563760000000  0.4351710000000 1.0
C      1  0.4632820000000  0.5746540000000  0.4654360000000 1.0
C      1  0.3913110000000  0.5515910000000  0.3820030000000 1.0
C      1  0.5375070000000  0.4121170000000  0.5176520000000 1.0
C      1  0.4643370000000  0.5098170000000  0.4285550000000 1.0
C      1  0.5011680000000  0.5134250000000  0.6009120000000 1.0
C      1  0.4174010000000  0.5371710000000  0.5050350000000 1.0
C      1  0.4714720000000  0.4583910000000  0.4312690000000 1.0
C      1  0.4554200000000  0.5979210000000  0.5066320000000 1.0
C      1  0.4831050000000  0.5524690000000  0.5438160000000 1.0
C      1  0.4924340000000  0.4075540000000  0.5585030000000 1.0
C      1  0.4988010000000  0.5762230000000  0.4998640000000 1.0
C      1  0.4056970000000  0.5379300000000  0.5306080000000 1.0
C      1  0.5833300000000  0.4976770000000  0.4118660000000 1.0
C      1  0.4629530000000  0.4151120000000  0.4910490000000 1.0
C      1  0.6108470000000  0.4762650000000  0.5371450000000 1.0
C      1  0.4179320000000  0.5344000000000  0.5543780000000 1.0
C      1  0.4321620000000  0.5140080000000  0.4638960000000 1.0
C      1  0.4970360000000  0.5539620000000  0.5176670000000 1.0
C      1  0.5371160000000  0.5370520000000  0.5731510000000 1.0
C      1  0.5527350000000  0.4859440000000  0.5029380000000 1.0
C      1  0.5158360000000  0.4808200000000  0.4306300000000 1.0
C      1  0.5039830000000  0.4833510000000  0.4806710000000 1.0
C      1  0.5525480000000  0.4443610000000  0.5570630000000 1.0
C      1  0.4384550000000  0.4466000000000  0.5211770000000 1.0
C      1  0.4392220000000  0.4922500000000  0.5097170000000 1.0
C      1  0.5208460000000  0.4506960000000  0.5069740000000 1.0
C      1  0.4801790000000  0.5082310000000  0.5316980000000 1.0
C      1  0.4624890000000  0.4397410000000  0.5367690000000 1.0
C      1  0.5328760000000  0.5280650000000  0.4908090000000 1.0
C      1  0.4852860000000  0.5817160000000  0.5831470000000 1.0
C      1  0.4785410000000  0.5706480000000  0.4423720000000 1.0
C      1  0.4283590000000  0.5127370000000  0.4928760000000 1.0
C      1  0.5114930000000  0.5084230000000  0.4412550000000 1.0
END
