TITL C-247199-3331-570 8.65658185347979e-06 125000 -1051.72231153021 0 0 171 (C1) n - 1
REM
REM in /home/nfs/bkarasulu/CARBON/AIRSS/Generating-Clusters/LCBOP/Only-C1/SD-CG/FIRE-HFTN
REM
REM
REM
REM
REM
REM ./C.cell (11c1c37f851c82e70ff6c80c92926a4b)
REM AIRSS Version 0.9.1 bugfix July 2018 build 013d7b7c2542+ Fri, 06 Jul 2018 19:26:36 +0100
REM compiler GCC version 9.2.1 20190827 (Red Hat 9.2.1-1)
REM options -cpp -mtune=generic -march=x86-64 -g -O0 -fpre-include=/usr/include/finclude/math-vector-fortran.h
REM seed 46394295 953032403 -1002500495 -320285287 1177335995 317956997 76528191 -124985058 -2005252757 -1031683196 1093816164 -838624489 -961216714 -935322051 -292786907 -864503357 1725937957 -1780281874 958560001 -1813553727 949125771 528579001 630505546 676111242 -250306068 2092361742 -1695209094 1987927815 1420699783 -1307978319 -2019234420 1721386948 -1289587510
REM
CELL 1.54180   50.00000   50.00000   50.00000   90.00000   90.00000   90.00000
LATT -1
SFAC C  
C      1  0.5287570000000  0.6314830000000  0.4993910000000 1.0
C      1  0.4931840000000  0.5995500000000  0.5925010000000 1.0
C      1  0.4219140000000  0.4973370000000  0.4329160000000 1.0
C      1  0.6022310000000  0.4726960000000  0.4391530000000 1.0
C      1  0.5439890000000  0.3959360000000  0.4771160000000 1.0
C      1  0.5472680000000  0.4968410000000  0.5766160000000 1.0
C      1  0.5067860000000  0.5306160000000  0.5695950000000 1.0
C      1  0.5298890000000  0.4554280000000  0.5299640000000 1.0
C      1  0.4512980000000  0.4745420000000  0.3963900000000 1.0
C      1  0.4266290000000  0.4472180000000  0.4273720000000 1.0
C      1  0.4317010000000  0.4740120000000  0.4171390000000 1.0
C      1  0.4159080000000  0.4992970000000  0.5552800000000 1.0
C      1  0.4610500000000  0.5259980000000  0.6104710000000 1.0
C      1  0.4255060000000  0.5041400000000  0.5825000000000 1.0
C      1  0.5327670000000  0.4409720000000  0.4294600000000 1.0
C      1  0.4015060000000  0.4095620000000  0.5077300000000 1.0
C      1  0.5100330000000  0.5595640000000  0.4121900000000 1.0
C      1  0.4768750000000  0.6261160000000  0.4983090000000 1.0
C      1  0.4787160000000  0.5093220000000  0.6260240000000 1.0
C      1  0.5385310000000  0.4145330000000  0.5566450000000 1.0
C      1  0.5921540000000  0.4649120000000  0.4931900000000 1.0
C      1  0.4789240000000  0.5513870000000  0.4764530000000 1.0
C      1  0.4676740000000  0.5443100000000  0.5401480000000 1.0
C      1  0.4022820000000  0.5355810000000  0.5194560000000 1.0
C      1  0.4190960000000  0.5166710000000  0.5327390000000 1.0
C      1  0.5988890000000  0.4405970000000  0.4792910000000 1.0
C      1  0.5705500000000  0.4551580000000  0.5561820000000 1.0
C      1  0.4650060000000  0.4215000000000  0.5085340000000 1.0
C      1  0.4556430000000  0.5676110000000  0.4729260000000 1.0
C      1  0.5343720000000  0.5552110000000  0.6072530000000 1.0
C      1  0.5534950000000  0.5614210000000  0.5869430000000 1.0
C      1  0.4683080000000  0.5355270000000  0.4006160000000 1.0
C      1  0.4961090000000  0.5395560000000  0.3956430000000 1.0
C      1  0.5066630000000  0.6054870000000  0.4647750000000 1.0
C      1  0.5042360000000  0.4179430000000  0.5957870000000 1.0
C      1  0.5671320000000  0.5671810000000  0.4493510000000 1.0
C      1  0.5382390000000  0.5273680000000  0.5052830000000 1.0
C      1  0.4076360000000  0.4894350000000  0.4567230000000 1.0
C      1  0.5070130000000  0.6002950000000  0.5259650000000 1.0
C      1  0.4250840000000  0.5756760000000  0.5309460000000 1.0
C      1  0.6067130000000  0.4856340000000  0.5051430000000 1.0
C      1  0.4605020000000  0.4640130000000  0.5589260000000 1.0
C      1  0.4696890000000  0.4456860000000  0.3618040000000 1.0
C      1  0.5069270000000  0.5467340000000  0.6166680000000 1.0
C      1  0.3986480000000  0.4580710000000  0.5259030000000 1.0
C      1  0.5001510000000  0.5835260000000  0.4222710000000 1.0
C      1  0.5031520000000  0.3976920000000  0.5218860000000 1.0
C      1  0.5694850000000  0.5133360000000  0.5771930000000 1.0
C      1  0.5079580000000  0.4933400000000  0.5077820000000 1.0
C      1  0.5012310000000  0.4685330000000  0.3913430000000 1.0
C      1  0.5446600000000  0.5322380000000  0.3965870000000 1.0
C      1  0.4658440000000  0.4291750000000  0.3420120000000 1.0
C      1  0.5125450000000  0.4934000000000  0.3817060000000 1.0
C      1  0.4265660000000  0.4270980000000  0.5470360000000 1.0
C      1  0.4749450000000  0.4121650000000  0.4595440000000 1.0
C      1  0.4358940000000  0.5559290000000  0.5822800000000 1.0
C      1  0.5281590000000  0.4133260000000  0.4351680000000 1.0
C      1  0.5140520000000  0.5865900000000  0.5788270000000 1.0
C      1  0.5038540000000  0.5205550000000  0.6299550000000 1.0
C      1  0.5025820000000  0.4483580000000  0.5265890000000 1.0
C      1  0.4419070000000  0.5104600000000  0.5167540000000 1.0
C      1  0.4739380000000  0.4631010000000  0.3832810000000 1.0
C      1  0.5509310000000  0.6186790000000  0.5112980000000 1.0
C      1  0.5551880000000  0.5925010000000  0.4497710000000 1.0
C      1  0.4634430000000  0.4390720000000  0.4851190000000 1.0
C      1  0.4286620000000  0.5264160000000  0.4339290000000 1.0
C      1  0.5854830000000  0.4173580000000  0.4919350000000 1.0
C      1  0.4350780000000  0.4528030000000  0.6383930000000 1.0
C      1  0.4366130000000  0.4426430000000  0.4735350000000 1.0
C      1  0.5798050000000  0.5395740000000  0.4849600000000 1.0
C      1  0.4169520000000  0.5581740000000  0.5086270000000 1.0
C      1  0.4604830000000  0.5833560000000  0.4490800000000 1.0
C      1  0.3752320000000  0.5330950000000  0.5172790000000 1.0
C      1  0.4381190000000  0.5279680000000  0.5920000000000 1.0
C      1  0.6037280000000  0.4449790000000  0.4510890000000 1.0
C      1  0.4877350000000  0.5941780000000  0.4455850000000 1.0
C      1  0.5728890000000  0.3961170000000  0.4756930000000 1.0
C      1  0.4670130000000  0.5035290000000  0.4586770000000 1.0
C      1  0.5140140000000  0.5590970000000  0.5692790000000 1.0
C      1  0.5984370000000  0.4957460000000  0.5303310000000 1.0
C      1  0.5240610000000  0.3950440000000  0.5408860000000 1.0
C      1  0.5265010000000  0.4396930000000  0.4838390000000 1.0
C      1  0.5054150000000  0.5234810000000  0.4434240000000 1.0
C      1  0.4890770000000  0.4235570000000  0.5243680000000 1.0
C      1  0.4782250000000  0.4636010000000  0.4853670000000 1.0
C      1  0.4601810000000  0.4872560000000  0.4803750000000 1.0
C      1  0.4575910000000  0.5700230000000  0.5963480000000 1.0
C      1  0.4702380000000  0.5715430000000  0.5314850000000 1.0
C      1  0.5534380000000  0.4845780000000  0.4472560000000 1.0
C      1  0.4667610000000  0.5961750000000  0.5948150000000 1.0
C      1  0.5886510000000  0.4449560000000  0.4059320000000 1.0
C      1  0.4930930000000  0.5783620000000  0.5165910000000 1.0
C      1  0.5973700000000  0.4291250000000  0.4273500000000 1.0
C      1  0.4323150000000  0.4291440000000  0.4484120000000 1.0
C      1  0.5510850000000  0.4681790000000  0.5735130000000 1.0
C      1  0.4924680000000  0.5175220000000  0.5116460000000 1.0
C      1  0.5878590000000  0.4734530000000  0.4126980000000 1.0
C      1  0.5119500000000  0.5380640000000  0.5058150000000 1.0
C      1  0.5901710000000  0.5234740000000  0.5333650000000 1.0
C      1  0.5713480000000  0.5209000000000  0.3990950000000 1.0
C      1  0.5641700000000  0.4214150000000  0.5142890000000 1.0
C      1  0.4136830000000  0.3934480000000  0.4898860000000 1.0
C      1  0.4287400000000  0.4816880000000  0.6000240000000 1.0
C      1  0.5049730000000  0.4773480000000  0.5783190000000 1.0
C      1  0.5328570000000  0.5934930000000  0.4670680000000 1.0
C      1  0.4729810000000  0.4863860000000  0.4367300000000 1.0
C      1  0.3946280000000  0.4717070000000  0.5016930000000 1.0
C      1  0.6026360000000  0.5399930000000  0.4376590000000 1.0
C      1  0.5474200000000  0.5469460000000  0.4453260000000 1.0
C      1  0.5480390000000  0.4749140000000  0.5185840000000 1.0
C      1  0.4133620000000  0.4719860000000  0.5472410000000 1.0
C      1  0.4611040000000  0.3933720000000  0.4996280000000 1.0
C      1  0.4568490000000  0.6137360000000  0.5121710000000 1.0
C      1  0.4197610000000  0.5399660000000  0.4589850000000 1.0
C      1  0.5909280000000  0.4737480000000  0.5477650000000 1.0
C      1  0.4399390000000  0.3907050000000  0.4795020000000 1.0
C      1  0.4981830000000  0.5598760000000  0.4960140000000 1.0
C      1  0.4478590000000  0.4043000000000  0.4537220000000 1.0
C      1  0.4373090000000  0.4935490000000  0.4948500000000 1.0
C      1  0.5688130000000  0.5680580000000  0.5297680000000 1.0
C      1  0.5931040000000  0.5334960000000  0.4128360000000 1.0
C      1  0.5164920000000  0.5003420000000  0.4304470000000 1.0
C      1  0.4782000000000  0.4682350000000  0.5802420000000 1.0
C      1  0.4466140000000  0.5433090000000  0.4177140000000 1.0
C      1  0.5668520000000  0.5583410000000  0.5597290000000 1.0
C      1  0.4294460000000  0.5568160000000  0.4808590000000 1.0
C      1  0.5440950000000  0.4940990000000  0.4227180000000 1.0
C      1  0.5257120000000  0.4563700000000  0.5784000000000 1.0
C      1  0.4904420000000  0.3857760000000  0.4968190000000 1.0
C      1  0.5209880000000  0.6150460000000  0.5433320000000 1.0
C      1  0.5797430000000  0.5317050000000  0.5589690000000 1.0
C      1  0.5175620000000  0.4892560000000  0.4789570000000 1.0
C      1  0.4116930000000  0.4859110000000  0.4844190000000 1.0
C      1  0.4963990000000  0.3958920000000  0.4693180000000 1.0
C      1  0.4480060000000  0.5710720000000  0.4262040000000 1.0
C      1  0.5307530000000  0.6052980000000  0.5662500000000 1.0
C      1  0.4693680000000  0.4542220000000  0.6038460000000 1.0
C      1  0.5185020000000  0.5043580000000  0.5753830000000 1.0
C      1  0.5029300000000  0.6248790000000  0.4860900000000 1.0
C      1  0.5616770000000  0.4286790000000  0.5432250000000 1.0
C      1  0.4055260000000  0.4296010000000  0.5269060000000 1.0
C      1  0.5681060000000  0.4932580000000  0.4060000000000 1.0
C      1  0.4350870000000  0.4537030000000  0.5537270000000 1.0
C      1  0.5237530000000  0.4279940000000  0.5779130000000 1.0
C      1  0.5521910000000  0.5269560000000  0.4775870000000 1.0
C      1  0.5400400000000  0.5801980000000  0.4914340000000 1.0
C      1  0.4665200000000  0.5236030000000  0.5204800000000 1.0
C      1  0.5001560000000  0.4743100000000  0.4378000000000 1.0
C      1  0.4489950000000  0.5901380000000  0.5262670000000 1.0
C      1  0.5180210000000  0.5213290000000  0.3858550000000 1.0
C      1  0.4770230000000  0.5518750000000  0.6088980000000 1.0
C      1  0.5499130000000  0.4521200000000  0.4758960000000 1.0
C      1  0.4826400000000  0.5277160000000  0.4599830000000 1.0
C      1  0.5360070000000  0.5009400000000  0.5184460000000 1.0
C      1  0.5036380000000  0.4643810000000  0.4676460000000 1.0
C      1  0.4833490000000  0.4299600000000  0.6082810000000 1.0
C      1  0.4909670000000  0.4695260000000  0.5121320000000 1.0
C      1  0.5357320000000  0.5486300000000  0.4195240000000 1.0
C      1  0.4228790000000  0.5664760000000  0.5588330000000 1.0
C      1  0.4793580000000  0.5319110000000  0.5625510000000 1.0
C      1  0.5505320000000  0.4562370000000  0.4481870000000 1.0
C      1  0.4347630000000  0.4041270000000  0.5589800000000 1.0
C      1  0.5639670000000  0.4663240000000  0.4963440000000 1.0
C      1  0.5229010000000  0.3966800000000  0.4578180000000 1.0
C      1  0.5112080000000  0.4560820000000  0.4163010000000 1.0
C      1  0.5558180000000  0.5894520000000  0.5136350000000 1.0
C      1  0.4441780000000  0.4626680000000  0.6145600000000 1.0
C      1  0.5429490000000  0.4999110000000  0.4686190000000 1.0
C      1  0.5897000000000  0.5523540000000  0.4600540000000 1.0
C      1  0.5830730000000  0.5449270000000  0.5137870000000 1.0
C      1  0.5381560000000  0.4165050000000  0.4977910000000 1.0
END
