TITL C-247196-3112-9 5.87476572565885e-08 125000 -149.015888885598 0 0 25 (C1) n - 1
REM
REM in /home/nfs/bkarasulu/CARBON/AIRSS/Generating-Clusters/LCBOP/Only-C1/SD-CG/FIRE-HFTN
REM
REM
REM
REM
REM
REM ./C.cell (11c1c37f851c82e70ff6c80c92926a4b)
REM AIRSS Version 0.9.1 bugfix July 2018 build 013d7b7c2542+ Fri, 06 Jul 2018 19:26:36 +0100
REM compiler GCC version 9.2.1 20190827 (Red Hat 9.2.1-1)
REM options -cpp -mtune=generic -march=x86-64 -g -O0 -fpre-include=/usr/include/finclude/math-vector-fortran.h
REM seed 1378655410 -1436241389 -1764678875 1116954838 -1191709435 1092706263 1658683194 1681707913 -1626332409 1584214972 -331128953 -248832555 726922645 667639723 129306347 -1820919642 -1539838081 555752916 73503744 -1340175878 825266838 -1543943008 -1057016345 764700186 1304728452 860607976 61541221 807767020 -1045544510 -1578075633 -1525781328 -1794335836 1974487862
REM
CELL 1.54180   50.00000   50.00000   50.00000   90.00000   90.00000   90.00000
LATT -1
SFAC C  
C      1  0.4638950000000  0.5312540000000  0.5137200000000 1.0
C      1  0.5617570000000  0.4727160000000  0.4779360000000 1.0
C      1  0.4754310000000  0.4747360000000  0.4725730000000 1.0
C      1  0.5203460000000  0.4635620000000  0.5179400000000 1.0
C      1  0.4580090000000  0.5150690000000  0.4901030000000 1.0
C      1  0.5434980000000  0.4528420000000  0.4778480000000 1.0
C      1  0.5109320000000  0.5365440000000  0.5285900000000 1.0
C      1  0.4780390000000  0.5210190000000  0.4685980000000 1.0
C      1  0.4917400000000  0.4937310000000  0.4289720000000 1.0
C      1  0.5602320000000  0.4975440000000  0.4881450000000 1.0
C      1  0.5154750000000  0.4873920000000  0.5321310000000 1.0
C      1  0.5259770000000  0.5311250000000  0.4782350000000 1.0
C      1  0.5162500000000  0.5522260000000  0.5502160000000 1.0
C      1  0.4577080000000  0.5191480000000  0.5385700000000 1.0
C      1  0.5399590000000  0.5146990000000  0.4969890000000 1.0
C      1  0.4652670000000  0.4916980000000  0.5412590000000 1.0
C      1  0.4941820000000  0.4546670000000  0.4784290000000 1.0
C      1  0.4575910000000  0.4855900000000  0.4928760000000 1.0
C      1  0.4826730000000  0.4963740000000  0.4544050000000 1.0
C      1  0.4904800000000  0.5422160000000  0.5092560000000 1.0
C      1  0.5257670000000  0.5124760000000  0.5222030000000 1.0
C      1  0.4984720000000  0.5371720000000  0.4812280000000 1.0
C      1  0.4551180000000  0.4760640000000  0.5194760000000 1.0
C      1  0.5189460000000  0.4529730000000  0.4917720000000 1.0
C      1  0.4922550000000  0.4871640000000  0.5485280000000 1.0
END
