TITL C-247196-3112-517 2.76875475130142e-06 125000 -794.83779258805 0 0 130 (C1) n - 1
REM
REM in /home/nfs/bkarasulu/CARBON/AIRSS/Generating-Clusters/LCBOP/Only-C1/SD-CG/FIRE-HFTN
REM
REM
REM
REM
REM
REM ./C.cell (11c1c37f851c82e70ff6c80c92926a4b)
REM AIRSS Version 0.9.1 bugfix July 2018 build 013d7b7c2542+ Fri, 06 Jul 2018 19:26:36 +0100
REM compiler GCC version 9.2.1 20190827 (Red Hat 9.2.1-1)
REM options -cpp -mtune=generic -march=x86-64 -g -O0 -fpre-include=/usr/include/finclude/math-vector-fortran.h
REM seed 893083019 1468550911 -1001662246 116870094 476980151 1245209818 -1344024232 1718377061 -1379762893 -1531945368 354185980 1549920210 386293462 922449471 -532576043 1242875904 760195727 -706674084 -1669282700 -879728626 -188638154 -1090695446 922107244 230916950 934936537 732470139 -1333036127 -1810080129 -1177893149 -330418945 1206372983 1547842120 409144653
REM
CELL 1.54180   50.00000   50.00000   50.00000   90.00000   90.00000   90.00000
LATT -1
SFAC C  
C      1  0.5078590000000  0.5194710000000  0.3646980000000 1.0
C      1  0.4339800000000  0.4208240000000  0.5049780000000 1.0
C      1  0.5614850000000  0.5135310000000  0.5277090000000 1.0
C      1  0.5416480000000  0.4930850000000  0.6143160000000 1.0
C      1  0.4478080000000  0.4125730000000  0.4816500000000 1.0
C      1  0.4688720000000  0.5583020000000  0.5362630000000 1.0
C      1  0.4181690000000  0.5777140000000  0.5048570000000 1.0
C      1  0.5526030000000  0.5708640000000  0.3530930000000 1.0
C      1  0.4541820000000  0.5095680000000  0.5211740000000 1.0
C      1  0.4084460000000  0.4871670000000  0.5238800000000 1.0
C      1  0.4049500000000  0.4463650000000  0.4736640000000 1.0
C      1  0.4604460000000  0.4777050000000  0.4673590000000 1.0
C      1  0.5917030000000  0.4756500000000  0.5137480000000 1.0
C      1  0.4900240000000  0.4385910000000  0.4240910000000 1.0
C      1  0.4659920000000  0.4164460000000  0.4625530000000 1.0
C      1  0.5125930000000  0.4782240000000  0.5728360000000 1.0
C      1  0.5137960000000  0.4990960000000  0.5314880000000 1.0
C      1  0.5761020000000  0.5000660000000  0.3554050000000 1.0
C      1  0.4897910000000  0.5334720000000  0.5878080000000 1.0
C      1  0.4825090000000  0.5521070000000  0.4421090000000 1.0
C      1  0.5509210000000  0.4662390000000  0.4958570000000 1.0
C      1  0.5417810000000  0.4357680000000  0.5630680000000 1.0
C      1  0.5355770000000  0.5591670000000  0.3974250000000 1.0
C      1  0.4362300000000  0.4892450000000  0.5617360000000 1.0
C      1  0.4985860000000  0.4826740000000  0.5483450000000 1.0
C      1  0.4707150000000  0.4120860000000  0.5427390000000 1.0
C      1  0.5036460000000  0.5228790000000  0.4120630000000 1.0
C      1  0.6212520000000  0.5415880000000  0.4961100000000 1.0
C      1  0.4059630000000  0.5194020000000  0.4579170000000 1.0
C      1  0.4615530000000  0.5318030000000  0.5439340000000 1.0
C      1  0.5189690000000  0.5476430000000  0.4167510000000 1.0
C      1  0.5182510000000  0.4316330000000  0.4176880000000 1.0
C      1  0.5670380000000  0.4888490000000  0.5774420000000 1.0
C      1  0.3972760000000  0.4930990000000  0.4520120000000 1.0
C      1  0.4728660000000  0.6068680000000  0.5411120000000 1.0
C      1  0.5189360000000  0.5858180000000  0.4860350000000 1.0
C      1  0.4808100000000  0.5312120000000  0.6370580000000 1.0
C      1  0.5633570000000  0.4453760000000  0.5406310000000 1.0
C      1  0.4969400000000  0.4356790000000  0.5117790000000 1.0
C      1  0.5788200000000  0.4624520000000  0.4894120000000 1.0
C      1  0.5332730000000  0.5834810000000  0.5118850000000 1.0
C      1  0.4830150000000  0.5614050000000  0.5093820000000 1.0
C      1  0.5092430000000  0.4407120000000  0.4662640000000 1.0
C      1  0.5462320000000  0.4648220000000  0.5234380000000 1.0
C      1  0.4971220000000  0.4207200000000  0.5365840000000 1.0
C      1  0.5886260000000  0.4623050000000  0.5407230000000 1.0
C      1  0.4268740000000  0.5041810000000  0.5029030000000 1.0
C      1  0.5242170000000  0.4164960000000  0.5461870000000 1.0
C      1  0.5245350000000  0.6032750000000  0.5309870000000 1.0
C      1  0.5083350000000  0.5437030000000  0.5135960000000 1.0
C      1  0.4776300000000  0.5063540000000  0.5002760000000 1.0
C      1  0.4658230000000  0.5026020000000  0.3907860000000 1.0
C      1  0.5245920000000  0.5059580000000  0.4863320000000 1.0
C      1  0.5222120000000  0.5771630000000  0.4592930000000 1.0
C      1  0.4773880000000  0.4778370000000  0.4903860000000 1.0
C      1  0.4139410000000  0.5570790000000  0.4862170000000 1.0
C      1  0.5531540000000  0.5403280000000  0.5362180000000 1.0
C      1  0.4126590000000  0.5272880000000  0.4866220000000 1.0
C      1  0.5555550000000  0.5070030000000  0.3719680000000 1.0
C      1  0.4144480000000  0.5636110000000  0.4576120000000 1.0
C      1  0.5175670000000  0.4663470000000  0.3866550000000 1.0
C      1  0.4766240000000  0.4700270000000  0.5368960000000 1.0
C      1  0.5863650000000  0.5046770000000  0.5154730000000 1.0
C      1  0.5525140000000  0.4955730000000  0.3978230000000 1.0
C      1  0.4531910000000  0.4845250000000  0.5390990000000 1.0
C      1  0.4925030000000  0.4647990000000  0.3765210000000 1.0
C      1  0.4948340000000  0.5037380000000  0.4362500000000 1.0
C      1  0.4874710000000  0.4300310000000  0.4511760000000 1.0
C      1  0.5135550000000  0.4272360000000  0.4906270000000 1.0
C      1  0.5149610000000  0.5072910000000  0.6544250000000 1.0
C      1  0.5432070000000  0.4396370000000  0.5922480000000 1.0
C      1  0.6372430000000  0.5600420000000  0.4869800000000 1.0
C      1  0.5440390000000  0.4316740000000  0.4277640000000 1.0
C      1  0.4639120000000  0.5499980000000  0.4896820000000 1.0
C      1  0.4672910000000  0.5237030000000  0.5722580000000 1.0
C      1  0.4532800000000  0.5000040000000  0.5818800000000 1.0
C      1  0.5337910000000  0.5558270000000  0.5209880000000 1.0
C      1  0.5338030000000  0.4804080000000  0.4791950000000 1.0
C      1  0.4689650000000  0.4821010000000  0.5975120000000 1.0
C      1  0.5467320000000  0.4158580000000  0.6070350000000 1.0
C      1  0.4343620000000  0.4829020000000  0.4766990000000 1.0
C      1  0.5356450000000  0.5260780000000  0.3642230000000 1.0
C      1  0.4570140000000  0.6114190000000  0.5170560000000 1.0
C      1  0.4099540000000  0.4939290000000  0.5520450000000 1.0
C      1  0.4121620000000  0.4391550000000  0.5005420000000 1.0
C      1  0.5211560000000  0.4665150000000  0.4581970000000 1.0
C      1  0.4735980000000  0.6085740000000  0.4941630000000 1.0
C      1  0.5584050000000  0.5456340000000  0.5638720000000 1.0
C      1  0.4161730000000  0.5401380000000  0.4401500000000 1.0
C      1  0.4819390000000  0.4590760000000  0.5111190000000 1.0
C      1  0.5010010000000  0.6129940000000  0.5408320000000 1.0
C      1  0.5419630000000  0.4917900000000  0.5357570000000 1.0
C      1  0.5408960000000  0.4847290000000  0.5654330000000 1.0
C      1  0.5674090000000  0.4185660000000  0.5273060000000 1.0
C      1  0.3891540000000  0.5035560000000  0.5666390000000 1.0
C      1  0.5653260000000  0.4382490000000  0.4438430000000 1.0
C      1  0.6048400000000  0.5230030000000  0.5054380000000 1.0
C      1  0.4709160000000  0.4738890000000  0.3926980000000 1.0
C      1  0.5612430000000  0.5077320000000  0.5982770000000 1.0
C      1  0.5088680000000  0.5629070000000  0.4388160000000 1.0
C      1  0.5498480000000  0.3934760000000  0.6200140000000 1.0
C      1  0.4442340000000  0.5172000000000  0.4029350000000 1.0
C      1  0.4376940000000  0.5382950000000  0.4213340000000 1.0
C      1  0.5311070000000  0.4064350000000  0.4981340000000 1.0
C      1  0.4716790000000  0.4815160000000  0.4407100000000 1.0
C      1  0.5311160000000  0.4801380000000  0.4078430000000 1.0
C      1  0.5419090000000  0.5531510000000  0.3707310000000 1.0
C      1  0.4047970000000  0.4595100000000  0.5186330000000 1.0
C      1  0.4592500000000  0.5564920000000  0.4268530000000 1.0
C      1  0.5897380000000  0.4777190000000  0.5648930000000 1.0
C      1  0.4907180000000  0.5171750000000  0.3871360000000 1.0
C      1  0.5417210000000  0.4640450000000  0.6086460000000 1.0
C      1  0.4913380000000  0.5867180000000  0.4943680000000 1.0
C      1  0.5806250000000  0.4487150000000  0.4642090000000 1.0
C      1  0.4945350000000  0.4735310000000  0.5940720000000 1.0
C      1  0.5420110000000  0.4055760000000  0.5244170000000 1.0
C      1  0.4708390000000  0.5253190000000  0.4787320000000 1.0
C      1  0.4313160000000  0.5993160000000  0.5143580000000 1.0
C      1  0.5611080000000  0.5343240000000  0.5884460000000 1.0
C      1  0.5186060000000  0.4831740000000  0.4343010000000 1.0
C      1  0.4115590000000  0.4720800000000  0.4640930000000 1.0
C      1  0.4969200000000  0.5236350000000  0.6136950000000 1.0
C      1  0.5058410000000  0.5145730000000  0.5082280000000 1.0
C      1  0.4468710000000  0.4145980000000  0.5297200000000 1.0
C      1  0.5198360000000  0.5072110000000  0.6255980000000 1.0
C      1  0.4833230000000  0.5258790000000  0.4541390000000 1.0
C      1  0.4919530000000  0.5214100000000  0.6604150000000 1.0
C      1  0.4666100000000  0.5815270000000  0.5521940000000 1.0
C      1  0.4728020000000  0.4620200000000  0.4189120000000 1.0
C      1  0.5049030000000  0.5542840000000  0.5781990000000 1.0
END
