TITL C-247201-3759-546 -1.62337102707193e-07 125000 -952.438917089786 0 0 155 (C1) n - 1
REM
REM in /home/nfs/bkarasulu/CARBON/AIRSS/Generating-Clusters/LCBOP/Only-C1/SD-CG/FIRE-HFTN
REM
REM
REM
REM
REM
REM ./C.cell (11c1c37f851c82e70ff6c80c92926a4b)
REM AIRSS Version 0.9.1 bugfix July 2018 build 013d7b7c2542+ Fri, 06 Jul 2018 19:26:36 +0100
REM compiler GCC version 9.2.1 20190827 (Red Hat 9.2.1-1)
REM options -cpp -mtune=generic -march=x86-64 -g -O0 -fpre-include=/usr/include/finclude/math-vector-fortran.h
REM seed -1683951974 52835187 53914466 1642175888 -370225381 1762360042 -1078382157 1686799963 1165441107 1147547878 -452426560 -1773162385 1070700269 -1069717142 501140538 -1292068813 -267873889 -1267425261 -124085464 1345407831 1613267821 1730191811 1165388561 -1947661925 -148527975 13408581 -1958344537 142095653 352716016 -2058046447 1759317976 -2068536509 172801861
REM
CELL 1.54180   50.00000   50.00000   50.00000   90.00000   90.00000   90.00000
LATT -1
SFAC C  
C      1  0.4749920000000  0.5339340000000  0.5969880000000 1.0
C      1  0.5198550000000  0.5917890000000  0.5684800000000 1.0
C      1  0.3805600000000  0.4562690000000  0.5277960000000 1.0
C      1  0.4162180000000  0.4375350000000  0.5722850000000 1.0
C      1  0.4075170000000  0.5461290000000  0.4709510000000 1.0
C      1  0.4890820000000  0.6277000000000  0.5038600000000 1.0
C      1  0.5270090000000  0.3998600000000  0.4830530000000 1.0
C      1  0.4670500000000  0.4502560000000  0.4973610000000 1.0
C      1  0.5052540000000  0.4994260000000  0.5524010000000 1.0
C      1  0.5777650000000  0.5765920000000  0.5208250000000 1.0
C      1  0.4926590000000  0.3856750000000  0.5526920000000 1.0
C      1  0.5383410000000  0.5356630000000  0.4821220000000 1.0
C      1  0.4655110000000  0.6139310000000  0.4913820000000 1.0
C      1  0.5529910000000  0.5829910000000  0.5331800000000 1.0
C      1  0.5388850000000  0.4015070000000  0.5432010000000 1.0
C      1  0.4759050000000  0.5835730000000  0.5309520000000 1.0
C      1  0.5664400000000  0.5412960000000  0.5718790000000 1.0
C      1  0.4782920000000  0.6059670000000  0.4636620000000 1.0
C      1  0.5636650000000  0.4566490000000  0.4140800000000 1.0
C      1  0.4733110000000  0.5961110000000  0.5601670000000 1.0
C      1  0.4245950000000  0.5294470000000  0.4536950000000 1.0
C      1  0.5046340000000  0.5520290000000  0.4235590000000 1.0
C      1  0.4455870000000  0.5165250000000  0.4961300000000 1.0
C      1  0.4540150000000  0.5972760000000  0.5134150000000 1.0
C      1  0.5081010000000  0.5366770000000  0.4469240000000 1.0
C      1  0.5539280000000  0.4973470000000  0.4623310000000 1.0
C      1  0.4510820000000  0.5808140000000  0.5729700000000 1.0
C      1  0.4656310000000  0.5618280000000  0.4844740000000 1.0
C      1  0.5026790000000  0.5367070000000  0.6083170000000 1.0
C      1  0.5024130000000  0.5130210000000  0.3884270000000 1.0
C      1  0.5866610000000  0.4781760000000  0.5539190000000 1.0
C      1  0.5110330000000  0.4240730000000  0.4859380000000 1.0
C      1  0.5227000000000  0.4440300000000  0.4702170000000 1.0
C      1  0.4748590000000  0.5038250000000  0.5889370000000 1.0
C      1  0.5525890000000  0.5309640000000  0.5497550000000 1.0
C      1  0.5484470000000  0.4382260000000  0.4583050000000 1.0
C      1  0.4285770000000  0.5120160000000  0.5199480000000 1.0
C      1  0.4948670000000  0.5478530000000  0.5537460000000 1.0
C      1  0.5950710000000  0.5560020000000  0.5326320000000 1.0
C      1  0.5245490000000  0.4890460000000  0.4553320000000 1.0
C      1  0.4401430000000  0.5455170000000  0.4340290000000 1.0
C      1  0.5359450000000  0.4795720000000  0.3772630000000 1.0
C      1  0.6064780000000  0.5368680000000  0.5137520000000 1.0
C      1  0.4590480000000  0.4865280000000  0.4605870000000 1.0
C      1  0.5164550000000  0.5101270000000  0.6134030000000 1.0
C      1  0.4671950000000  0.4744290000000  0.5433090000000 1.0
C      1  0.6137940000000  0.5206170000000  0.4674800000000 1.0
C      1  0.4389530000000  0.4340110000000  0.4172050000000 1.0
C      1  0.4310080000000  0.4268210000000  0.5517370000000 1.0
C      1  0.4769330000000  0.3966940000000  0.4993920000000 1.0
C      1  0.5331690000000  0.5371470000000  0.5292890000000 1.0
C      1  0.4479570000000  0.5454440000000  0.4986160000000 1.0
C      1  0.4523390000000  0.4680430000000  0.5187200000000 1.0
C      1  0.4958900000000  0.4642160000000  0.3967440000000 1.0
C      1  0.4584140000000  0.4183670000000  0.5571800000000 1.0
C      1  0.5767440000000  0.4859720000000  0.4789900000000 1.0
C      1  0.5518400000000  0.4080950000000  0.4956230000000 1.0
C      1  0.3984330000000  0.4578860000000  0.4288620000000 1.0
C      1  0.4751630000000  0.5894260000000  0.4377810000000 1.0
C      1  0.4366340000000  0.5361340000000  0.5686030000000 1.0
C      1  0.5499580000000  0.4179220000000  0.5230790000000 1.0
C      1  0.4949920000000  0.4918610000000  0.6071920000000 1.0
C      1  0.5089070000000  0.4281650000000  0.5705170000000 1.0
C      1  0.5642860000000  0.4934230000000  0.5975960000000 1.0
C      1  0.5014280000000  0.5798440000000  0.4289020000000 1.0
C      1  0.4285190000000  0.4826460000000  0.5206670000000 1.0
C      1  0.5040510000000  0.5092360000000  0.4517860000000 1.0
C      1  0.5448430000000  0.5123550000000  0.6057900000000 1.0
C      1  0.3800790000000  0.5072550000000  0.5270170000000 1.0
C      1  0.4713750000000  0.4590680000000  0.4671910000000 1.0
C      1  0.5544080000000  0.4504820000000  0.5810270000000 1.0
C      1  0.4325260000000  0.4056060000000  0.5068120000000 1.0
C      1  0.5904160000000  0.5499200000000  0.4056910000000 1.0
C      1  0.5126290000000  0.5639390000000  0.5710510000000 1.0
C      1  0.4561550000000  0.4086540000000  0.4620710000000 1.0
C      1  0.4279070000000  0.5893270000000  0.5247210000000 1.0
C      1  0.6027210000000  0.4915140000000  0.4286710000000 1.0
C      1  0.4283420000000  0.5858230000000  0.5538310000000 1.0
C      1  0.4463130000000  0.5754140000000  0.4672460000000 1.0
C      1  0.5023840000000  0.5373420000000  0.3997230000000 1.0
C      1  0.3962320000000  0.4402510000000  0.4848130000000 1.0
C      1  0.5122680000000  0.4779840000000  0.5039400000000 1.0
C      1  0.5515320000000  0.4463470000000  0.5284790000000 1.0
C      1  0.4659050000000  0.3934900000000  0.5448930000000 1.0
C      1  0.4540460000000  0.5525020000000  0.5857380000000 1.0
C      1  0.5857190000000  0.4410790000000  0.4911550000000 1.0
C      1  0.4098140000000  0.5769420000000  0.5072060000000 1.0
C      1  0.4675770000000  0.4353900000000  0.4237760000000 1.0
C      1  0.4941220000000  0.4405450000000  0.4123580000000 1.0
C      1  0.4313920000000  0.4264460000000  0.3913010000000 1.0
C      1  0.6078280000000  0.5174850000000  0.4393710000000 1.0
C      1  0.4753500000000  0.5097550000000  0.4954040000000 1.0
C      1  0.4695190000000  0.5537250000000  0.5391980000000 1.0
C      1  0.5456480000000  0.4400370000000  0.4293660000000 1.0
C      1  0.4137680000000  0.4298930000000  0.4650640000000 1.0
C      1  0.5867350000000  0.4702540000000  0.4239150000000 1.0
C      1  0.4188070000000  0.4232480000000  0.5252210000000 1.0
C      1  0.4527940000000  0.5713940000000  0.4396060000000 1.0
C      1  0.5801340000000  0.5802730000000  0.4926520000000 1.0
C      1  0.4008970000000  0.5230430000000  0.5166350000000 1.0
C      1  0.5910430000000  0.5390540000000  0.4305300000000 1.0
C      1  0.5180780000000  0.4003840000000  0.4328120000000 1.0
C      1  0.5267630000000  0.4517480000000  0.5727190000000 1.0
C      1  0.5449820000000  0.5974330000000  0.5562860000000 1.0
C      1  0.5749640000000  0.5470530000000  0.4529110000000 1.0
C      1  0.5564300000000  0.5271400000000  0.4620730000000 1.0
C      1  0.5204730000000  0.5934020000000  0.4463880000000 1.0
C      1  0.5360170000000  0.4916870000000  0.5113540000000 1.0
C      1  0.5195960000000  0.4269000000000  0.4210970000000 1.0
C      1  0.4968580000000  0.6079380000000  0.5697800000000 1.0
C      1  0.4817560000000  0.5033730000000  0.4678710000000 1.0
C      1  0.4925120000000  0.5513770000000  0.4899050000000 1.0
C      1  0.5084380000000  0.6040400000000  0.4701990000000 1.0
C      1  0.5156750000000  0.4021310000000  0.5591320000000 1.0
C      1  0.4821460000000  0.4344510000000  0.5615310000000 1.0
C      1  0.3980950000000  0.5440620000000  0.4986660000000 1.0
C      1  0.5248120000000  0.4771660000000  0.5560620000000 1.0
C      1  0.3973600000000  0.4389480000000  0.5135000000000 1.0
C      1  0.6105140000000  0.5446900000000  0.4844330000000 1.0
C      1  0.6003170000000  0.5019020000000  0.4836200000000 1.0
C      1  0.4563080000000  0.3921500000000  0.5179460000000 1.0
C      1  0.5100290000000  0.6074930000000  0.4992730000000 1.0
C      1  0.5812180000000  0.4669170000000  0.5010420000000 1.0
C      1  0.5241610000000  0.3888110000000  0.4568610000000 1.0
C      1  0.5893330000000  0.5614290000000  0.4739090000000 1.0
C      1  0.4857370000000  0.4244470000000  0.4988570000000 1.0
C      1  0.5717730000000  0.4733770000000  0.5786910000000 1.0
C      1  0.4775720000000  0.4942990000000  0.5617580000000 1.0
C      1  0.4917310000000  0.5283220000000  0.5091210000000 1.0
C      1  0.5227420000000  0.5517990000000  0.5942470000000 1.0
C      1  0.4320450000000  0.4115950000000  0.4771780000000 1.0
C      1  0.5063020000000  0.5258080000000  0.5368640000000 1.0
C      1  0.5099230000000  0.4860510000000  0.3857880000000 1.0
C      1  0.4461470000000  0.5349220000000  0.5420460000000 1.0
C      1  0.4247630000000  0.4196220000000  0.3670410000000 1.0
C      1  0.5031580000000  0.4581180000000  0.5200780000000 1.0
C      1  0.3733950000000  0.4817480000000  0.5315590000000 1.0
C      1  0.5392460000000  0.5201060000000  0.5057990000000 1.0
C      1  0.4367870000000  0.5060750000000  0.4674580000000 1.0
C      1  0.4673690000000  0.4332540000000  0.4519950000000 1.0
C      1  0.6026110000000  0.5075280000000  0.5132050000000 1.0
C      1  0.5493130000000  0.5394340000000  0.5947850000000 1.0
C      1  0.4724190000000  0.3879670000000  0.4726450000000 1.0
C      1  0.5067200000000  0.5850740000000  0.5176540000000 1.0
C      1  0.5915220000000  0.4826860000000  0.5256220000000 1.0
C      1  0.4176880000000  0.4397100000000  0.4374510000000 1.0
C      1  0.5552630000000  0.4649030000000  0.3884980000000 1.0
C      1  0.5301010000000  0.5677120000000  0.5235290000000 1.0
C      1  0.5910150000000  0.5514440000000  0.5610150000000 1.0
C      1  0.5146630000000  0.5482510000000  0.4723310000000 1.0
C      1  0.4190930000000  0.5740730000000  0.4744440000000 1.0
C      1  0.5083580000000  0.4654400000000  0.4615680000000 1.0
C      1  0.5438510000000  0.4742740000000  0.5336420000000 1.0
C      1  0.5663140000000  0.4258300000000  0.4777620000000 1.0
C      1  0.4863190000000  0.4539270000000  0.5419470000000 1.0
END
