TITL C-247201-3759-317 -2.63754454817801e-07 125000 -533.976035287249 0 0 87 (C1) n - 1
REM
REM in /home/nfs/bkarasulu/CARBON/AIRSS/Generating-Clusters/LCBOP/Only-C1/SD-CG/FIRE-HFTN
REM
REM
REM
REM
REM
REM ./C.cell (11c1c37f851c82e70ff6c80c92926a4b)
REM AIRSS Version 0.9.1 bugfix July 2018 build 013d7b7c2542+ Fri, 06 Jul 2018 19:26:36 +0100
REM compiler GCC version 9.2.1 20190827 (Red Hat 9.2.1-1)
REM options -cpp -mtune=generic -march=x86-64 -g -O0 -fpre-include=/usr/include/finclude/math-vector-fortran.h
REM seed 66900825 115152568 205496670 2136322984 -1848080448 -751813761 1809449600 1277867216 -1003238994 2124427559 177320140 580753626 1963353093 -1755598618 1250209701 701876144 -932904989 -1834534476 -2020421493 711831066 -1507217747 2036019326 -971763708 287841545 1339803910 1885230094 2105496795 1586819409 958971397 -19498132 -1986546113 480808124 630585336
REM
CELL 1.54180   50.00000   50.00000   50.00000   90.00000   90.00000   90.00000
LATT -1
SFAC C  
C      1  0.5216070000000  0.4495760000000  0.4269800000000 1.0
C      1  0.4151300000000  0.4731710000000  0.4924850000000 1.0
C      1  0.5693270000000  0.4520740000000  0.5184750000000 1.0
C      1  0.5187870000000  0.4381450000000  0.5004800000000 1.0
C      1  0.5533100000000  0.4990240000000  0.4872000000000 1.0
C      1  0.5008590000000  0.5037630000000  0.5242860000000 1.0
C      1  0.4632310000000  0.4856040000000  0.5048030000000 1.0
C      1  0.5727800000000  0.4481640000000  0.4889140000000 1.0
C      1  0.5279630000000  0.5616160000000  0.5519930000000 1.0
C      1  0.6433140000000  0.4659350000000  0.4750800000000 1.0
C      1  0.5226200000000  0.4300850000000  0.5278740000000 1.0
C      1  0.4197720000000  0.4867600000000  0.5493820000000 1.0
C      1  0.5451780000000  0.4471050000000  0.5360290000000 1.0
C      1  0.4743880000000  0.4189690000000  0.4775190000000 1.0
C      1  0.5284210000000  0.4753930000000  0.4137940000000 1.0
C      1  0.4801740000000  0.5847430000000  0.4941490000000 1.0
C      1  0.4590620000000  0.5059960000000  0.4205680000000 1.0
C      1  0.5896850000000  0.4691300000000  0.4778910000000 1.0
C      1  0.5495530000000  0.5150660000000  0.5121750000000 1.0
C      1  0.5540830000000  0.4348330000000  0.4688990000000 1.0
C      1  0.4297930000000  0.5119710000000  0.5412690000000 1.0
C      1  0.5795100000000  0.4784730000000  0.5294460000000 1.0
C      1  0.5378110000000  0.4939120000000  0.4338780000000 1.0
C      1  0.4196490000000  0.5453520000000  0.4765180000000 1.0
C      1  0.5425140000000  0.5882840000000  0.5141040000000 1.0
C      1  0.4976790000000  0.5708000000000  0.5130430000000 1.0
C      1  0.4683690000000  0.4610770000000  0.5723150000000 1.0
C      1  0.4812170000000  0.4316370000000  0.4524510000000 1.0
C      1  0.5607870000000  0.5437010000000  0.5170590000000 1.0
C      1  0.5534660000000  0.5197070000000  0.5594080000000 1.0
C      1  0.5128010000000  0.4788130000000  0.5249140000000 1.0
C      1  0.5509940000000  0.5646050000000  0.4989350000000 1.0
C      1  0.4482490000000  0.5664420000000  0.5430960000000 1.0
C      1  0.5177380000000  0.5229940000000  0.5148090000000 1.0
C      1  0.4470430000000  0.5031280000000  0.4662720000000 1.0
C      1  0.4634670000000  0.4618380000000  0.4933800000000 1.0
C      1  0.6173350000000  0.4674950000000  0.4763960000000 1.0
C      1  0.4247040000000  0.4982520000000  0.4838110000000 1.0
C      1  0.5193040000000  0.4921480000000  0.4559060000000 1.0
C      1  0.4905560000000  0.5344460000000  0.4629080000000 1.0
C      1  0.5563510000000  0.4971270000000  0.5384890000000 1.0
C      1  0.5196140000000  0.5803690000000  0.5309830000000 1.0
C      1  0.4201550000000  0.5304690000000  0.5219570000000 1.0
C      1  0.4699960000000  0.5553010000000  0.4251780000000 1.0
C      1  0.4714020000000  0.5309180000000  0.4119010000000 1.0
C      1  0.4841420000000  0.4408970000000  0.5847490000000 1.0
C      1  0.4791810000000  0.4780450000000  0.4311560000000 1.0
C      1  0.5124830000000  0.5439190000000  0.5703270000000 1.0
C      1  0.5293130000000  0.4846400000000  0.4807180000000 1.0
C      1  0.4554080000000  0.4513840000000  0.5473550000000 1.0
C      1  0.4389100000000  0.5149130000000  0.4408870000000 1.0
C      1  0.4293040000000  0.4616870000000  0.5391030000000 1.0
C      1  0.4144210000000  0.5227350000000  0.4943410000000 1.0
C      1  0.5742020000000  0.4916490000000  0.4688400000000 1.0
C      1  0.4579160000000  0.5130510000000  0.5439390000000 1.0
C      1  0.5292860000000  0.5547610000000  0.4819860000000 1.0
C      1  0.4550940000000  0.5617050000000  0.4492220000000 1.0
C      1  0.4717360000000  0.5144040000000  0.5687350000000 1.0
C      1  0.4318050000000  0.5424970000000  0.4501590000000 1.0
C      1  0.5488210000000  0.4427760000000  0.4409960000000 1.0
C      1  0.5099300000000  0.5468680000000  0.5029930000000 1.0
C      1  0.4332650000000  0.5570790000000  0.5211120000000 1.0
C      1  0.5307320000000  0.5222070000000  0.5773310000000 1.0
C      1  0.4669180000000  0.5614690000000  0.5619970000000 1.0
C      1  0.4978500000000  0.4227930000000  0.5699180000000 1.0
C      1  0.4732990000000  0.5039650000000  0.5226230000000 1.0
C      1  0.4591400000000  0.5726290000000  0.4778500000000 1.0
C      1  0.5697250000000  0.4611050000000  0.4316910000000 1.0
C      1  0.4726970000000  0.4334690000000  0.5296610000000 1.0
C      1  0.4918230000000  0.4910690000000  0.4531330000000 1.0
C      1  0.4758410000000  0.5100320000000  0.4666430000000 1.0
C      1  0.4837520000000  0.6119780000000  0.4914390000000 1.0
C      1  0.4982260000000  0.4245100000000  0.5416320000000 1.0
C      1  0.5351950000000  0.4747090000000  0.5420620000000 1.0
C      1  0.4355410000000  0.5643130000000  0.4931440000000 1.0
C      1  0.4723500000000  0.3917140000000  0.4791180000000 1.0
C      1  0.4177760000000  0.4563710000000  0.5136040000000 1.0
C      1  0.5656810000000  0.4884890000000  0.4412520000000 1.0
C      1  0.5168790000000  0.4667480000000  0.4989270000000 1.0
C      1  0.4693300000000  0.4354770000000  0.5006130000000 1.0
C      1  0.4725830000000  0.4883860000000  0.5801620000000 1.0
C      1  0.5539450000000  0.5467030000000  0.5457400000000 1.0
C      1  0.4841280000000  0.5405490000000  0.5713370000000 1.0
C      1  0.5536370000000  0.6130440000000  0.5128280000000 1.0
C      1  0.4919760000000  0.4501870000000  0.4331060000000 1.0
C      1  0.5143660000000  0.5476240000000  0.4590720000000 1.0
C      1  0.5316460000000  0.4230400000000  0.4810980000000 1.0
END
