TITL C-247202-1916-603 0.235779752510495 125000 -459.407359392601 0 0 76 (C1) n - 1
REM
REM in /home/nfs/bkarasulu/CARBON/AIRSS/Generating-Clusters/LCBOP/Only-C1/SD-CG/FIRE-HFTN
REM
REM
REM
REM
REM
REM ./C.cell (11c1c37f851c82e70ff6c80c92926a4b)
REM AIRSS Version 0.9.1 bugfix July 2018 build 013d7b7c2542+ Fri, 06 Jul 2018 19:26:36 +0100
REM compiler GCC version 9.2.1 20190827 (Red Hat 9.2.1-1)
REM options -cpp -mtune=generic -march=x86-64 -g -O0 -fpre-include=/usr/include/finclude/math-vector-fortran.h
REM seed 803494927 195338155 744765968 1954633689 804663915 1111856394 -1389031954 -2088299565 164691853 -1167994879 -602970511 -1176096015 -1158551852 -676819536 -432807673 675816864 -453999503 1279991913 585043831 -401817885 539024564 -122899554 1533971909 2005307574 -1860684588 887163479 -765743625 1342917397 1999538629 -50574054 1332535472 1728245221 1328416999
REM
CELL 1.54180   50.00000   50.00000   50.00000   90.00000   90.00000   90.00000
LATT -1
SFAC C  
C      1  0.4904090000000  0.4249820000000  0.3684740000000 1.0
C      1  0.4835340000000  0.5755170000000  0.5215000000000 1.0
C      1  0.4171000000000  0.5609820000000  0.5320280000000 1.0
C      1  0.5092360000000  0.3903430000000  0.3995600000000 1.0
C      1  0.4118860000000  0.4538840000000  0.4850010000000 1.0
C      1  0.4861530000000  0.4332240000000  0.4136280000000 1.0
C      1  0.4292140000000  0.4838810000000  0.5419240000000 1.0
C      1  0.4559120000000  0.4346950000000  0.5051430000000 1.0
C      1  0.4943720000000  0.4959820000000  0.4852490000000 1.0
C      1  0.5120790000000  0.5194800000000  0.5583050000000 1.0
C      1  0.4007620000000  0.5759850000000  0.5478350000000 1.0
C      1  0.6103350000000  0.5138070000000  0.5275470000000 1.0
C      1  0.6153060000000  0.4792140000000  0.4897320000000 1.0
C      1  0.4819020000000  0.4273520000000  0.4943670000000 1.0
C      1  0.5167290000000  0.5495470000000  0.4509010000000 1.0
C      1  0.6043250000000  0.4183850000000  0.5507060000000 1.0
C      1  0.5405600000000  0.4857220000000  0.4815050000000 1.0
C      1  0.4857440000000  0.4328260000000  0.5396770000000 1.0
C      1  0.4842130000000  0.5780830000000  0.5497050000000 1.0
C      1  0.5016390000000  0.4279780000000  0.5159330000000 1.0
C      1  0.4965900000000  0.4137310000000  0.3943250000000 1.0
C      1  0.4462820000000  0.5251500000000  0.4279060000000 1.0
C      1  0.6132510000000  0.4167400000000  0.5245220000000 1.0
C      1  0.5443790000000  0.5001410000000  0.5266770000000 1.0
C      1  0.4975440000000  0.5662350000000  0.5699980000000 1.0
C      1  0.4129110000000  0.5023300000000  0.5004620000000 1.0
C      1  0.6012850000000  0.5160100000000  0.5524450000000 1.0
C      1  0.4774010000000  0.4491780000000  0.3712540000000 1.0
C      1  0.4918240000000  0.5576350000000  0.4406780000000 1.0
C      1  0.4620680000000  0.4785570000000  0.4092220000000 1.0
C      1  0.6155470000000  0.5013300000000  0.5046220000000 1.0
C      1  0.4339990000000  0.5179210000000  0.4885990000000 1.0
C      1  0.4740250000000  0.4557500000000  0.3992110000000 1.0
C      1  0.5217400000000  0.5221960000000  0.4546080000000 1.0
C      1  0.4660910000000  0.5785450000000  0.4763410000000 1.0
C      1  0.4876530000000  0.4301700000000  0.4411600000000 1.0
C      1  0.5297120000000  0.5687930000000  0.4667830000000 1.0
C      1  0.5815530000000  0.4819130000000  0.5801460000000 1.0
C      1  0.4775230000000  0.4999200000000  0.5069760000000 1.0
C      1  0.5229190000000  0.5826100000000  0.4903570000000 1.0
C      1  0.4671150000000  0.5622440000000  0.4530980000000 1.0
C      1  0.4550270000000  0.4711390000000  0.5390830000000 1.0
C      1  0.4188650000000  0.5628630000000  0.4844290000000 1.0
C      1  0.5754450000000  0.4426780000000  0.5246970000000 1.0
C      1  0.5229500000000  0.5443120000000  0.5193710000000 1.0
C      1  0.5890240000000  0.5087310000000  0.5766250000000 1.0
C      1  0.4138860000000  0.5054520000000  0.5293930000000 1.0
C      1  0.5842860000000  0.5272950000000  0.5960990000000 1.0
C      1  0.5106300000000  0.5429500000000  0.5745790000000 1.0
C      1  0.5506130000000  0.4520740000000  0.5156660000000 1.0
C      1  0.4459440000000  0.5435070000000  0.4488810000000 1.0
C      1  0.4312650000000  0.5716050000000  0.5089910000000 1.0
C      1  0.4597420000000  0.4439560000000  0.5328140000000 1.0
C      1  0.5982010000000  0.4348470000000  0.5076200000000 1.0
C      1  0.4783060000000  0.4880570000000  0.5334830000000 1.0
C      1  0.5292020000000  0.6094420000000  0.4941330000000 1.0
C      1  0.4872190000000  0.4253720000000  0.4672250000000 1.0
C      1  0.6088310000000  0.4532750000000  0.4896440000000 1.0
C      1  0.5285090000000  0.4347600000000  0.5142340000000 1.0
C      1  0.5826230000000  0.4374700000000  0.5527660000000 1.0
C      1  0.4656280000000  0.5253030000000  0.5558490000000 1.0
C      1  0.4288810000000  0.5397650000000  0.4711920000000 1.0
C      1  0.5474040000000  0.4792520000000  0.5080770000000 1.0
C      1  0.5287350000000  0.5216890000000  0.5352700000000 1.0
C      1  0.5787880000000  0.4565810000000  0.5725100000000 1.0
C      1  0.4509030000000  0.5305860000000  0.5326920000000 1.0
C      1  0.5341810000000  0.6346960000000  0.4982040000000 1.0
C      1  0.4319190000000  0.4374860000000  0.4914000000000 1.0
C      1  0.4571230000000  0.5196860000000  0.5062250000000 1.0
C      1  0.4223700000000  0.5330610000000  0.5363760000000 1.0
C      1  0.4870920000000  0.5066390000000  0.5540120000000 1.0
C      1  0.4034690000000  0.4790280000000  0.4883740000000 1.0
C      1  0.5092570000000  0.5674010000000  0.5102490000000 1.0
C      1  0.4523040000000  0.5023420000000  0.4157360000000 1.0
C      1  0.4599910000000  0.5776730000000  0.5045130000000 1.0
C      1  0.5185610000000  0.5000560000000  0.4714770000000 1.0
END
