TITL C-247200-3482-460 558.894467651883 125000 -1238.2191606178 0 0 196 (C1) n - 1
REM
REM in /home/nfs/bkarasulu/CARBON/AIRSS/Generating-Clusters/LCBOP/Only-C1/SD-CG/FIRE-HFTN
REM
REM
REM
REM
REM
REM ./C.cell (11c1c37f851c82e70ff6c80c92926a4b)
REM AIRSS Version 0.9.1 bugfix July 2018 build 013d7b7c2542+ Fri, 06 Jul 2018 19:26:36 +0100
REM compiler GCC version 9.2.1 20190827 (Red Hat 9.2.1-1)
REM options -cpp -mtune=generic -march=x86-64 -g -O0 -fpre-include=/usr/include/finclude/math-vector-fortran.h
REM seed 921931037 -1748326668 -735149156 -995667425 -1560108975 -275574662 870728025 -1496176934 -404348167 -2133218110 -1243361724 -1423986096 -1436476808 1475067634 -936226612 -1759546920 1493823954 1825455077 90284156 -113423119 -880210775 1172150594 -829344543 -1897032116 1241068995 -119217987 -1220512321 -1429005763 -770683392 1420165051 -1877113684 1540387617 1703105029
REM
CELL 1.54180   50.00000   50.00000   50.00000   90.00000   90.00000   90.00000
LATT -1
SFAC C  
C      1  0.5138680000000  0.4832210000000  0.3807800000000 1.0
C      1  0.4896690000000  0.4436090000000  0.4123680000000 1.0
C      1  0.4724070000000  0.6183600000000  0.4918470000000 1.0
C      1  0.4752170000000  0.5011030000000  0.5642180000000 1.0
C      1  0.5494600000000  0.5845570000000  0.5656380000000 1.0
C      1  0.3910530000000  0.4762140000000  0.4985420000000 1.0
C      1  0.4641590000000  0.5355980000000  0.6122200000000 1.0
C      1  0.4175630000000  0.4842750000000  0.5499610000000 1.0
C      1  0.4378180000000  0.4453450000000  0.6028790000000 1.0
C      1  0.5386680000000  0.3999810000000  0.4958550000000 1.0
C      1  0.5600090000000  0.5988850000000  0.5050430000000 1.0
C      1  0.4468950000000  0.5901730000000  0.5390650000000 1.0
C      1  0.5149860000000  0.6264950000000  0.4599810000000 1.0
C      1  0.4415770000000  0.4108120000000  0.4601320000000 1.0
C      1  0.4006920000000  0.4740380000000  0.4708910000000 1.0
C      1  0.4685500000000  0.4918180000000  0.5170630000000 1.0
C      1  0.4789000000000  0.5029790000000  0.4912180000000 1.0
C      1  0.6070850000000  0.6072890000000  0.5153230000000 1.0
C      1  0.3920170000000  0.5260890000000  0.4469470000000 1.0
C      1  0.4284350000000  0.5547100000000  0.3617310000000 1.0
C      1  0.5869360000000  0.5694330000000  0.5407140000000 1.0
C      1  0.4899950000000  0.4924950000000  0.5385900000000 1.0
C      1  0.4572310000000  0.4566310000000  0.5632090000000 1.0
C      1  0.5177250000000  0.4957930000000  0.5295210000000 1.0
C      1  0.5939490000000  0.4114270000000  0.4968730000000 1.0
C      1  0.4433600000000  0.4349260000000  0.4125000000000 1.0
C      1  0.5625180000000  0.5422520000000  0.4548710000000 1.0
C      1  0.5367000000000  0.4266740000000  0.4828910000000 1.0
C      1  0.6078040000000  0.4870980000000  0.5627280000000 1.0
C      1  0.4543760000000  0.4216340000000  0.4366470000000 1.0
C      1  0.3997030000000  0.4499460000000  0.5116720000000 1.0
C      1  0.5615260000000  0.5477080000000  0.4270040000000 1.0
C      1  0.5733230000000  0.3989220000000  0.4506520000000 1.0
C      1  0.5109990000000  0.5506950000000  0.5399510000000 1.0
C      1  0.4767660000000  0.5799920000000  0.4078780000000 1.0
C      1  0.5451960000000  0.6078950000000  0.4571140000000 1.0
C      1  0.4214850000000  0.6215350000000  0.5746720000000 1.0
C      1  0.5307980000000  0.5075830000000  0.5518240000000 1.0
C      1  0.6242130000000  0.4800920000000  0.4928820000000 1.0
C      1  0.5431120000000  0.5688210000000  0.4167940000000 1.0
C      1  0.5672950000000  0.5008390000000  0.6098210000000 1.0
C      1  0.6140730000000  0.4231520000000  0.5387610000000 1.0
C      1  0.5638190000000  0.6094070000000  0.4779490000000 1.0
C      1  0.4601260000000  0.5250990000000  0.5537320000000 1.0
C      1  0.5466270000000  0.4594080000000  0.5256980000000 1.0
C      1  0.5895070000000  0.4580660000000  0.4450230000000 1.0
C      1  0.4493510000000  0.4001620000000  0.5095400000000 1.0
C      1  0.5790100000000  0.5334100000000  0.5082870000000 1.0
C      1  0.5130360000000  0.5335820000000  0.4520770000000 1.0
C      1  0.5504140000000  0.4050080000000  0.4345540000000 1.0
C      1  0.4735780000000  0.5083230000000  0.4093280000000 1.0
C      1  0.5090560000000  0.5902830000000  0.5014910000000 1.0
C      1  0.5104740000000  0.6055540000000  0.4303440000000 1.0
C      1  0.5193730000000  0.5319580000000  0.5625000000000 1.0
C      1  0.5863080000000  0.5157120000000  0.4870930000000 1.0
C      1  0.4827390000000  0.4483740000000  0.5539230000000 1.0
C      1  0.5677910000000  0.5249120000000  0.4106970000000 1.0
C      1  0.4163860000000  0.4427870000000  0.4126360000000 1.0
C      1  0.4822230000000  0.5443220000000  0.5922080000000 1.0
C      1  0.5006200000000  0.3713320000000  0.5057440000000 1.0
C      1  0.4544800000000  0.4281970000000  0.6180240000000 1.0
C      1  0.5302030000000  0.3968390000000  0.5667460000000 1.0
C      1  0.4045640000000  0.5035110000000  0.4353880000000 1.0
C      1  0.3945480000000  0.5160840000000  0.5802230000000 1.0
C      1  0.4431810000000  0.5555960000000  0.4533480000000 1.0
C      1  0.4045140000000  0.5727700000000  0.5198700000000 1.0
C      1  0.4025560000000  0.5920440000000  0.4979770000000 1.0
C      1  0.5547420000000  0.5483190000000  0.5035050000000 1.0
C      1  0.5020510000000  0.5463820000000  0.4741460000000 1.0
C      1  0.5434880000000  0.4767910000000  0.4840430000000 1.0
C      1  0.5020940000000  0.4389570000000  0.5113260000000 1.0
C      1  0.3986340000000  0.5329630000000  0.6003870000000 1.0
C      1  0.5337920000000  0.5958740000000  0.5166400000000 1.0
C      1  0.3918160000000  0.5047650000000  0.5069440000000 1.0
C      1  0.4006000000000  0.4363290000000  0.5647430000000 1.0
C      1  0.4343480000000  0.5276170000000  0.5082320000000 1.0
C      1  0.5354080000000  0.4820160000000  0.5110280000000 1.0
C      1  0.5378470000000  0.4569720000000  0.4148820000000 1.0
C      1  0.5333020000000  0.4617690000000  0.5704140000000 1.0
C      1  0.5130400000000  0.4856090000000  0.6229580000000 1.0
C      1  0.5925930000000  0.4094340000000  0.5261970000000 1.0
C      1  0.5197260000000  0.5539410000000  0.4017980000000 1.0
C      1  0.4928470000000  0.6327910000000  0.4761290000000 1.0
C      1  0.4653430000000  0.4907440000000  0.5902080000000 1.0
C      1  0.4335020000000  0.5039030000000  0.4354070000000 1.0
C      1  0.5020470000000  0.3784960000000  0.5330800000000 1.0
C      1  0.5536850000000  0.4499890000000  0.4778390000000 1.0
C      1  0.4938740000000  0.5640950000000  0.3894950000000 1.0
C      1  0.5089120000000  0.4336380000000  0.4843360000000 1.0
C      1  0.4340180000000  0.6071370000000  0.5569330000000 1.0
C      1  0.6177870000000  0.4549010000000  0.5031010000000 1.0
C      1  0.5296090000000  0.3859790000000  0.4369930000000 1.0
C      1  0.3970220000000  0.4566980000000  0.4249930000000 1.0
C      1  0.3898750000000  0.5493170000000  0.5292340000000 1.0
C      1  0.4710070000000  0.5495760000000  0.5659090000000 1.0
C      1  0.4551360000000  0.6013880000000  0.4743450000000 1.0
C      1  0.4173440000000  0.5644290000000  0.4622570000000 1.0
C      1  0.4555140000000  0.4640810000000  0.5175230000000 1.0
C      1  0.5292660000000  0.4377130000000  0.6078940000000 1.0
C      1  0.4102710000000  0.5227610000000  0.4924940000000 1.0
C      1  0.4514170000000  0.5662030000000  0.4056580000000 1.0
C      1  0.3946010000000  0.4411010000000  0.5385850000000 1.0
C      1  0.4154450000000  0.5473450000000  0.6153010000000 1.0
C      1  0.5673550000000  0.5155120000000  0.4652760000000 1.0
C      1  0.5094920000000  0.4668990000000  0.4075020000000 1.0
C      1  0.5333600000000  0.4636660000000  0.6237640000000 1.0
C      1  0.5082240000000  0.5407430000000  0.4260900000000 1.0
C      1  0.6058010000000  0.5059230000000  0.5814610000000 1.0
C      1  0.4970510000000  0.4907790000000  0.4489410000000 1.0
C      1  0.4921730000000  0.4893530000000  0.4217320000000 1.0
C      1  0.3993150000000  0.5057870000000  0.5546900000000 1.0
C      1  0.4750820000000  0.5898630000000  0.5362760000000 1.0
C      1  0.4416010000000  0.5499340000000  0.6204770000000 1.0
C      1  0.4649750000000  0.4468160000000  0.3961390000000 1.0
C      1  0.4682020000000  0.4660600000000  0.3748690000000 1.0
C      1  0.4289790000000  0.4761290000000  0.4738260000000 1.0
C      1  0.4865660000000  0.4886480000000  0.3707040000000 1.0
C      1  0.5471030000000  0.3949140000000  0.5229040000000 1.0
C      1  0.5986280000000  0.4678720000000  0.5448610000000 1.0
C      1  0.5439640000000  0.4300500000000  0.4226110000000 1.0
C      1  0.4568120000000  0.5542440000000  0.4782970000000 1.0
C      1  0.4492870000000  0.5547190000000  0.3789520000000 1.0
C      1  0.4896480000000  0.4391060000000  0.4646560000000 1.0
C      1  0.5862490000000  0.4666250000000  0.4186870000000 1.0
C      1  0.5047000000000  0.4206780000000  0.6016960000000 1.0
C      1  0.4876770000000  0.5680610000000  0.5500630000000 1.0
C      1  0.4222050000000  0.4368710000000  0.4970090000000 1.0
C      1  0.5190210000000  0.3804420000000  0.4860860000000 1.0
C      1  0.5716080000000  0.4636520000000  0.5376920000000 1.0
C      1  0.6094800000000  0.6207800000000  0.4919050000000 1.0
C      1  0.4828660000000  0.4305780000000  0.4381530000000 1.0
C      1  0.4779230000000  0.5145850000000  0.3810850000000 1.0
C      1  0.5182560000000  0.5099040000000  0.6070360000000 1.0
C      1  0.5401810000000  0.4893310000000  0.5709390000000 1.0
C      1  0.5856610000000  0.5193830000000  0.5960140000000 1.0
C      1  0.5672110000000  0.4085120000000  0.5395560000000 1.0
C      1  0.5999480000000  0.4383280000000  0.4882840000000 1.0
C      1  0.4141250000000  0.4374470000000  0.5883990000000 1.0
C      1  0.5562150000000  0.5008220000000  0.4005780000000 1.0
C      1  0.3886340000000  0.5196810000000  0.5319410000000 1.0
C      1  0.4707030000000  0.4575860000000  0.4744590000000 1.0
C      1  0.4024050000000  0.5400890000000  0.4694940000000 1.0
C      1  0.5780340000000  0.5458560000000  0.5852010000000 1.0
C      1  0.5286640000000  0.3830410000000  0.5416720000000 1.0
C      1  0.4496040000000  0.5143940000000  0.5279290000000 1.0
C      1  0.5533270000000  0.5577640000000  0.4766810000000 1.0
C      1  0.5724420000000  0.5673120000000  0.5659650000000 1.0
C      1  0.4450690000000  0.5533700000000  0.5040290000000 1.0
C      1  0.4342920000000  0.4119690000000  0.4883040000000 1.0
C      1  0.5042200000000  0.4048800000000  0.5763730000000 1.0
C      1  0.4853330000000  0.6028560000000  0.5131340000000 1.0
C      1  0.4742080000000  0.4870120000000  0.4668070000000 1.0
C      1  0.4442480000000  0.4572960000000  0.4908580000000 1.0
C      1  0.5349710000000  0.5964720000000  0.5456670000000 1.0
C      1  0.5892100000000  0.6215900000000  0.4739060000000 1.0
C      1  0.6166800000000  0.4504640000000  0.5314100000000 1.0
C      1  0.5462630000000  0.4392080000000  0.5832930000000 1.0
C      1  0.4529600000000  0.4652400000000  0.5892680000000 1.0
C      1  0.5369520000000  0.5542940000000  0.5243390000000 1.0
C      1  0.4763240000000  0.5430300000000  0.3754500000000 1.0
C      1  0.4858800000000  0.5925950000000  0.4314690000000 1.0
C      1  0.5601950000000  0.4749380000000  0.4110730000000 1.0
C      1  0.5433040000000  0.5027940000000  0.5950290000000 1.0
C      1  0.4508310000000  0.5203900000000  0.4213680000000 1.0
C      1  0.4215040000000  0.5899810000000  0.4760940000000 1.0
C      1  0.5078180000000  0.5313510000000  0.5900370000000 1.0
C      1  0.5280220000000  0.5328060000000  0.3815240000000 1.0
C      1  0.5855610000000  0.3955900000000  0.4747280000000 1.0
C      1  0.5229210000000  0.4441610000000  0.5304030000000 1.0
C      1  0.4775610000000  0.5873700000000  0.4588240000000 1.0
C      1  0.4664850000000  0.4107900000000  0.5299150000000 1.0
C      1  0.5108670000000  0.4518370000000  0.5556190000000 1.0
C      1  0.5838780000000  0.5921730000000  0.5222340000000 1.0
C      1  0.5335590000000  0.5048900000000  0.3835130000000 1.0
C      1  0.4388700000000  0.4665900000000  0.5432390000000 1.0
C      1  0.6069860000000  0.4666080000000  0.4009280000000 1.0
C      1  0.4919160000000  0.5281450000000  0.4933760000000 1.0
C      1  0.4754080000000  0.4396660000000  0.5250980000000 1.0
C      1  0.5947130000000  0.5449530000000  0.5284700000000 1.0
C      1  0.4473960000000  0.5479980000000  0.4268880000000 1.0
C      1  0.5177870000000  0.3753450000000  0.4586140000000 1.0
C      1  0.3939430000000  0.4777870000000  0.4434190000000 1.0
C      1  0.5444160000000  0.4982020000000  0.4660020000000 1.0
C      1  0.4841090000000  0.3961000000000  0.5476110000000 1.0
C      1  0.4334770000000  0.5715470000000  0.5228580000000 1.0
C      1  0.4458440000000  0.4916600000000  0.4573470000000 1.0
C      1  0.5531270000000  0.4158780000000  0.5665520000000 1.0
C      1  0.4624760000000  0.5074060000000  0.6126070000000 1.0
C      1  0.5612420000000  0.4763620000000  0.6255700000000 1.0
C      1  0.5811490000000  0.4490550000000  0.4699810000000 1.0
C      1  0.4959670000000  0.5362020000000  0.5191810000000 1.0
C      1  0.6105560000000  0.5021250000000  0.4867030000000 1.0
C      1  0.4806630000000  0.4217530000000  0.6167160000000 1.0
C      1  0.4990460000000  0.5749820000000  0.4770990000000 1.0
C      1  0.5369380000000  0.5933100000000  0.4320950000000 1.0
C      1  0.5194950000000  0.5063790000000  0.4558000000000 1.0
END
