TITL C-247201-3759-433 180.621298359547 125000 -624.097593733778 0 0 106 (C1) n - 1
REM
REM in /home/nfs/bkarasulu/CARBON/AIRSS/Generating-Clusters/LCBOP/Only-C1/SD-CG/FIRE-HFTN
REM
REM
REM
REM
REM
REM ./C.cell (11c1c37f851c82e70ff6c80c92926a4b)
REM AIRSS Version 0.9.1 bugfix July 2018 build 013d7b7c2542+ Fri, 06 Jul 2018 19:26:36 +0100
REM compiler GCC version 9.2.1 20190827 (Red Hat 9.2.1-1)
REM options -cpp -mtune=generic -march=x86-64 -g -O0 -fpre-include=/usr/include/finclude/math-vector-fortran.h
REM seed -270473231 -224130454 -748890490 -339826841 -805782488 336516507 1910896616 -1543506651 1651567832 -409075831 694760773 -1133080430 276024899 1437121282 119573845 -303057450 -224628773 1791207099 -1791032577 -2061234728 39256733 -492836045 -168756492 -231113823 -943007938 1836719293 1723269212 -1090575661 -1826067964 -1032210953 -1805657985 -2100325767 990174996
REM
CELL 1.54180   50.00000   50.00000   50.00000   90.00000   90.00000   90.00000
LATT -1
SFAC C  
C      1  0.4833870000000  0.4489440000000  0.5807670000000 1.0
C      1  0.4303630000000  0.5145410000000  0.5197110000000 1.0
C      1  0.4434940000000  0.5638150000000  0.5314180000000 1.0
C      1  0.5665380000000  0.4875890000000  0.4430960000000 1.0
C      1  0.5735720000000  0.5283270000000  0.5969110000000 1.0
C      1  0.4820020000000  0.5184350000000  0.4698990000000 1.0
C      1  0.5948730000000  0.4461320000000  0.5078040000000 1.0
C      1  0.4555400000000  0.4365170000000  0.4791660000000 1.0
C      1  0.4454630000000  0.4430550000000  0.4146860000000 1.0
C      1  0.4623230000000  0.5105050000000  0.4221800000000 1.0
C      1  0.5467620000000  0.5490410000000  0.4895450000000 1.0
C      1  0.4617450000000  0.5143630000000  0.4500030000000 1.0
C      1  0.5299540000000  0.5339980000000  0.5426620000000 1.0
C      1  0.5598130000000  0.4282640000000  0.4705960000000 1.0
C      1  0.4860180000000  0.4751860000000  0.5315670000000 1.0
C      1  0.4543390000000  0.4881310000000  0.4060350000000 1.0
C      1  0.4963030000000  0.3962270000000  0.5054500000000 1.0
C      1  0.4945930000000  0.5077020000000  0.3893740000000 1.0
C      1  0.4472800000000  0.4449100000000  0.5375690000000 1.0
C      1  0.5697110000000  0.5345800000000  0.6223550000000 1.0
C      1  0.4719520000000  0.5965200000000  0.5137290000000 1.0
C      1  0.4787910000000  0.5279610000000  0.4064060000000 1.0
C      1  0.4775350000000  0.5861710000000  0.4609360000000 1.0
C      1  0.4686470000000  0.5641940000000  0.4419670000000 1.0
C      1  0.4544340000000  0.4137620000000  0.4934810000000 1.0
C      1  0.4864900000000  0.5525120000000  0.4198290000000 1.0
C      1  0.4907290000000  0.4699420000000  0.4399650000000 1.0
C      1  0.6073250000000  0.5176670000000  0.4252550000000 1.0
C      1  0.4719480000000  0.4075730000000  0.5150500000000 1.0
C      1  0.5668850000000  0.5516030000000  0.5068160000000 1.0
C      1  0.4659900000000  0.4603890000000  0.4850330000000 1.0
C      1  0.5219690000000  0.5015840000000  0.3996460000000 1.0
C      1  0.5543050000000  0.5008910000000  0.4966270000000 1.0
C      1  0.4313220000000  0.5681070000000  0.5548910000000 1.0
C      1  0.5262140000000  0.5234390000000  0.4190240000000 1.0
C      1  0.5193850000000  0.4731870000000  0.4954440000000 1.0
C      1  0.4625910000000  0.5893710000000  0.4862500000000 1.0
C      1  0.5249670000000  0.5768440000000  0.4587100000000 1.0
C      1  0.5880270000000  0.5024360000000  0.4338930000000 1.0
C      1  0.5764210000000  0.5220320000000  0.5698890000000 1.0
C      1  0.5009570000000  0.5140180000000  0.5153210000000 1.0
C      1  0.4385530000000  0.5732460000000  0.4794440000000 1.0
C      1  0.4118380000000  0.4863040000000  0.4842470000000 1.0
C      1  0.5536570000000  0.4660700000000  0.4279580000000 1.0
C      1  0.4665980000000  0.4227430000000  0.5396450000000 1.0
C      1  0.4545450000000  0.5235170000000  0.5091970000000 1.0
C      1  0.5125040000000  0.4179620000000  0.5565630000000 1.0
C      1  0.5079090000000  0.5301680000000  0.4637830000000 1.0
C      1  0.5627450000000  0.4992830000000  0.5588540000000 1.0
C      1  0.4758920000000  0.4789860000000  0.5032410000000 1.0
C      1  0.4357730000000  0.5247750000000  0.4578860000000 1.0
C      1  0.5819660000000  0.5477010000000  0.5283950000000 1.0
C      1  0.5318350000000  0.6001680000000  0.4492230000000 1.0
C      1  0.5840500000000  0.4665640000000  0.5247980000000 1.0
C      1  0.5656890000000  0.5408720000000  0.6477870000000 1.0
C      1  0.4487400000000  0.5453660000000  0.5954030000000 1.0
C      1  0.5924900000000  0.5381720000000  0.5526340000000 1.0
C      1  0.4131620000000  0.4944550000000  0.5857300000000 1.0
C      1  0.4804400000000  0.5892950000000  0.5401420000000 1.0
C      1  0.5325720000000  0.4197570000000  0.5389640000000 1.0
C      1  0.4618210000000  0.4682190000000  0.5453890000000 1.0
C      1  0.4628030000000  0.5500240000000  0.5155300000000 1.0
C      1  0.4035910000000  0.5016320000000  0.5618620000000 1.0
C      1  0.4739670000000  0.4875030000000  0.3847930000000 1.0
C      1  0.5386580000000  0.4588260000000  0.5113040000000 1.0
C      1  0.5802460000000  0.4774070000000  0.5510930000000 1.0
C      1  0.4196800000000  0.4818700000000  0.4373350000000 1.0
C      1  0.5617240000000  0.5470650000000  0.6727990000000 1.0
C      1  0.4134410000000  0.4666040000000  0.5027810000000 1.0
C      1  0.4419730000000  0.5541170000000  0.4568680000000 1.0
C      1  0.5539190000000  0.4907000000000  0.4683530000000 1.0
C      1  0.5178770000000  0.5125440000000  0.4437910000000 1.0
C      1  0.4945120000000  0.4366900000000  0.3991470000000 1.0
C      1  0.5157160000000  0.5505970000000  0.4162620000000 1.0
C      1  0.5168210000000  0.4516650000000  0.3976550000000 1.0
C      1  0.5124900000000  0.4836250000000  0.5455510000000 1.0
C      1  0.5252660000000  0.5518590000000  0.4715570000000 1.0
C      1  0.4930470000000  0.5653910000000  0.5548490000000 1.0
C      1  0.5845300000000  0.4346390000000  0.4849660000000 1.0
C      1  0.4329930000000  0.5617870000000  0.5809230000000 1.0
C      1  0.5246390000000  0.5016980000000  0.5042180000000 1.0
C      1  0.5332470000000  0.4737100000000  0.4064790000000 1.0
C      1  0.5347880000000  0.5047180000000  0.5504960000000 1.0
C      1  0.5391550000000  0.4313360000000  0.5143440000000 1.0
C      1  0.4800070000000  0.4747140000000  0.5894850000000 1.0
C      1  0.4863580000000  0.4275680000000  0.5611780000000 1.0
C      1  0.4768580000000  0.5080390000000  0.4971910000000 1.0
C      1  0.5176380000000  0.3990890000000  0.4887090000000 1.0
C      1  0.4113740000000  0.5097220000000  0.5377130000000 1.0
C      1  0.4688660000000  0.4324390000000  0.4061740000000 1.0
C      1  0.5615640000000  0.4767550000000  0.5114110000000 1.0
C      1  0.4889570000000  0.5198670000000  0.5422580000000 1.0
C      1  0.4188530000000  0.4999350000000  0.4600850000000 1.0
C      1  0.4920330000000  0.5559610000000  0.5112060000000 1.0
C      1  0.5281040000000  0.4755350000000  0.4683770000000 1.0
C      1  0.4368820000000  0.4697870000000  0.4181490000000 1.0
C      1  0.5394310000000  0.4172550000000  0.4890680000000 1.0
C      1  0.5113350000000  0.4851670000000  0.4484650000000 1.0
C      1  0.4687030000000  0.5272230000000  0.5861290000000 1.0
C      1  0.5549260000000  0.4407000000000  0.4441010000000 1.0
C      1  0.6183420000000  0.5439830000000  0.5595600000000 1.0
C      1  0.4642420000000  0.4986960000000  0.5923510000000 1.0
C      1  0.4368610000000  0.4931380000000  0.5980420000000 1.0
C      1  0.4245070000000  0.4504090000000  0.5215150000000 1.0
C      1  0.5118520000000  0.5557440000000  0.5334580000000 1.0
C      1  0.4834850000000  0.5381760000000  0.5641790000000 1.0
END
