TITL C-247199-3331-77 580.660462444478 125000 -981.030509224617 0 0 161 (C1) n - 1
REM
REM in /home/nfs/bkarasulu/CARBON/AIRSS/Generating-Clusters/LCBOP/Only-C1/SD-CG/FIRE-HFTN
REM
REM
REM
REM
REM
REM ./C.cell (11c1c37f851c82e70ff6c80c92926a4b)
REM AIRSS Version 0.9.1 bugfix July 2018 build 013d7b7c2542+ Fri, 06 Jul 2018 19:26:36 +0100
REM compiler GCC version 9.2.1 20190827 (Red Hat 9.2.1-1)
REM options -cpp -mtune=generic -march=x86-64 -g -O0 -fpre-include=/usr/include/finclude/math-vector-fortran.h
REM seed -2123247908 -1429682243 164155186 136755489 1135511869 -154143455 73868866 -1205194910 1455626596 453170522 -213436933 -112687373 -836287699 645869562 -392860888 162141069 -2036999192 -786662022 1954498624 164654765 1145635559 1793970034 903925820 -2101640019 -1483996155 1738948378 -1578873374 -396457434 350471230 492361140 1027956080 -228221824 -703724962
REM
CELL 1.54180   50.00000   50.00000   50.00000   90.00000   90.00000   90.00000
LATT -1
SFAC C  
C      1  0.6415040000000  0.5574330000000  0.4355060000000 1.0
C      1  0.5293710000000  0.3835460000000  0.4485480000000 1.0
C      1  0.5366840000000  0.5048470000000  0.5801510000000 1.0
C      1  0.5608430000000  0.4707920000000  0.3926720000000 1.0
C      1  0.4833820000000  0.4938490000000  0.4878910000000 1.0
C      1  0.4895440000000  0.6071800000000  0.4642660000000 1.0
C      1  0.4200910000000  0.6032930000000  0.5167970000000 1.0
C      1  0.4979760000000  0.5179810000000  0.5540240000000 1.0
C      1  0.5723190000000  0.5414320000000  0.5331420000000 1.0
C      1  0.4682150000000  0.5993820000000  0.4471650000000 1.0
C      1  0.5871980000000  0.3364670000000  0.5483080000000 1.0
C      1  0.3171170000000  0.4603550000000  0.5268560000000 1.0
C      1  0.5182640000000  0.5610770000000  0.4880720000000 1.0
C      1  0.5040940000000  0.5012760000000  0.5056790000000 1.0
C      1  0.5537750000000  0.4973070000000  0.5353890000000 1.0
C      1  0.4851560000000  0.5652670000000  0.5815480000000 1.0
C      1  0.4898180000000  0.4137380000000  0.4310470000000 1.0
C      1  0.4068490000000  0.5420980000000  0.5209290000000 1.0
C      1  0.5451650000000  0.4353690000000  0.5836670000000 1.0
C      1  0.5603030000000  0.5204040000000  0.5185800000000 1.0
C      1  0.5346980000000  0.3859720000000  0.5368050000000 1.0
C      1  0.5335300000000  0.5948190000000  0.4391070000000 1.0
C      1  0.5406560000000  0.4823980000000  0.4784310000000 1.0
C      1  0.6089910000000  0.4865450000000  0.5176510000000 1.0
C      1  0.4922050000000  0.4913500000000  0.4396200000000 1.0
C      1  0.5366920000000  0.4056390000000  0.4322830000000 1.0
C      1  0.4626740000000  0.4800070000000  0.4041630000000 1.0
C      1  0.4541000000000  0.4694720000000  0.5239660000000 1.0
C      1  0.6172520000000  0.5482540000000  0.4329300000000 1.0
C      1  0.5281960000000  0.4801750000000  0.5919180000000 1.0
C      1  0.3601370000000  0.4920430000000  0.5340880000000 1.0
C      1  0.3872500000000  0.5042790000000  0.5788200000000 1.0
C      1  0.4044780000000  0.5949520000000  0.5386800000000 1.0
C      1  0.4186190000000  0.4974750000000  0.4293920000000 1.0
C      1  0.4332790000000  0.5194410000000  0.5887770000000 1.0
C      1  0.6214840000000  0.5296590000000  0.4971060000000 1.0
C      1  0.5631450000000  0.5754360000000  0.5670960000000 1.0
C      1  0.5062690000000  0.4780130000000  0.6410020000000 1.0
C      1  0.3634210000000  0.4518450000000  0.4171470000000 1.0
C      1  0.4334880000000  0.5751930000000  0.4197770000000 1.0
C      1  0.3814640000000  0.4660780000000  0.4303110000000 1.0
C      1  0.5607380000000  0.3839490000000  0.5470850000000 1.0
C      1  0.5658490000000  0.4165820000000  0.5829100000000 1.0
C      1  0.5516680000000  0.5736590000000  0.5925690000000 1.0
C      1  0.5214360000000  0.4592430000000  0.5475760000000 1.0
C      1  0.3741910000000  0.5026160000000  0.5117600000000 1.0
C      1  0.5307600000000  0.4575270000000  0.5747840000000 1.0
C      1  0.4597930000000  0.5592840000000  0.5924020000000 1.0
C      1  0.5394310000000  0.4662920000000  0.4338630000000 1.0
C      1  0.6032570000000  0.4604100000000  0.5071520000000 1.0
C      1  0.4034680000000  0.5817140000000  0.5619630000000 1.0
C      1  0.4895550000000  0.4796940000000  0.4131420000000 1.0
C      1  0.4295530000000  0.4587910000000  0.5126210000000 1.0
C      1  0.4705390000000  0.5528560000000  0.4719350000000 1.0
C      1  0.3820720000000  0.4875130000000  0.4896100000000 1.0
C      1  0.3278620000000  0.4231430000000  0.3911470000000 1.0
C      1  0.5161430000000  0.3928630000000  0.5189620000000 1.0
C      1  0.4132640000000  0.5645480000000  0.5800200000000 1.0
C      1  0.4595750000000  0.4948250000000  0.5339450000000 1.0
C      1  0.5528770000000  0.5250910000000  0.4908440000000 1.0
C      1  0.5120020000000  0.4018130000000  0.4926840000000 1.0
C      1  0.4350370000000  0.5877870000000  0.3954130000000 1.0
C      1  0.5849920000000  0.5095650000000  0.4237890000000 1.0
C      1  0.5307140000000  0.4649280000000  0.4588730000000 1.0
C      1  0.4724720000000  0.5060120000000  0.5563350000000 1.0
C      1  0.5922450000000  0.4819660000000  0.4306800000000 1.0
C      1  0.5036170000000  0.5169500000000  0.4428750000000 1.0
C      1  0.4458990000000  0.6125710000000  0.5227860000000 1.0
C      1  0.5934060000000  0.4298400000000  0.4719170000000 1.0
C      1  0.5595090000000  0.4204730000000  0.4403110000000 1.0
C      1  0.5254860000000  0.4839020000000  0.5028420000000 1.0
C      1  0.5600340000000  0.5012660000000  0.5631980000000 1.0
C      1  0.4733670000000  0.6098150000000  0.5188200000000 1.0
C      1  0.4230590000000  0.5946240000000  0.4643280000000 1.0
C      1  0.5453650000000  0.5348980000000  0.4289700000000 1.0
C      1  0.5475290000000  0.4338600000000  0.4896580000000 1.0
C      1  0.5289460000000  0.5739690000000  0.5108710000000 1.0
C      1  0.5176760000000  0.6120760000000  0.5365220000000 1.0
C      1  0.5294080000000  0.5563540000000  0.5330770000000 1.0
C      1  0.6060420000000  0.4922850000000  0.5454830000000 1.0
C      1  0.4250810000000  0.5298960000000  0.4633860000000 1.0
C      1  0.4574070000000  0.5079690000000  0.5796790000000 1.0
C      1  0.4319300000000  0.5472700000000  0.5274840000000 1.0
C      1  0.5719640000000  0.6291180000000  0.5037180000000 1.0
C      1  0.4449050000000  0.4334280000000  0.5496520000000 1.0
C      1  0.5657390000000  0.4249750000000  0.4682120000000 1.0
C      1  0.5143140000000  0.4386900000000  0.3999140000000 1.0
C      1  0.5540620000000  0.5577390000000  0.5469710000000 1.0
C      1  0.5305860000000  0.4979060000000  0.3654940000000 1.0
C      1  0.4415350000000  0.5898580000000  0.4433300000000 1.0
C      1  0.5148200000000  0.4177400000000  0.4183390000000 1.0
C      1  0.5342580000000  0.4792690000000  0.3852330000000 1.0
C      1  0.4147350000000  0.5987180000000  0.4894750000000 1.0
C      1  0.4339080000000  0.5480030000000  0.5895540000000 1.0
C      1  0.3454790000000  0.4373980000000  0.4040350000000 1.0
C      1  0.5337620000000  0.5408110000000  0.4757720000000 1.0
C      1  0.5915260000000  0.5382780000000  0.4297030000000 1.0
C      1  0.5740760000000  0.3594690000000  0.5475140000000 1.0
C      1  0.4216070000000  0.4598870000000  0.4854170000000 1.0
C      1  0.5876860000000  0.4246890000000  0.5401860000000 1.0
C      1  0.4677390000000  0.4482640000000  0.5390580000000 1.0
C      1  0.4117900000000  0.5010220000000  0.5919320000000 1.0
C      1  0.4284340000000  0.4510110000000  0.5952690000000 1.0
C      1  0.5048070000000  0.5299400000000  0.5283570000000 1.0
C      1  0.4020190000000  0.4766350000000  0.4731650000000 1.0
C      1  0.5177530000000  0.4786460000000  0.6176180000000 1.0
C      1  0.5560950000000  0.5808090000000  0.4338720000000 1.0
C      1  0.5114210000000  0.4668820000000  0.3980720000000 1.0
C      1  0.4388800000000  0.4344520000000  0.5770220000000 1.0
C      1  0.4843410000000  0.4310830000000  0.4527360000000 1.0
C      1  0.4954950000000  0.4490530000000  0.5421070000000 1.0
C      1  0.4349070000000  0.4417820000000  0.4688880000000 1.0
C      1  0.4722410000000  0.3947490000000  0.4223210000000 1.0
C      1  0.5794720000000  0.4620100000000  0.4130760000000 1.0
C      1  0.4230790000000  0.4363340000000  0.5303640000000 1.0
C      1  0.6070800000000  0.5065390000000  0.4971450000000 1.0
C      1  0.3696280000000  0.4984460000000  0.5597520000000 1.0
C      1  0.6034890000000  0.6102150000000  0.5589290000000 1.0
C      1  0.5085970000000  0.5494210000000  0.5885520000000 1.0
C      1  0.4182680000000  0.4750410000000  0.6010500000000 1.0
C      1  0.5664950000000  0.5548060000000  0.4311120000000 1.0
C      1  0.4006100000000  0.4210690000000  0.5292080000000 1.0
C      1  0.3854380000000  0.5280330000000  0.5144370000000 1.0
C      1  0.4905510000000  0.5558400000000  0.4905830000000 1.0
C      1  0.4579680000000  0.4312900000000  0.4617410000000 1.0
C      1  0.5733900000000  0.4073850000000  0.5570970000000 1.0
C      1  0.4827880000000  0.6113150000000  0.4919070000000 1.0
C      1  0.4861600000000  0.5866860000000  0.5627190000000 1.0
C      1  0.5293470000000  0.5625360000000  0.6021850000000 1.0
C      1  0.5614740000000  0.5016570000000  0.4771070000000 1.0
C      1  0.4867660000000  0.4771100000000  0.4649050000000 1.0
C      1  0.5156820000000  0.3831190000000  0.4717580000000 1.0
C      1  0.4199550000000  0.5251290000000  0.4362620000000 1.0
C      1  0.4377790000000  0.4866160000000  0.4117090000000 1.0
C      1  0.6041920000000  0.4551300000000  0.4780650000000 1.0
C      1  0.4463760000000  0.5420600000000  0.4732680000000 1.0
C      1  0.4010360000000  0.4802960000000  0.4444990000000 1.0
C      1  0.3376720000000  0.4759210000000  0.5306440000000 1.0
C      1  0.4582140000000  0.5498460000000  0.5269340000000 1.0
C      1  0.5150800000000  0.5241550000000  0.5758830000000 1.0
C      1  0.5883120000000  0.4977320000000  0.5656030000000 1.0
C      1  0.5566020000000  0.4492070000000  0.5128960000000 1.0
C      1  0.5260910000000  0.5324850000000  0.4491740000000 1.0
C      1  0.6001710000000  0.3138710000000  0.5491550000000 1.0
C      1  0.5395020000000  0.4717130000000  0.5261260000000 1.0
C      1  0.5175110000000  0.6100050000000  0.4569480000000 1.0
C      1  0.5833370000000  0.5939630000000  0.5619130000000 1.0
C      1  0.5044650000000  0.4501720000000  0.4666320000000 1.0
C      1  0.5782190000000  0.4076220000000  0.6055140000000 1.0
C      1  0.5187520000000  0.4290020000000  0.4863500000000 1.0
C      1  0.4835100000000  0.5461690000000  0.5162850000000 1.0
C      1  0.5471800000000  0.6191340000000  0.4984040000000 1.0
C      1  0.5331420000000  0.6253920000000  0.4748980000000 1.0
C      1  0.5895320000000  0.4986720000000  0.4757280000000 1.0
C      1  0.5754600000000  0.4353300000000  0.4220240000000 1.0
C      1  0.5987880000000  0.4771590000000  0.4589950000000 1.0
C      1  0.4909010000000  0.6042600000000  0.5409830000000 1.0
C      1  0.5568680000000  0.5121420000000  0.4170820000000 1.0
C      1  0.5836860000000  0.4449520000000  0.5213660000000 1.0
C      1  0.4238270000000  0.5483830000000  0.4206220000000 1.0
C      1  0.5337220000000  0.6014980000000  0.5158990000000 1.0
END
