TITL C-247195-3186-328 3.1365978430892e-08 125000 -1131.48508073128 0 0 185 (C1) n - 1
REM
REM in /home/nfs/bkarasulu/CARBON/AIRSS/Generating-Clusters/LCBOP/Only-C1/SD-CG/FIRE-HFTN
REM
REM
REM
REM
REM
REM ./C.cell (11c1c37f851c82e70ff6c80c92926a4b)
REM AIRSS Version 0.9.1 bugfix July 2018 build 013d7b7c2542+ Fri, 06 Jul 2018 19:26:36 +0100
REM compiler GCC version 9.2.1 20190827 (Red Hat 9.2.1-1)
REM options -cpp -mtune=generic -march=x86-64 -g -O0 -fpre-include=/usr/include/finclude/math-vector-fortran.h
REM seed -854430248 1048574444 -848864602 1803927255 353160107 246366005 -1624692669 -521023939 1165935335 -2015604193 1902693591 -249711788 -152638533 -146995620 -1475034189 -940106393 -30924418 2129371340 1257132451 -493940654 -1178088721 -1578036904 -1767771313 -380990345 -803758392 836769482 1504526950 -2057450959 638784650 2055000605 -1615036529 1469465006 1680479603
REM
CELL 1.54180   50.00000   50.00000   50.00000   90.00000   90.00000   90.00000
LATT -1
SFAC C  
C      1  0.5596000000000  0.5657170000000  0.5542440000000 1.0
C      1  0.6080100000000  0.4872180000000  0.5430630000000 1.0
C      1  0.5347410000000  0.6147380000000  0.4786500000000 1.0
C      1  0.5903250000000  0.5451400000000  0.5789130000000 1.0
C      1  0.5694420000000  0.5358500000000  0.4107810000000 1.0
C      1  0.5640120000000  0.4811040000000  0.5928090000000 1.0
C      1  0.5170390000000  0.4962030000000  0.5375410000000 1.0
C      1  0.5145700000000  0.4960100000000  0.4325130000000 1.0
C      1  0.4973570000000  0.4101210000000  0.4755160000000 1.0
C      1  0.5377050000000  0.3763470000000  0.4279750000000 1.0
C      1  0.3873360000000  0.4154650000000  0.4374480000000 1.0
C      1  0.5448990000000  0.5575930000000  0.5774860000000 1.0
C      1  0.4922650000000  0.4916660000000  0.3909170000000 1.0
C      1  0.4905070000000  0.6056600000000  0.4633740000000 1.0
C      1  0.5176320000000  0.4533030000000  0.4130100000000 1.0
C      1  0.5867780000000  0.4715550000000  0.4854920000000 1.0
C      1  0.6004560000000  0.5482350000000  0.4593580000000 1.0
C      1  0.5551450000000  0.5378020000000  0.4534170000000 1.0
C      1  0.4501120000000  0.4917420000000  0.4667930000000 1.0
C      1  0.4611720000000  0.4455490000000  0.4626320000000 1.0
C      1  0.4979840000000  0.5700320000000  0.5018490000000 1.0
C      1  0.4220250000000  0.5778170000000  0.4476920000000 1.0
C      1  0.5393300000000  0.5672930000000  0.4842260000000 1.0
C      1  0.3805130000000  0.4281890000000  0.4597540000000 1.0
C      1  0.5454720000000  0.4186310000000  0.4790680000000 1.0
C      1  0.4785390000000  0.4354500000000  0.6510420000000 1.0
C      1  0.4647230000000  0.5938560000000  0.4665100000000 1.0
C      1  0.4618520000000  0.4843180000000  0.5204560000000 1.0
C      1  0.5636640000000  0.5363970000000  0.5879910000000 1.0
C      1  0.5220480000000  0.5531720000000  0.3884810000000 1.0
C      1  0.5186700000000  0.4805450000000  0.5159460000000 1.0
C      1  0.4509900000000  0.4396130000000  0.5632420000000 1.0
C      1  0.4970540000000  0.4011810000000  0.5885660000000 1.0
C      1  0.4249540000000  0.4528040000000  0.5619780000000 1.0
C      1  0.4756920000000  0.5031480000000  0.5026000000000 1.0
C      1  0.3721440000000  0.4523160000000  0.4708430000000 1.0
C      1  0.4022350000000  0.4953450000000  0.5698950000000 1.0
C      1  0.5613890000000  0.4345820000000  0.5771100000000 1.0
C      1  0.5431250000000  0.4971800000000  0.4289910000000 1.0
C      1  0.4776460000000  0.4997670000000  0.4737380000000 1.0
C      1  0.4726080000000  0.5862230000000  0.5588570000000 1.0
C      1  0.5080650000000  0.5397570000000  0.4540560000000 1.0
C      1  0.3624350000000  0.5066170000000  0.5464640000000 1.0
C      1  0.5752700000000  0.4605700000000  0.5753330000000 1.0
C      1  0.5296190000000  0.5825780000000  0.4429530000000 1.0
C      1  0.4442570000000  0.5217080000000  0.5452930000000 1.0
C      1  0.4353990000000  0.4565960000000  0.4035150000000 1.0
C      1  0.5945060000000  0.4625920000000  0.5515630000000 1.0
C      1  0.4873670000000  0.4420100000000  0.5085350000000 1.0
C      1  0.5129670000000  0.5222520000000  0.5417830000000 1.0
C      1  0.6084390000000  0.5358380000000  0.5141210000000 1.0
C      1  0.5654100000000  0.4217650000000  0.4359340000000 1.0
C      1  0.4566980000000  0.5941280000000  0.5357220000000 1.0
C      1  0.4566510000000  0.4507190000000  0.3862130000000 1.0
C      1  0.6347080000000  0.4304330000000  0.4511930000000 1.0
C      1  0.5881910000000  0.5595300000000  0.5543180000000 1.0
C      1  0.5827930000000  0.4452490000000  0.5296780000000 1.0
C      1  0.6032190000000  0.5764190000000  0.4639330000000 1.0
C      1  0.4707550000000  0.4607680000000  0.6531650000000 1.0
C      1  0.5336020000000  0.3970940000000  0.4083230000000 1.0
C      1  0.3880800000000  0.5369540000000  0.5214540000000 1.0
C      1  0.4266310000000  0.5577870000000  0.4253590000000 1.0
C      1  0.4931090000000  0.4147840000000  0.3821820000000 1.0
C      1  0.5634380000000  0.5094510000000  0.5208910000000 1.0
C      1  0.5436720000000  0.5900900000000  0.4675170000000 1.0
C      1  0.4881520000000  0.5083710000000  0.6396630000000 1.0
C      1  0.5190440000000  0.5714880000000  0.5804220000000 1.0
C      1  0.4769470000000  0.5308780000000  0.5106160000000 1.0
C      1  0.4628050000000  0.5657250000000  0.4745380000000 1.0
C      1  0.4369420000000  0.5929190000000  0.5168150000000 1.0
C      1  0.5423150000000  0.4457850000000  0.3989400000000 1.0
C      1  0.5559170000000  0.4567450000000  0.5293520000000 1.0
C      1  0.5185690000000  0.4099530000000  0.5728630000000 1.0
C      1  0.3446520000000  0.4562330000000  0.4748210000000 1.0
C      1  0.3999110000000  0.4980400000000  0.4865230000000 1.0
C      1  0.4200080000000  0.4078610000000  0.5736360000000 1.0
C      1  0.5167630000000  0.5998040000000  0.5358540000000 1.0
C      1  0.5589040000000  0.4851880000000  0.5312160000000 1.0
C      1  0.4109000000000  0.5754980000000  0.4748250000000 1.0
C      1  0.5247960000000  0.5355170000000  0.6386720000000 1.0
C      1  0.4739960000000  0.4592430000000  0.5265820000000 1.0
C      1  0.5608040000000  0.5084780000000  0.5867910000000 1.0
C      1  0.4181450000000  0.5425720000000  0.5859310000000 1.0
C      1  0.5057780000000  0.5988020000000  0.4390460000000 1.0
C      1  0.5169630000000  0.4394390000000  0.4381260000000 1.0
C      1  0.4880840000000  0.5336960000000  0.5368710000000 1.0
C      1  0.4265160000000  0.5027810000000  0.4220990000000 1.0
C      1  0.5343740000000  0.4386520000000  0.5354510000000 1.0
C      1  0.5467360000000  0.5626170000000  0.5304180000000 1.0
C      1  0.4134570000000  0.4392690000000  0.4020660000000 1.0
C      1  0.3983080000000  0.4209130000000  0.4138370000000 1.0
C      1  0.4984580000000  0.4027450000000  0.6165240000000 1.0
C      1  0.5509950000000  0.4745250000000  0.6172820000000 1.0
C      1  0.5527290000000  0.5549160000000  0.5051350000000 1.0
C      1  0.4305480000000  0.5439410000000  0.5359900000000 1.0
C      1  0.5334850000000  0.4811760000000  0.4925020000000 1.0
C      1  0.5033830000000  0.5968810000000  0.5100950000000 1.0
C      1  0.6076530000000  0.5345350000000  0.4845760000000 1.0
C      1  0.5422220000000  0.4342820000000  0.4530710000000 1.0
C      1  0.4169660000000  0.5765150000000  0.5034100000000 1.0
C      1  0.4728690000000  0.4867430000000  0.6479530000000 1.0
C      1  0.4064400000000  0.4314940000000  0.5683610000000 1.0
C      1  0.4991040000000  0.6092150000000  0.4146400000000 1.0
C      1  0.4273420000000  0.5055240000000  0.4795780000000 1.0
C      1  0.4706370000000  0.5596260000000  0.3930850000000 1.0
C      1  0.5120500000000  0.5561260000000  0.4810610000000 1.0
C      1  0.5221190000000  0.3746330000000  0.4505370000000 1.0
C      1  0.5070710000000  0.6134320000000  0.4864820000000 1.0
C      1  0.5596450000000  0.5283310000000  0.5006610000000 1.0
C      1  0.4993690000000  0.3920420000000  0.4535370000000 1.0
C      1  0.4100500000000  0.5539670000000  0.5195790000000 1.0
C      1  0.4407590000000  0.4941950000000  0.5386640000000 1.0
C      1  0.5523410000000  0.4196990000000  0.4094360000000 1.0
C      1  0.5921830000000  0.5864440000000  0.5141640000000 1.0
C      1  0.3292640000000  0.4724310000000  0.4894240000000 1.0
C      1  0.4009560000000  0.5254420000000  0.5706740000000 1.0
C      1  0.3589830000000  0.5019910000000  0.5183400000000 1.0
C      1  0.5579320000000  0.4660670000000  0.3865800000000 1.0
C      1  0.4483920000000  0.4686390000000  0.4504810000000 1.0
C      1  0.5408800000000  0.5464860000000  0.4093830000000 1.0
C      1  0.5310040000000  0.5690860000000  0.3678620000000 1.0
C      1  0.5852330000000  0.4885080000000  0.3543180000000 1.0
C      1  0.5042620000000  0.4785470000000  0.4124750000000 1.0
C      1  0.4438940000000  0.5532900000000  0.5940650000000 1.0
C      1  0.4350620000000  0.5309270000000  0.4888560000000 1.0
C      1  0.5283950000000  0.5034640000000  0.4765410000000 1.0
C      1  0.5579020000000  0.4691630000000  0.4838260000000 1.0
C      1  0.4943120000000  0.5442720000000  0.3874790000000 1.0
C      1  0.5503640000000  0.5209420000000  0.4752160000000 1.0
C      1  0.3360750000000  0.4913820000000  0.5069070000000 1.0
C      1  0.5743960000000  0.4168290000000  0.4841610000000 1.0
C      1  0.5174890000000  0.5076480000000  0.6414110000000 1.0
C      1  0.3747470000000  0.4875960000000  0.5641170000000 1.0
C      1  0.5035630000000  0.5512090000000  0.6269340000000 1.0
C      1  0.5529930000000  0.4615030000000  0.4569160000000 1.0
C      1  0.5448950000000  0.6079410000000  0.5338860000000 1.0
C      1  0.4924890000000  0.4618320000000  0.5720950000000 1.0
C      1  0.5144260000000  0.4310480000000  0.5156320000000 1.0
C      1  0.6006950000000  0.5898820000000  0.4872920000000 1.0
C      1  0.3898690000000  0.4733410000000  0.4769670000000 1.0
C      1  0.5802690000000  0.5395880000000  0.4391220000000 1.0
C      1  0.3821820000000  0.5137200000000  0.5041100000000 1.0
C      1  0.4632090000000  0.5343470000000  0.6045850000000 1.0
C      1  0.5868030000000  0.4205390000000  0.4568950000000 1.0
C      1  0.4693550000000  0.5269730000000  0.5565380000000 1.0
C      1  0.4485180000000  0.4116750000000  0.5712680000000 1.0
C      1  0.4367440000000  0.4755820000000  0.4247370000000 1.0
C      1  0.4738710000000  0.5197230000000  0.5828880000000 1.0
C      1  0.5081290000000  0.5696690000000  0.6065400000000 1.0
C      1  0.4784000000000  0.4322250000000  0.4815980000000 1.0
C      1  0.5032020000000  0.5864680000000  0.5592050000000 1.0
C      1  0.5751890000000  0.5134920000000  0.3938760000000 1.0
C      1  0.4227380000000  0.4802720000000  0.5565630000000 1.0
C      1  0.5999320000000  0.5612180000000  0.5281030000000 1.0
C      1  0.5816140000000  0.3976620000000  0.6111050000000 1.0
C      1  0.5375280000000  0.4275010000000  0.5618790000000 1.0
C      1  0.5211210000000  0.4144470000000  0.4926250000000 1.0
C      1  0.4845260000000  0.5445760000000  0.4373250000000 1.0
C      1  0.4714930000000  0.3973960000000  0.5773860000000 1.0
C      1  0.4581960000000  0.5465110000000  0.4950550000000 1.0
C      1  0.6092020000000  0.4386230000000  0.4562470000000 1.0
C      1  0.5321790000000  0.5518410000000  0.4381340000000 1.0
C      1  0.5341560000000  0.4861920000000  0.6347470000000 1.0
C      1  0.5914380000000  0.4805990000000  0.4391070000000 1.0
C      1  0.4799010000000  0.5336460000000  0.6273300000000 1.0
C      1  0.4565970000000  0.5753400000000  0.5804020000000 1.0
C      1  0.4466430000000  0.5643940000000  0.4050570000000 1.0
C      1  0.5051040000000  0.4018120000000  0.4038410000000 1.0
C      1  0.5723730000000  0.4153470000000  0.5943450000000 1.0
C      1  0.4751390000000  0.4338580000000  0.3769970000000 1.0
C      1  0.5047070000000  0.5085450000000  0.4590320000000 1.0
C      1  0.5725440000000  0.4893680000000  0.3787280000000 1.0
C      1  0.4901770000000  0.5168210000000  0.3821340000000 1.0
C      1  0.3804210000000  0.5307420000000  0.5493630000000 1.0
C      1  0.5630660000000  0.4798810000000  0.4378030000000 1.0
C      1  0.4889720000000  0.3980850000000  0.4275700000000 1.0
C      1  0.4901890000000  0.4150590000000  0.6386010000000 1.0
C      1  0.4739810000000  0.4525760000000  0.5543030000000 1.0
C      1  0.6023150000000  0.4661090000000  0.4614990000000 1.0
C      1  0.4208470000000  0.5292750000000  0.4257620000000 1.0
C      1  0.6120190000000  0.5110420000000  0.5297230000000 1.0
C      1  0.5706160000000  0.6032890000000  0.5248920000000 1.0
C      1  0.4624560000000  0.5517470000000  0.4498400000000 1.0
C      1  0.4420820000000  0.5992010000000  0.4496210000000 1.0
C      1  0.5861410000000  0.4255410000000  0.5091180000000 1.0
END
