TITL C-247201-3759-568 -0.0384919573212282 125000 -773.861596613007 0 0 127 (C1) n - 1
REM
REM in /home/nfs/bkarasulu/CARBON/AIRSS/Generating-Clusters/LCBOP/Only-C1/SD-CG/FIRE-HFTN
REM
REM
REM
REM
REM
REM ./C.cell (11c1c37f851c82e70ff6c80c92926a4b)
REM AIRSS Version 0.9.1 bugfix July 2018 build 013d7b7c2542+ Fri, 06 Jul 2018 19:26:36 +0100
REM compiler GCC version 9.2.1 20190827 (Red Hat 9.2.1-1)
REM options -cpp -mtune=generic -march=x86-64 -g -O0 -fpre-include=/usr/include/finclude/math-vector-fortran.h
REM seed 29152819 -1023157918 -1799005389 1064340981 1980056726 1658884709 -1310972155 346405701 47231343 148371205 -573265924 1094159439 195385644 -338340126 1853610005 909376892 -1508532408 -524483088 1635204546 -1100490076 1667367558 1190151800 -1277507665 817190160 1708622843 2099726619 2057996233 -84266449 804617827 -66265446 -1389100481 -2085174486 -1980116109
REM
CELL 1.54180   50.00000   50.00000   50.00000   90.00000   90.00000   90.00000
LATT -1
SFAC C  
C      1  0.5597340000000  0.5824230000000  0.5768240000000 1.0
C      1  0.4504880000000  0.5099610000000  0.4164330000000 1.0
C      1  0.5354220000000  0.5496330000000  0.4281420000000 1.0
C      1  0.5234590000000  0.4627130000000  0.4362850000000 1.0
C      1  0.5514050000000  0.4989950000000  0.5048520000000 1.0
C      1  0.5142080000000  0.5306870000000  0.4968930000000 1.0
C      1  0.4976800000000  0.5354620000000  0.5193240000000 1.0
C      1  0.5628460000000  0.5476550000000  0.4250850000000 1.0
C      1  0.5734060000000  0.5562970000000  0.5803990000000 1.0
C      1  0.5865270000000  0.5332460000000  0.4913230000000 1.0
C      1  0.6116660000000  0.5371720000000  0.4087040000000 1.0
C      1  0.4849130000000  0.4249560000000  0.4757760000000 1.0
C      1  0.4321330000000  0.4578780000000  0.4235940000000 1.0
C      1  0.4962700000000  0.4583650000000  0.4441450000000 1.0
C      1  0.5283020000000  0.4804850000000  0.5717250000000 1.0
C      1  0.6170540000000  0.5709210000000  0.4700890000000 1.0
C      1  0.5273250000000  0.4907980000000  0.4346030000000 1.0
C      1  0.4752830000000  0.5816090000000  0.4490700000000 1.0
C      1  0.4928340000000  0.4174640000000  0.4247390000000 1.0
C      1  0.4039360000000  0.5125490000000  0.4758370000000 1.0
C      1  0.4976730000000  0.5271370000000  0.5458400000000 1.0
C      1  0.4550010000000  0.4752930000000  0.4596340000000 1.0
C      1  0.4949670000000  0.4934600000000  0.3998020000000 1.0
C      1  0.4894060000000  0.5460690000000  0.4146170000000 1.0
C      1  0.5537110000000  0.4501290000000  0.4813560000000 1.0
C      1  0.5258550000000  0.3937180000000  0.4856650000000 1.0
C      1  0.5460180000000  0.5003020000000  0.4769480000000 1.0
C      1  0.5174930000000  0.5753390000000  0.4723200000000 1.0
C      1  0.4670540000000  0.5861300000000  0.5232370000000 1.0
C      1  0.4614770000000  0.5142060000000  0.5026820000000 1.0
C      1  0.4737400000000  0.5697820000000  0.5004270000000 1.0
C      1  0.4675510000000  0.4893510000000  0.5518980000000 1.0
C      1  0.4946840000000  0.5703290000000  0.4310570000000 1.0
C      1  0.5981820000000  0.4885830000000  0.5411780000000 1.0
C      1  0.4254590000000  0.5568060000000  0.5369040000000 1.0
C      1  0.4405680000000  0.5804990000000  0.5322000000000 1.0
C      1  0.5994680000000  0.4716210000000  0.4947280000000 1.0
C      1  0.4004190000000  0.4667960000000  0.4552410000000 1.0
C      1  0.4845250000000  0.4959000000000  0.4942960000000 1.0
C      1  0.4200980000000  0.4458510000000  0.4476190000000 1.0
C      1  0.4388140000000  0.4857360000000  0.5504550000000 1.0
C      1  0.4794690000000  0.5645970000000  0.6125580000000 1.0
C      1  0.5497120000000  0.4292570000000  0.4612160000000 1.0
C      1  0.4715300000000  0.5411990000000  0.5078360000000 1.0
C      1  0.5824000000000  0.4366080000000  0.5383520000000 1.0
C      1  0.4881400000000  0.5962510000000  0.5398370000000 1.0
C      1  0.5449470000000  0.5275230000000  0.6135440000000 1.0
C      1  0.5248970000000  0.5101650000000  0.6097290000000 1.0
C      1  0.4484960000000  0.5804920000000  0.4386610000000 1.0
C      1  0.5876720000000  0.5428190000000  0.4171900000000 1.0
C      1  0.5346240000000  0.4785410000000  0.5188520000000 1.0
C      1  0.5660100000000  0.4070050000000  0.5028680000000 1.0
C      1  0.4299930000000  0.5523680000000  0.4708190000000 1.0
C      1  0.5354360000000  0.5558220000000  0.5514890000000 1.0
C      1  0.5555170000000  0.4790340000000  0.5779680000000 1.0
C      1  0.4392380000000  0.4960340000000  0.4997650000000 1.0
C      1  0.4606470000000  0.5381090000000  0.4125900000000 1.0
C      1  0.4686750000000  0.5510400000000  0.5930960000000 1.0
C      1  0.5372320000000  0.4367760000000  0.4362760000000 1.0
C      1  0.5194510000000  0.4082390000000  0.5105410000000 1.0
C      1  0.4899340000000  0.4766200000000  0.6031560000000 1.0
C      1  0.5190990000000  0.5357630000000  0.5606030000000 1.0
C      1  0.5177260000000  0.5053020000000  0.4118240000000 1.0
C      1  0.4145140000000  0.5017330000000  0.5492450000000 1.0
C      1  0.5582710000000  0.4225280000000  0.5467710000000 1.0
C      1  0.5515490000000  0.4041860000000  0.4764640000000 1.0
C      1  0.4785900000000  0.5276400000000  0.4609120000000 1.0
C      1  0.4511060000000  0.3819130000000  0.5154830000000 1.0
C      1  0.4099920000000  0.5413300000000  0.5167150000000 1.0
C      1  0.4723130000000  0.4908530000000  0.4162020000000 1.0
C      1  0.4288020000000  0.5774730000000  0.4584990000000 1.0
C      1  0.5651370000000  0.5423210000000  0.6038320000000 1.0
C      1  0.4495820000000  0.4413420000000  0.4084210000000 1.0
C      1  0.5776240000000  0.5112620000000  0.5061400000000 1.0
C      1  0.5784710000000  0.5392930000000  0.5552940000000 1.0
C      1  0.4899130000000  0.4706070000000  0.5428760000000 1.0
C      1  0.4317840000000  0.5429970000000  0.5620760000000 1.0
C      1  0.4184980000000  0.4378830000000  0.5405310000000 1.0
C      1  0.5011790000000  0.5135610000000  0.4751950000000 1.0
C      1  0.4641630000000  0.4279780000000  0.5285480000000 1.0
C      1  0.5553900000000  0.5629090000000  0.5099480000000 1.0
C      1  0.4443550000000  0.4552400000000  0.6181100000000 1.0
C      1  0.5946370000000  0.4605230000000  0.5478640000000 1.0
C      1  0.4572350000000  0.4076660000000  0.5088540000000 1.0
C      1  0.5756320000000  0.4966190000000  0.5799080000000 1.0
C      1  0.4744440000000  0.5170540000000  0.5579440000000 1.0
C      1  0.4477890000000  0.4705500000000  0.4882450000000 1.0
C      1  0.4273300000000  0.4937200000000  0.4271200000000 1.0
C      1  0.5129290000000  0.4895700000000  0.5943360000000 1.0
C      1  0.4278890000000  0.4491360000000  0.4927670000000 1.0
C      1  0.5974580000000  0.4928270000000  0.5133100000000 1.0
C      1  0.5385880000000  0.5732320000000  0.4912650000000 1.0
C      1  0.4449340000000  0.5620140000000  0.4165110000000 1.0
C      1  0.5309390000000  0.4552240000000  0.5001830000000 1.0
C      1  0.4137550000000  0.5221630000000  0.5688460000000 1.0
C      1  0.6313170000000  0.5902750000000  0.4600120000000 1.0
C      1  0.5217640000000  0.4172630000000  0.4206770000000 1.0
C      1  0.4114760000000  0.4988680000000  0.5003060000000 1.0
C      1  0.5186260000000  0.4774360000000  0.5446660000000 1.0
C      1  0.4876060000000  0.5790520000000  0.4765490000000 1.0
C      1  0.5587420000000  0.5504990000000  0.5354480000000 1.0
C      1  0.6019740000000  0.5512400000000  0.4794570000000 1.0
C      1  0.4842650000000  0.4497100000000  0.5205890000000 1.0
C      1  0.4077160000000  0.4955790000000  0.4513290000000 1.0
C      1  0.5113240000000  0.5964860000000  0.5541140000000 1.0
C      1  0.4705320000000  0.4237870000000  0.4080790000000 1.0
C      1  0.4530920000000  0.5367120000000  0.4634040000000 1.0
C      1  0.4118550000000  0.4446730000000  0.5152310000000 1.0
C      1  0.4582590000000  0.4169710000000  0.4815730000000 1.0
C      1  0.5449690000000  0.4082220000000  0.5253840000000 1.0
C      1  0.4754070000000  0.4691270000000  0.4994200000000 1.0
C      1  0.5345090000000  0.5822660000000  0.5622620000000 1.0
C      1  0.5160790000000  0.5334180000000  0.4136640000000 1.0
C      1  0.5243670000000  0.5031300000000  0.4600340000000 1.0
C      1  0.5063900000000  0.4350610000000  0.5038580000000 1.0
C      1  0.5212320000000  0.5688570000000  0.4440800000000 1.0
C      1  0.4748210000000  0.4755920000000  0.4400230000000 1.0
C      1  0.4584050000000  0.5372880000000  0.5710500000000 1.0
C      1  0.4439550000000  0.4321760000000  0.5480140000000 1.0
C      1  0.4674320000000  0.4654850000000  0.6116230000000 1.0
C      1  0.5809280000000  0.4507650000000  0.4917910000000 1.0
C      1  0.4905500000000  0.4314420000000  0.4500400000000 1.0
C      1  0.4094320000000  0.5403280000000  0.4854810000000 1.0
C      1  0.4046180000000  0.5124560000000  0.5243850000000 1.0
C      1  0.5843370000000  0.4288300000000  0.5097300000000 1.0
C      1  0.4337150000000  0.4310070000000  0.4704320000000 1.0
C      1  0.5876190000000  0.5107850000000  0.5581650000000 1.0
END
