TITL C-247196-3112-659 13790.0209601674 125000 -884.861630642211 0 0 144 (C1) n - 1
REM
REM in /home/nfs/bkarasulu/CARBON/AIRSS/Generating-Clusters/LCBOP/Only-C1/SD-CG/FIRE-HFTN
REM
REM
REM
REM
REM
REM ./C.cell (11c1c37f851c82e70ff6c80c92926a4b)
REM AIRSS Version 0.9.1 bugfix July 2018 build 013d7b7c2542+ Fri, 06 Jul 2018 19:26:36 +0100
REM compiler GCC version 9.2.1 20190827 (Red Hat 9.2.1-1)
REM options -cpp -mtune=generic -march=x86-64 -g -O0 -fpre-include=/usr/include/finclude/math-vector-fortran.h
REM seed 915645452 2062452825 736239820 1615372319 -1965182641 1748151073 -553407598 -417882977 -2010910880 1393212750 -522468917 520807952 -660536137 -1693542412 534603507 -898001115 -1111121910 797103175 -986289323 744430559 -1285626966 1101538101 -1500644309 -309276847 1850571853 941470775 1964522792 -1530589656 -1311578252 -2024602979 -1329193212 -1871711855 1821666066
REM
CELL 1.54180   50.00000   50.00000   50.00000   90.00000   90.00000   90.00000
LATT -1
SFAC C  
C      1  0.4475050000000  0.4871230000000  0.6160100000000 1.0
C      1  0.5036390000000  0.5192030000000  0.4417300000000 1.0
C      1  0.4109930000000  0.5442770000000  0.5290930000000 1.0
C      1  0.4356620000000  0.5008850000000  0.4726540000000 1.0
C      1  0.6429850000000  0.6631380000000  0.3802120000000 1.0
C      1  0.5362390000000  0.4446850000000  0.6055780000000 1.0
C      1  0.4293920000000  0.4211670000000  0.5872210000000 1.0
C      1  0.5994230000000  0.5840970000000  0.4120490000000 1.0
C      1  0.5489060000000  0.4936370000000  0.5004000000000 1.0
C      1  0.4037820000000  0.4521540000000  0.5351110000000 1.0
C      1  0.4674590000000  0.4564040000000  0.5401190000000 1.0
C      1  0.4834660000000  0.5386320000000  0.4457540000000 1.0
C      1  0.5091080000000  0.5065550000000  0.4660520000000 1.0
C      1  0.4502440000000  0.4189170000000  0.4698810000000 1.0
C      1  0.5549090000000  0.4948440000000  0.5288200000000 1.0
C      1  0.5745720000000  0.5103490000000  0.4604520000000 1.0
C      1  0.5604540000000  0.5576250000000  0.4243370000000 1.0
C      1  0.4082440000000  0.5462430000000  0.5557470000000 1.0
C      1  0.4221130000000  0.4914600000000  0.5601320000000 1.0
C      1  0.6030770000000  0.5477330000000  0.4751030000000 1.0
C      1  0.4635480000000  0.5869360000000  0.4257660000000 1.0
C      1  0.5892450000000  0.5311260000000  0.5225220000000 1.0
C      1  0.4804200000000  0.5259680000000  0.5164290000000 1.0
C      1  0.4745150000000  0.4053400000000  0.5960840000000 1.0
C      1  0.5587810000000  0.4569530000000  0.4462010000000 1.0
C      1  0.4601850000000  0.4877360000000  0.4643050000000 1.0
C      1  0.4255050000000  0.4708470000000  0.6037350000000 1.0
C      1  0.6400750000000  0.4888960000000  0.5741770000000 1.0
C      1  0.4053940000000  0.4918220000000  0.5114030000000 1.0
C      1  0.5656980000000  0.4592520000000  0.5673380000000 1.0
C      1  0.4299750000000  0.4741630000000  0.4125190000000 1.0
C      1  0.4805070000000  0.4422090000000  0.5190990000000 1.0
C      1  0.5092760000000  0.4798110000000  0.5721990000000 1.0
C      1  0.5504710000000  0.4788560000000  0.4301830000000 1.0
C      1  0.4255820000000  0.5596860000000  0.4845650000000 1.0
C      1  0.4818450000000  0.4142170000000  0.5086530000000 1.0
C      1  0.4971410000000  0.4132720000000  0.4844040000000 1.0
C      1  0.5000010000000  0.5805100000000  0.4650950000000 1.0
C      1  0.4927490000000  0.4565990000000  0.4982390000000 1.0
C      1  0.5335330000000  0.3828780000000  0.4806710000000 1.0
C      1  0.4592760000000  0.5341050000000  0.4319060000000 1.0
C      1  0.6004810000000  0.5459540000000  0.5031130000000 1.0
C      1  0.5957990000000  0.5687510000000  0.4578910000000 1.0
C      1  0.4877090000000  0.5834070000000  0.4138370000000 1.0
C      1  0.5330990000000  0.5558950000000  0.5554530000000 1.0
C      1  0.4915540000000  0.5566230000000  0.5785980000000 1.0
C      1  0.5118550000000  0.4551450000000  0.6118580000000 1.0
C      1  0.4343950000000  0.5825660000000  0.4989880000000 1.0
C      1  0.4859040000000  0.4938310000000  0.4741200000000 1.0
C      1  0.5516440000000  0.5287080000000  0.4708020000000 1.0
C      1  0.5375830000000  0.5752770000000  0.4219120000000 1.0
C      1  0.5231560000000  0.6135520000000  0.5568290000000 1.0
C      1  0.3966840000000  0.4456880000000  0.5080090000000 1.0
C      1  0.6287370000000  0.6435340000000  0.3392430000000 1.0
C      1  0.5490940000000  0.4730490000000  0.5474550000000 1.0
C      1  0.3890280000000  0.4724310000000  0.4970490000000 1.0
C      1  0.5167340000000  0.4096610000000  0.4411290000000 1.0
C      1  0.5525940000000  0.4377830000000  0.5831090000000 1.0
C      1  0.4563990000000  0.4660200000000  0.4202580000000 1.0
C      1  0.5106530000000  0.5988990000000  0.4816350000000 1.0
C      1  0.5444920000000  0.4141110000000  0.5678340000000 1.0
C      1  0.4716830000000  0.4891130000000  0.6003880000000 1.0
C      1  0.5531190000000  0.4146670000000  0.5137390000000 1.0
C      1  0.6167350000000  0.4763830000000  0.5732680000000 1.0
C      1  0.4751330000000  0.4984860000000  0.5172310000000 1.0
C      1  0.4676570000000  0.5084930000000  0.5778350000000 1.0
C      1  0.5167250000000  0.4365050000000  0.5412230000000 1.0
C      1  0.5006460000000  0.3976820000000  0.5960660000000 1.0
C      1  0.5554900000000  0.5293280000000  0.4172440000000 1.0
C      1  0.4423360000000  0.5807840000000  0.4417460000000 1.0
C      1  0.4560040000000  0.4169420000000  0.5745900000000 1.0
C      1  0.4595760000000  0.4640080000000  0.4482910000000 1.0
C      1  0.5314780000000  0.5114650000000  0.4831960000000 1.0
C      1  0.5136780000000  0.5535060000000  0.5348080000000 1.0
C      1  0.4778570000000  0.4604770000000  0.3763880000000 1.0
C      1  0.5924120000000  0.4660690000000  0.5713950000000 1.0
C      1  0.4071370000000  0.4384360000000  0.4615230000000 1.0
C      1  0.4954880000000  0.5720080000000  0.5185800000000 1.0
C      1  0.4322240000000  0.5340450000000  0.4412010000000 1.0
C      1  0.4206450000000  0.4731600000000  0.3869050000000 1.0
C      1  0.5128890000000  0.5715740000000  0.4078500000000 1.0
C      1  0.4288540000000  0.5591720000000  0.4556980000000 1.0
C      1  0.4670030000000  0.4400310000000  0.4607240000000 1.0
C      1  0.5641760000000  0.5049010000000  0.4324100000000 1.0
C      1  0.5545860000000  0.5381610000000  0.5544200000000 1.0
C      1  0.4797710000000  0.4613100000000  0.4042790000000 1.0
C      1  0.4952730000000  0.5318290000000  0.5397940000000 1.0
C      1  0.5144880000000  0.3988310000000  0.4674470000000 1.0
C      1  0.5675380000000  0.5200010000000  0.5370500000000 1.0
C      1  0.5059490000000  0.4572330000000  0.4162370000000 1.0
C      1  0.5852500000000  0.5699560000000  0.4315850000000 1.0
C      1  0.6311390000000  0.6426070000000  0.3665020000000 1.0
C      1  0.5098080000000  0.5965850000000  0.5095710000000 1.0
C      1  0.4214230000000  0.4433460000000  0.6006580000000 1.0
C      1  0.5132720000000  0.4310470000000  0.4249560000000 1.0
C      1  0.5233420000000  0.4798960000000  0.4199740000000 1.0
C      1  0.5424100000000  0.4215150000000  0.5390400000000 1.0
C      1  0.4888080000000  0.4833590000000  0.4989460000000 1.0
C      1  0.4497130000000  0.4981980000000  0.5577700000000 1.0
C      1  0.4335550000000  0.5130990000000  0.6201670000000 1.0
C      1  0.5612460000000  0.4336080000000  0.4941420000000 1.0
C      1  0.4721930000000  0.5726250000000  0.5637200000000 1.0
C      1  0.4837550000000  0.5494570000000  0.4978020000000 1.0
C      1  0.6110300000000  0.6010640000000  0.3953440000000 1.0
C      1  0.5187240000000  0.5684380000000  0.5773940000000 1.0
C      1  0.4909580000000  0.5268370000000  0.5694350000000 1.0
C      1  0.4919050000000  0.4403830000000  0.4745810000000 1.0
C      1  0.4870840000000  0.5555100000000  0.4693780000000 1.0
C      1  0.4579990000000  0.4035880000000  0.5203010000000 1.0
C      1  0.4487490000000  0.5885700000000  0.5208900000000 1.0
C      1  0.4779120000000  0.4597950000000  0.3503360000000 1.0
C      1  0.4219430000000  0.5079970000000  0.4476730000000 1.0
C      1  0.3988680000000  0.4642870000000  0.4507800000000 1.0
C      1  0.6629330000000  0.5022940000000  0.5749280000000 1.0
C      1  0.4106890000000  0.4291180000000  0.4895970000000 1.0
C      1  0.5141260000000  0.5079690000000  0.5740490000000 1.0
C      1  0.4124240000000  0.4909980000000  0.5866950000000 1.0
C      1  0.4620290000000  0.4452470000000  0.5654080000000 1.0
C      1  0.4627510000000  0.4842380000000  0.5373270000000 1.0
C      1  0.5212710000000  0.4641560000000  0.5511820000000 1.0
C      1  0.4988630000000  0.4133210000000  0.5515620000000 1.0
C      1  0.5716920000000  0.4888760000000  0.4821950000000 1.0
C      1  0.5619570000000  0.4428370000000  0.4688740000000 1.0
C      1  0.6213440000000  0.6204450000000  0.3805200000000 1.0
C      1  0.5139590000000  0.5070890000000  0.4182910000000 1.0
C      1  0.4136520000000  0.5176690000000  0.5993510000000 1.0
C      1  0.6010430000000  0.5226800000000  0.4620850000000 1.0
C      1  0.5195920000000  0.6131890000000  0.5301270000000 1.0
C      1  0.5156730000000  0.5475660000000  0.3924490000000 1.0
C      1  0.4216830000000  0.5098000000000  0.4962610000000 1.0
C      1  0.4709330000000  0.5796970000000  0.5358520000000 1.0
C      1  0.4355260000000  0.4141300000000  0.4947980000000 1.0
C      1  0.4188030000000  0.5377140000000  0.5023160000000 1.0
C      1  0.5480040000000  0.3890040000000  0.5026790000000 1.0
C      1  0.4086840000000  0.5390700000000  0.5817270000000 1.0
C      1  0.4134520000000  0.4834300000000  0.4342600000000 1.0
C      1  0.4095540000000  0.4803810000000  0.5379790000000 1.0
C      1  0.3813510000000  0.4756830000000  0.4702670000000 1.0
C      1  0.5222080000000  0.5965760000000  0.5778950000000 1.0
C      1  0.4952010000000  0.4721000000000  0.5964210000000 1.0
C      1  0.5298650000000  0.5254060000000  0.4034140000000 1.0
C      1  0.5168140000000  0.4029000000000  0.5734420000000 1.0
C      1  0.4675140000000  0.4031640000000  0.5488140000000 1.0
C      1  0.6852870000000  0.5156880000000  0.5756870000000 1.0
END
