TITL C-247198-3593-521 -5.11605697381737e-07 125000 -1192.33678179668 0 0 195 (C1) n - 1
REM
REM in /home/nfs/bkarasulu/CARBON/AIRSS/Generating-Clusters/LCBOP/Only-C1/SD-CG/FIRE-HFTN
REM
REM
REM
REM
REM
REM ./C.cell (11c1c37f851c82e70ff6c80c92926a4b)
REM AIRSS Version 0.9.1 bugfix July 2018 build 013d7b7c2542+ Fri, 06 Jul 2018 19:26:36 +0100
REM compiler GCC version 9.2.1 20190827 (Red Hat 9.2.1-1)
REM options -cpp -mtune=generic -march=x86-64 -g -O0 -fpre-include=/usr/include/finclude/math-vector-fortran.h
REM seed -552355459 1208657122 1580851520 1975020390 -1728165463 -2102006446 1196328608 963995922 648430705 1120704260 -2064520786 -349823872 -840243320 -1564441545 1042610829 595979730 344806846 -1815903928 1444340324 1115681416 -1097340548 2058558973 -720142215 -665635725 -682690465 2047461107 -1485754109 1174394310 -45284523 955886260 1565252959 304292062 -1140190297
REM
CELL 1.54180   50.00000   50.00000   50.00000   90.00000   90.00000   90.00000
LATT -1
SFAC C  
C      1  0.5287140000000  0.6106510000000  0.5456880000000 1.0
C      1  0.5620110000000  0.4221410000000  0.4214140000000 1.0
C      1  0.5071520000000  0.5011060000000  0.4125640000000 1.0
C      1  0.4718410000000  0.4418590000000  0.3997300000000 1.0
C      1  0.5241240000000  0.6206910000000  0.5721560000000 1.0
C      1  0.5117520000000  0.5542400000000  0.4357670000000 1.0
C      1  0.5571810000000  0.4884830000000  0.4249000000000 1.0
C      1  0.5375760000000  0.5179470000000  0.3794780000000 1.0
C      1  0.4680900000000  0.5475630000000  0.4576020000000 1.0
C      1  0.5199290000000  0.4608180000000  0.4338830000000 1.0
C      1  0.5287030000000  0.4835650000000  0.4197030000000 1.0
C      1  0.5876580000000  0.5760690000000  0.4804600000000 1.0
C      1  0.4034740000000  0.4304830000000  0.5143080000000 1.0
C      1  0.4126950000000  0.4285500000000  0.5441340000000 1.0
C      1  0.5552110000000  0.4969790000000  0.6347940000000 1.0
C      1  0.5368520000000  0.5240760000000  0.5304590000000 1.0
C      1  0.5271510000000  0.5458550000000  0.5444540000000 1.0
C      1  0.4419630000000  0.4650450000000  0.5051300000000 1.0
C      1  0.5946620000000  0.5033820000000  0.5322230000000 1.0
C      1  0.4911040000000  0.5387780000000  0.3860640000000 1.0
C      1  0.3991050000000  0.4754870000000  0.5379020000000 1.0
C      1  0.6063950000000  0.4843090000000  0.4745860000000 1.0
C      1  0.4611920000000  0.5189310000000  0.4121200000000 1.0
C      1  0.4387140000000  0.6103910000000  0.5005420000000 1.0
C      1  0.5271560000000  0.6060490000000  0.4685630000000 1.0
C      1  0.4422490000000  0.3980680000000  0.5279650000000 1.0
C      1  0.4008600000000  0.5881600000000  0.4954540000000 1.0
C      1  0.4718550000000  0.6812640000000  0.5298270000000 1.0
C      1  0.5132430000000  0.5223380000000  0.3939270000000 1.0
C      1  0.4258720000000  0.4257900000000  0.4695070000000 1.0
C      1  0.4114930000000  0.4546680000000  0.5564830000000 1.0
C      1  0.5709360000000  0.5498510000000  0.4076210000000 1.0
C      1  0.4709400000000  0.5053160000000  0.3555960000000 1.0
C      1  0.4313690000000  0.5818280000000  0.4500270000000 1.0
C      1  0.4534240000000  0.4975380000000  0.5472870000000 1.0
C      1  0.4339520000000  0.5175360000000  0.5886770000000 1.0
C      1  0.6184630000000  0.5389720000000  0.5044040000000 1.0
C      1  0.5100190000000  0.5570150000000  0.6007650000000 1.0
C      1  0.5092890000000  0.6202520000000  0.5256290000000 1.0
C      1  0.4521350000000  0.5267410000000  0.5439140000000 1.0
C      1  0.5091030000000  0.4780890000000  0.3635230000000 1.0
C      1  0.4336470000000  0.5110610000000  0.4091800000000 1.0
C      1  0.5667750000000  0.4913570000000  0.5881440000000 1.0
C      1  0.5370350000000  0.5107920000000  0.4621440000000 1.0
C      1  0.5823080000000  0.4672010000000  0.5797760000000 1.0
C      1  0.4914380000000  0.4719480000000  0.5063330000000 1.0
C      1  0.5119490000000  0.6143110000000  0.6199860000000 1.0
C      1  0.5202000000000  0.4658670000000  0.4613120000000 1.0
C      1  0.5495410000000  0.5712250000000  0.5722730000000 1.0
C      1  0.5604620000000  0.5291450000000  0.5156120000000 1.0
C      1  0.5051610000000  0.3698180000000  0.5185550000000 1.0
C      1  0.5118870000000  0.5819810000000  0.3940650000000 1.0
C      1  0.5489430000000  0.4336800000000  0.6009260000000 1.0
C      1  0.5714990000000  0.4482870000000  0.4913060000000 1.0
C      1  0.4557710000000  0.5981660000000  0.4487610000000 1.0
C      1  0.5597220000000  0.5331890000000  0.3891240000000 1.0
C      1  0.6091210000000  0.4087280000000  0.5070900000000 1.0
C      1  0.5234100000000  0.4319740000000  0.4924350000000 1.0
C      1  0.3935720000000  0.4609560000000  0.5112430000000 1.0
C      1  0.4697140000000  0.5369540000000  0.5245910000000 1.0
C      1  0.4973840000000  0.5222340000000  0.4887820000000 1.0
C      1  0.5386970000000  0.6080680000000  0.4428680000000 1.0
C      1  0.4606170000000  0.5205020000000  0.4610730000000 1.0
C      1  0.6112020000000  0.4321470000000  0.4645390000000 1.0
C      1  0.3872080000000  0.4752800000000  0.4861780000000 1.0
C      1  0.4099110000000  0.5822330000000  0.5651130000000 1.0
C      1  0.5350930000000  0.4583350000000  0.5157520000000 1.0
C      1  0.5693640000000  0.5701660000000  0.4280540000000 1.0
C      1  0.5015720000000  0.4265730000000  0.5907570000000 1.0
C      1  0.4532790000000  0.5499980000000  0.5038210000000 1.0
C      1  0.4646080000000  0.4785020000000  0.4348180000000 1.0
C      1  0.4227000000000  0.5571560000000  0.4349280000000 1.0
C      1  0.4952930000000  0.5777390000000  0.5188270000000 1.0
C      1  0.4306600000000  0.4954040000000  0.5682180000000 1.0
C      1  0.4837600000000  0.4145330000000  0.5113300000000 1.0
C      1  0.4932810000000  0.5236110000000  0.5165290000000 1.0
C      1  0.4759600000000  0.4799360000000  0.5531240000000 1.0
C      1  0.4795660000000  0.3706830000000  0.5338520000000 1.0
C      1  0.5193450000000  0.4824290000000  0.5080130000000 1.0
C      1  0.4528960000000  0.4639240000000  0.4776710000000 1.0
C      1  0.5633870000000  0.4640040000000  0.5125890000000 1.0
C      1  0.5041380000000  0.3744210000000  0.4883830000000 1.0
C      1  0.3757780000000  0.5772210000000  0.4987770000000 1.0
C      1  0.3532040000000  0.5648090000000  0.5027100000000 1.0
C      1  0.5161340000000  0.4361670000000  0.4214640000000 1.0
C      1  0.4375090000000  0.4842060000000  0.3948770000000 1.0
C      1  0.5003090000000  0.5973960000000  0.4729320000000 1.0
C      1  0.4222430000000  0.5292160000000  0.5353970000000 1.0
C      1  0.4959660000000  0.4257560000000  0.4887720000000 1.0
C      1  0.6279860000000  0.4673930000000  0.5169360000000 1.0
C      1  0.4550800000000  0.4472760000000  0.5222880000000 1.0
C      1  0.3943880000000  0.4856080000000  0.4594840000000 1.0
C      1  0.4633600000000  0.5595190000000  0.5889780000000 1.0
C      1  0.5641670000000  0.5461010000000  0.5767530000000 1.0
C      1  0.4761110000000  0.4227400000000  0.4678340000000 1.0
C      1  0.4792690000000  0.4978060000000  0.4202690000000 1.0
C      1  0.5683350000000  0.5896170000000  0.4980600000000 1.0
C      1  0.5971350000000  0.4136440000000  0.4816610000000 1.0
C      1  0.4840280000000  0.5791730000000  0.5431000000000 1.0
C      1  0.4699830000000  0.5727080000000  0.5647400000000 1.0
C      1  0.5733680000000  0.5522730000000  0.5255900000000 1.0
C      1  0.4899960000000  0.4245170000000  0.4152940000000 1.0
C      1  0.5002910000000  0.4814320000000  0.6229010000000 1.0
C      1  0.4167630000000  0.5896840000000  0.4730310000000 1.0
C      1  0.5825430000000  0.5011130000000  0.4704240000000 1.0
C      1  0.4074030000000  0.5120210000000  0.4522160000000 1.0
C      1  0.4927700000000  0.6035790000000  0.6355860000000 1.0
C      1  0.4781130000000  0.5307170000000  0.3620830000000 1.0
C      1  0.5208270000000  0.3943610000000  0.4414420000000 1.0
C      1  0.5225030000000  0.4714020000000  0.6102020000000 1.0
C      1  0.4272310000000  0.5358400000000  0.5068650000000 1.0
C      1  0.5223750000000  0.4441240000000  0.6017450000000 1.0
C      1  0.5721460000000  0.5164980000000  0.4929940000000 1.0
C      1  0.4386050000000  0.4902580000000  0.5144970000000 1.0
C      1  0.4833870000000  0.5531940000000  0.4341790000000 1.0
C      1  0.4690280000000  0.5609990000000  0.4826550000000 1.0
C      1  0.5230090000000  0.6053600000000  0.5958010000000 1.0
C      1  0.4796470000000  0.5804280000000  0.6310970000000 1.0
C      1  0.5290690000000  0.4442010000000  0.5403870000000 1.0
C      1  0.4648840000000  0.6193350000000  0.4940810000000 1.0
C      1  0.5321390000000  0.3971130000000  0.5568370000000 1.0
C      1  0.4163610000000  0.5275980000000  0.4285070000000 1.0
C      1  0.4780540000000  0.6572700000000  0.5217660000000 1.0
C      1  0.4596200000000  0.4573870000000  0.5770120000000 1.0
C      1  0.5416230000000  0.4116940000000  0.4830690000000 1.0
C      1  0.6216400000000  0.4888500000000  0.4991510000000 1.0
C      1  0.5356290000000  0.4153810000000  0.4274240000000 1.0
C      1  0.4239300000000  0.3845760000000  0.4879680000000 1.0
C      1  0.4590420000000  0.4086830000000  0.5690070000000 1.0
C      1  0.6033550000000  0.4618290000000  0.5606250000000 1.0
C      1  0.4346440000000  0.5071860000000  0.4662250000000 1.0
C      1  0.4830550000000  0.5631660000000  0.6091530000000 1.0
C      1  0.5691400000000  0.5192980000000  0.5803030000000 1.0
C      1  0.5468640000000  0.6048340000000  0.4885050000000 1.0
C      1  0.4803440000000  0.4805010000000  0.3665780000000 1.0
C      1  0.5445130000000  0.4215230000000  0.5481330000000 1.0
C      1  0.4781750000000  0.4789600000000  0.4824680000000 1.0
C      1  0.4760800000000  0.3760980000000  0.4759100000000 1.0
C      1  0.5259710000000  0.5351310000000  0.4517990000000 1.0
C      1  0.5016750000000  0.4958200000000  0.5552520000000 1.0
C      1  0.5147750000000  0.4020390000000  0.5798790000000 1.0
C      1  0.6138090000000  0.4235540000000  0.5292650000000 1.0
C      1  0.5271200000000  0.3772610000000  0.5362030000000 1.0
C      1  0.5835810000000  0.5723990000000  0.4524630000000 1.0
C      1  0.4797190000000  0.3935050000000  0.5534770000000 1.0
C      1  0.4561410000000  0.4199590000000  0.5155170000000 1.0
C      1  0.5690520000000  0.4206840000000  0.4833690000000 1.0
C      1  0.5969070000000  0.4838540000000  0.3972260000000 1.0
C      1  0.4078310000000  0.5034520000000  0.5470630000000 1.0
C      1  0.4163940000000  0.5630180000000  0.5826100000000 1.0
C      1  0.5261190000000  0.4886180000000  0.4781040000000 1.0
C      1  0.5147840000000  0.5046810000000  0.5284840000000 1.0
C      1  0.5231740000000  0.5727330000000  0.4171950000000 1.0
C      1  0.5318920000000  0.4937750000000  0.3642250000000 1.0
C      1  0.5769080000000  0.4724540000000  0.4119590000000 1.0
C      1  0.6115120000000  0.4592410000000  0.4618850000000 1.0
C      1  0.6088980000000  0.5609930000000  0.4922020000000 1.0
C      1  0.4814130000000  0.5056220000000  0.4731360000000 1.0
C      1  0.4174850000000  0.6008620000000  0.5157340000000 1.0
C      1  0.5488560000000  0.5883600000000  0.5466700000000 1.0
C      1  0.4921920000000  0.5760980000000  0.4909250000000 1.0
C      1  0.4322350000000  0.4656520000000  0.5739790000000 1.0
C      1  0.4131120000000  0.4122480000000  0.4914690000000 1.0
C      1  0.4620550000000  0.4668350000000  0.3860180000000 1.0
C      1  0.4138350000000  0.4680040000000  0.4466090000000 1.0
C      1  0.4298080000000  0.5094540000000  0.4957620000000 1.0
C      1  0.4332140000000  0.4092980000000  0.5531880000000 1.0
C      1  0.4413160000000  0.4783220000000  0.4542070000000 1.0
C      1  0.4518910000000  0.4363720000000  0.4683210000000 1.0
C      1  0.5285770000000  0.5773300000000  0.5918730000000 1.0
C      1  0.4921170000000  0.3987500000000  0.4320430000000 1.0
C      1  0.5476360000000  0.4864530000000  0.6102510000000 1.0
C      1  0.4379030000000  0.5460370000000  0.5900130000000 1.0
C      1  0.4739460000000  0.5437190000000  0.4089560000000 1.0
C      1  0.5723950000000  0.4435200000000  0.5923330000000 1.0
C      1  0.4544750000000  0.3728920000000  0.5202790000000 1.0
C      1  0.6165380000000  0.4507060000000  0.5373020000000 1.0
C      1  0.4745980000000  0.6102630000000  0.4676590000000 1.0
C      1  0.5764550000000  0.4834700000000  0.5280120000000 1.0
C      1  0.4721510000000  0.4318980000000  0.5827920000000 1.0
C      1  0.4509810000000  0.3721120000000  0.4913870000000 1.0
C      1  0.5458230000000  0.5862900000000  0.4267360000000 1.0
C      1  0.4132410000000  0.5965700000000  0.5428410000000 1.0
C      1  0.4758640000000  0.3969770000000  0.4555450000000 1.0
C      1  0.5139650000000  0.5300950000000  0.5943240000000 1.0
C      1  0.5622690000000  0.5016040000000  0.4499060000000 1.0
C      1  0.5085240000000  0.5093880000000  0.5786460000000 1.0
C      1  0.5653700000000  0.5792450000000  0.5246170000000 1.0
C      1  0.5012990000000  0.4403250000000  0.5431100000000 1.0
C      1  0.4936080000000  0.4138470000000  0.5378660000000 1.0
C      1  0.5754700000000  0.4444230000000  0.4150090000000 1.0
C      1  0.4844510000000  0.6309860000000  0.5134600000000 1.0
C      1  0.4811140000000  0.4597100000000  0.5322050000000 1.0
C      1  0.5259450000000  0.3892980000000  0.4707700000000 1.0
C      1  0.6147680000000  0.5127670000000  0.5138270000000 1.0
END
