TITL C-247200-3482-102 2.28318606270486 125000 -936.357452692666 0 0 154 (C1) n - 1
REM
REM in /home/nfs/bkarasulu/CARBON/AIRSS/Generating-Clusters/LCBOP/Only-C1/SD-CG/FIRE-HFTN
REM
REM
REM
REM
REM
REM ./C.cell (11c1c37f851c82e70ff6c80c92926a4b)
REM AIRSS Version 0.9.1 bugfix July 2018 build 013d7b7c2542+ Fri, 06 Jul 2018 19:26:36 +0100
REM compiler GCC version 9.2.1 20190827 (Red Hat 9.2.1-1)
REM options -cpp -mtune=generic -march=x86-64 -g -O0 -fpre-include=/usr/include/finclude/math-vector-fortran.h
REM seed 1686113034 1774649933 1636809228 937234818 -1221743954 1757833660 -1517661554 -1820359036 -72337657 -267970786 601818760 469175838 -744081237 1722349327 -1579975619 -422228928 408386425 1814623641 -416099620 1311550693 -1890223829 2027419170 629646350 1757644467 1924624110 -682429108 1824751901 749315069 -1339104134 -1683189183 398980610 -501107983 -465132760
REM
CELL 1.54180   50.00000   50.00000   50.00000   90.00000   90.00000   90.00000
LATT -1
SFAC C  
C      1  0.5292260000000  0.5723200000000  0.5658390000000 1.0
C      1  0.6044600000000  0.4788810000000  0.5132760000000 1.0
C      1  0.3719720000000  0.5029060000000  0.5343640000000 1.0
C      1  0.4084490000000  0.5667940000000  0.5366670000000 1.0
C      1  0.4501260000000  0.5102790000000  0.3990510000000 1.0
C      1  0.4754800000000  0.5965510000000  0.5246380000000 1.0
C      1  0.4279440000000  0.4170660000000  0.5250810000000 1.0
C      1  0.4329820000000  0.5520570000000  0.4224460000000 1.0
C      1  0.4350890000000  0.5111050000000  0.5717480000000 1.0
C      1  0.5848940000000  0.4591840000000  0.4374190000000 1.0
C      1  0.6000760000000  0.5228640000000  0.4906080000000 1.0
C      1  0.4661910000000  0.4610620000000  0.4589260000000 1.0
C      1  0.5653000000000  0.6126840000000  0.5450710000000 1.0
C      1  0.4665840000000  0.4913570000000  0.6074110000000 1.0
C      1  0.4505820000000  0.5326560000000  0.5598100000000 1.0
C      1  0.5471460000000  0.5456660000000  0.5040940000000 1.0
C      1  0.4402620000000  0.4494870000000  0.5831830000000 1.0
C      1  0.4932800000000  0.5264560000000  0.4527110000000 1.0
C      1  0.5051430000000  0.5794410000000  0.5778450000000 1.0
C      1  0.5551110000000  0.4934070000000  0.4572940000000 1.0
C      1  0.5210020000000  0.5594540000000  0.5152550000000 1.0
C      1  0.5218550000000  0.5086220000000  0.3832020000000 1.0
C      1  0.5009290000000  0.5283450000000  0.5535010000000 1.0
C      1  0.5739240000000  0.5042170000000  0.3910560000000 1.0
C      1  0.4745160000000  0.4917420000000  0.5008430000000 1.0
C      1  0.4631260000000  0.4469930000000  0.4156930000000 1.0
C      1  0.3961280000000  0.5740320000000  0.3897020000000 1.0
C      1  0.4833810000000  0.4216220000000  0.5853630000000 1.0
C      1  0.4418860000000  0.5107990000000  0.4491180000000 1.0
C      1  0.5404120000000  0.4562390000000  0.4236950000000 1.0
C      1  0.5749730000000  0.4438420000000  0.5528840000000 1.0
C      1  0.5677450000000  0.5676530000000  0.4947640000000 1.0
C      1  0.5750550000000  0.5105600000000  0.4969510000000 1.0
C      1  0.4762200000000  0.3871330000000  0.5270090000000 1.0
C      1  0.5970740000000  0.4980510000000  0.4063880000000 1.0
C      1  0.4207780000000  0.4598790000000  0.5620160000000 1.0
C      1  0.4857270000000  0.3838560000000  0.4992260000000 1.0
C      1  0.4135160000000  0.4958420000000  0.5601180000000 1.0
C      1  0.5858670000000  0.4705610000000  0.5574380000000 1.0
C      1  0.5729300000000  0.5166200000000  0.5714930000000 1.0
C      1  0.4632640000000  0.4697470000000  0.5144800000000 1.0
C      1  0.6172620000000  0.4997260000000  0.4961200000000 1.0
C      1  0.4747610000000  0.4967170000000  0.3962610000000 1.0
C      1  0.4357850000000  0.4413370000000  0.4100530000000 1.0
C      1  0.3976430000000  0.5429120000000  0.5464570000000 1.0
C      1  0.5312690000000  0.5759660000000  0.5380230000000 1.0
C      1  0.5008720000000  0.6049560000000  0.5113360000000 1.0
C      1  0.5394350000000  0.4255780000000  0.5177940000000 1.0
C      1  0.5166550000000  0.4692780000000  0.5058510000000 1.0
C      1  0.5367220000000  0.5345980000000  0.4754580000000 1.0
C      1  0.4139020000000  0.5634060000000  0.4055230000000 1.0
C      1  0.5030050000000  0.3838710000000  0.4562870000000 1.0
C      1  0.4461390000000  0.4808730000000  0.4536300000000 1.0
C      1  0.5600330000000  0.4470360000000  0.5997290000000 1.0
C      1  0.5423220000000  0.4863090000000  0.5550810000000 1.0
C      1  0.6080170000000  0.5205180000000  0.4195210000000 1.0
C      1  0.5191830000000  0.4862020000000  0.3657610000000 1.0
C      1  0.5930540000000  0.5383670000000  0.4329130000000 1.0
C      1  0.5160910000000  0.5182470000000  0.5352160000000 1.0
C      1  0.5270150000000  0.3859450000000  0.4726020000000 1.0
C      1  0.4383820000000  0.5235040000000  0.4211010000000 1.0
C      1  0.5315520000000  0.4896040000000  0.6042530000000 1.0
C      1  0.6010590000000  0.4727550000000  0.4186820000000 1.0
C      1  0.4310700000000  0.5689080000000  0.5182550000000 1.0
C      1  0.5491300000000  0.5144380000000  0.3882410000000 1.0
C      1  0.5934550000000  0.5522860000000  0.4896340000000 1.0
C      1  0.4781730000000  0.3904670000000  0.4707000000000 1.0
C      1  0.5860680000000  0.4329310000000  0.4479560000000 1.0
C      1  0.4527640000000  0.4930520000000  0.5829580000000 1.0
C      1  0.5406460000000  0.5032360000000  0.5298680000000 1.0
C      1  0.5163850000000  0.3855910000000  0.4996440000000 1.0
C      1  0.4358550000000  0.6346130000000  0.5725610000000 1.0
C      1  0.5969980000000  0.4901220000000  0.5389970000000 1.0
C      1  0.3900810000000  0.5122040000000  0.4687980000000 1.0
C      1  0.5032910000000  0.4684480000000  0.5390700000000 1.0
C      1  0.5383460000000  0.5784830000000  0.4100050000000 1.0
C      1  0.4155290000000  0.5162100000000  0.4625690000000 1.0
C      1  0.5017740000000  0.6160520000000  0.4471490000000 1.0
C      1  0.5666300000000  0.4870920000000  0.5738120000000 1.0
C      1  0.5180550000000  0.4730250000000  0.5620230000000 1.0
C      1  0.5328110000000  0.5188780000000  0.6014720000000 1.0
C      1  0.4685570000000  0.4294120000000  0.5362950000000 1.0
C      1  0.4989380000000  0.5564090000000  0.4939130000000 1.0
C      1  0.4782770000000  0.5753540000000  0.5700880000000 1.0
C      1  0.5018470000000  0.3952090000000  0.5426400000000 1.0
C      1  0.4966630000000  0.4823970000000  0.4344560000000 1.0
C      1  0.5834640000000  0.5173370000000  0.5435080000000 1.0
C      1  0.4974470000000  0.4823720000000  0.4871030000000 1.0
C      1  0.4651970000000  0.5282200000000  0.4587380000000 1.0
C      1  0.4712540000000  0.5658860000000  0.4885400000000 1.0
C      1  0.5094000000000  0.5347320000000  0.6044680000000 1.0
C      1  0.5521930000000  0.3954280000000  0.4645670000000 1.0
C      1  0.5587080000000  0.4712770000000  0.4395950000000 1.0
C      1  0.5408850000000  0.4548110000000  0.3956110000000 1.0
C      1  0.3699170000000  0.5047950000000  0.4844220000000 1.0
C      1  0.4569690000000  0.5809070000000  0.5088280000000 1.0
C      1  0.4781150000000  0.6100730000000  0.4365020000000 1.0
C      1  0.4644830000000  0.4789730000000  0.5625100000000 1.0
C      1  0.4651190000000  0.4410190000000  0.5074770000000 1.0
C      1  0.5516980000000  0.5223980000000  0.4541720000000 1.0
C      1  0.5509090000000  0.5954640000000  0.5298640000000 1.0
C      1  0.5198090000000  0.6128350000000  0.4664800000000 1.0
C      1  0.4762680000000  0.4716070000000  0.5397480000000 1.0
C      1  0.5618790000000  0.5233680000000  0.5208550000000 1.0
C      1  0.5190060000000  0.4404160000000  0.5021310000000 1.0
C      1  0.4997180000000  0.4286250000000  0.4393760000000 1.0
C      1  0.5723970000000  0.4115390000000  0.4570650000000 1.0
C      1  0.4526300000000  0.6164030000000  0.5631400000000 1.0
C      1  0.4674830000000  0.5493720000000  0.5780710000000 1.0
C      1  0.4159100000000  0.4385730000000  0.5420280000000 1.0
C      1  0.5670620000000  0.4382930000000  0.5247830000000 1.0
C      1  0.5660390000000  0.4322860000000  0.5773690000000 1.0
C      1  0.4570860000000  0.5937660000000  0.4352470000000 1.0
C      1  0.4356630000000  0.5409570000000  0.5139590000000 1.0
C      1  0.3937870000000  0.5136620000000  0.5483130000000 1.0
C      1  0.4581670000000  0.5554700000000  0.4649290000000 1.0
C      1  0.5565110000000  0.4753740000000  0.5995300000000 1.0
C      1  0.4536370000000  0.4044970000000  0.5349490000000 1.0
C      1  0.4977760000000  0.4059690000000  0.5687300000000 1.0
C      1  0.4378870000000  0.4275590000000  0.4988450000000 1.0
C      1  0.4191490000000  0.6523810000000  0.5817700000000 1.0
C      1  0.4684850000000  0.4448230000000  0.5927630000000 1.0
C      1  0.4687650000000  0.5961290000000  0.5526840000000 1.0
C      1  0.4166580000000  0.4326460000000  0.4273020000000 1.0
C      1  0.4810940000000  0.5369390000000  0.6019680000000 1.0
C      1  0.5243220000000  0.4373470000000  0.4360990000000 1.0
C      1  0.4470260000000  0.5684860000000  0.4418760000000 1.0
C      1  0.5520330000000  0.5930830000000  0.5008560000000 1.0
C      1  0.4841560000000  0.4684980000000  0.6022940000000 1.0
C      1  0.5093300000000  0.5395390000000  0.4722080000000 1.0
C      1  0.4920620000000  0.4739130000000  0.4611270000000 1.0
C      1  0.4785970000000  0.4719210000000  0.4119710000000 1.0
C      1  0.5653800000000  0.5407080000000  0.4372630000000 1.0
C      1  0.5250920000000  0.3997610000000  0.5238850000000 1.0
C      1  0.4543700000000  0.5290520000000  0.5309840000000 1.0
C      1  0.4708740000000  0.4349670000000  0.4433480000000 1.0
C      1  0.4352420000000  0.4181830000000  0.4722860000000 1.0
C      1  0.5512850000000  0.5614260000000  0.4248590000000 1.0
C      1  0.5248210000000  0.6041010000000  0.4928190000000 1.0
C      1  0.4688980000000  0.5169860000000  0.6183990000000 1.0
C      1  0.4998180000000  0.5128120000000  0.4010440000000 1.0
C      1  0.3625360000000  0.5001880000000  0.5095910000000 1.0
C      1  0.5298400000000  0.4622560000000  0.3723460000000 1.0
C      1  0.5099680000000  0.4753900000000  0.5903490000000 1.0
C      1  0.4153060000000  0.4242770000000  0.4530760000000 1.0
C      1  0.5020170000000  0.5108120000000  0.4304980000000 1.0
C      1  0.5879110000000  0.4540150000000  0.5084490000000 1.0
C      1  0.5587060000000  0.4902910000000  0.4856150000000 1.0
C      1  0.5494360000000  0.5587490000000  0.5796300000000 1.0
C      1  0.4605730000000  0.4112170000000  0.4602080000000 1.0
C      1  0.5545160000000  0.5320920000000  0.5867730000000 1.0
C      1  0.5404050000000  0.4844620000000  0.5064770000000 1.0
C      1  0.4728290000000  0.5150870000000  0.5156210000000 1.0
C      1  0.4919220000000  0.4326490000000  0.4956750000000 1.0
END
