TITL C-247197-3123-315 -4.80331813423416e-07 125000 -446.266044818533 0 0 74 (C1) n - 1
REM
REM in /home/nfs/bkarasulu/CARBON/AIRSS/Generating-Clusters/LCBOP/Only-C1/SD-CG/FIRE-HFTN
REM
REM
REM
REM
REM
REM ./C.cell (11c1c37f851c82e70ff6c80c92926a4b)
REM AIRSS Version 0.9.1 bugfix July 2018 build 013d7b7c2542+ Fri, 06 Jul 2018 19:26:36 +0100
REM compiler GCC version 9.2.1 20190827 (Red Hat 9.2.1-1)
REM options -cpp -mtune=generic -march=x86-64 -g -O0 -fpre-include=/usr/include/finclude/math-vector-fortran.h
REM seed -788228362 -1151115316 1632558969 517307212 318205723 1516293936 913094552 -1799032321 -622477827 -344296374 -315149050 -1532457140 -635090238 -785017642 -639983326 -933836302 -1450660983 -1156713649 -1301318892 418191993 -825650111 1945108663 1823250594 -1039165702 -400235506 -1769924436 -1550760461 -310269611 1653501926 597787318 1171167884 1890060267 -2106520300
REM
CELL 1.54180   50.00000   50.00000   50.00000   90.00000   90.00000   90.00000
LATT -1
SFAC C  
C      1  0.4931220000000  0.4481790000000  0.5192450000000 1.0
C      1  0.4664510000000  0.4420970000000  0.5280550000000 1.0
C      1  0.5501160000000  0.5356770000000  0.4806100000000 1.0
C      1  0.4604040000000  0.5177900000000  0.4513000000000 1.0
C      1  0.4968850000000  0.5296420000000  0.4015150000000 1.0
C      1  0.5320100000000  0.5002070000000  0.4276880000000 1.0
C      1  0.5174380000000  0.5656630000000  0.4466360000000 1.0
C      1  0.5263600000000  0.5219620000000  0.4880270000000 1.0
C      1  0.4610700000000  0.4921720000000  0.5940900000000 1.0
C      1  0.4775810000000  0.4816960000000  0.5743610000000 1.0
C      1  0.5517840000000  0.5809250000000  0.5044660000000 1.0
C      1  0.4334950000000  0.5224160000000  0.4586290000000 1.0
C      1  0.4261750000000  0.5229400000000  0.5209320000000 1.0
C      1  0.4512000000000  0.4420510000000  0.4647130000000 1.0
C      1  0.5219960000000  0.4733660000000  0.4268310000000 1.0
C      1  0.5440310000000  0.5723600000000  0.4544670000000 1.0
C      1  0.5112850000000  0.4415910000000  0.4978050000000 1.0
C      1  0.4254320000000  0.4405010000000  0.5059280000000 1.0
C      1  0.4790710000000  0.5094610000000  0.4712110000000 1.0
C      1  0.5306550000000  0.5293510000000  0.5674290000000 1.0
C      1  0.4236160000000  0.4938850000000  0.5140320000000 1.0
C      1  0.4490110000000  0.4990390000000  0.6161760000000 1.0
C      1  0.4760450000000  0.5468250000000  0.4004300000000 1.0
C      1  0.5167490000000  0.4594100000000  0.4508590000000 1.0
C      1  0.4786680000000  0.5407930000000  0.5711630000000 1.0
C      1  0.5584340000000  0.4484690000000  0.4851210000000 1.0
C      1  0.5028910000000  0.4444360000000  0.4703820000000 1.0
C      1  0.5177060000000  0.4612110000000  0.4026740000000 1.0
C      1  0.5701840000000  0.5040610000000  0.5421250000000 1.0
C      1  0.4659230000000  0.4950850000000  0.4934910000000 1.0
C      1  0.5234740000000  0.4889880000000  0.5246260000000 1.0
C      1  0.4340240000000  0.5443190000000  0.5025080000000 1.0
C      1  0.5889050000000  0.4840910000000  0.4996970000000 1.0
C      1  0.5490280000000  0.5650560000000  0.4827530000000 1.0
C      1  0.5743390000000  0.4707750000000  0.4788020000000 1.0
C      1  0.5092290000000  0.5383590000000  0.4460040000000 1.0
C      1  0.4446020000000  0.5729040000000  0.4335590000000 1.0
C      1  0.4530870000000  0.5371170000000  0.5632940000000 1.0
C      1  0.4771130000000  0.4360100000000  0.4630670000000 1.0
C      1  0.6117170000000  0.4981240000000  0.4939520000000 1.0
C      1  0.4588790000000  0.5632830000000  0.4129370000000 1.0
C      1  0.5568230000000  0.5043350000000  0.4422190000000 1.0
C      1  0.4980130000000  0.4633400000000  0.5829950000000 1.0
C      1  0.5622810000000  0.5293900000000  0.4540890000000 1.0
C      1  0.4213700000000  0.4988090000000  0.4670870000000 1.0
C      1  0.5051920000000  0.4690010000000  0.5373990000000 1.0
C      1  0.5530860000000  0.5186360000000  0.5570240000000 1.0
C      1  0.5599910000000  0.4373860000000  0.5764680000000 1.0
C      1  0.5376800000000  0.4389570000000  0.5581770000000 1.0
C      1  0.4570410000000  0.5587780000000  0.5110610000000 1.0
C      1  0.5758860000000  0.4559970000000  0.5372790000000 1.0
C      1  0.4342160000000  0.4546270000000  0.4829820000000 1.0
C      1  0.4327820000000  0.5222520000000  0.5502870000000 1.0
C      1  0.5053650000000  0.5371680000000  0.5724330000000 1.0
C      1  0.4279080000000  0.4757120000000  0.5372810000000 1.0
C      1  0.5708640000000  0.4828070000000  0.4536510000000 1.0
C      1  0.5825830000000  0.4475980000000  0.5641740000000 1.0
C      1  0.5499450000000  0.4419910000000  0.5312690000000 1.0
C      1  0.4272770000000  0.4947190000000  0.5588310000000 1.0
C      1  0.4747480000000  0.5021660000000  0.5212470000000 1.0
C      1  0.4385920000000  0.4497570000000  0.5295680000000 1.0
C      1  0.4800900000000  0.4861060000000  0.5452930000000 1.0
C      1  0.5140650000000  0.5223930000000  0.4226660000000 1.0
C      1  0.4291320000000  0.5463220000000  0.4737610000000 1.0
C      1  0.5635780000000  0.5551520000000  0.4407400000000 1.0
C      1  0.5395800000000  0.4408620000000  0.5046930000000 1.0
C      1  0.4327270000000  0.5693310000000  0.4575750000000 1.0
C      1  0.4364130000000  0.4841620000000  0.4881840000000 1.0
C      1  0.5152440000000  0.4551320000000  0.5621560000000 1.0
C      1  0.4818420000000  0.5504950000000  0.5174520000000 1.0
C      1  0.5185670000000  0.5146710000000  0.5137550000000 1.0
C      1  0.5044700000000  0.5226650000000  0.4693880000000 1.0
C      1  0.4927180000000  0.5249080000000  0.5204900000000 1.0
C      1  0.5797450000000  0.4820850000000  0.5267380000000 1.0
END
