TITL C-247195-3186-616 0.00680016886965107 125000 -194.309968562495 0 0 34 (C1) n - 1
REM
REM in /home/nfs/bkarasulu/CARBON/AIRSS/Generating-Clusters/LCBOP/Only-C1/SD-CG/FIRE-HFTN
REM
REM
REM
REM
REM
REM ./C.cell (11c1c37f851c82e70ff6c80c92926a4b)
REM AIRSS Version 0.9.1 bugfix July 2018 build 013d7b7c2542+ Fri, 06 Jul 2018 19:26:36 +0100
REM compiler GCC version 9.2.1 20190827 (Red Hat 9.2.1-1)
REM options -cpp -mtune=generic -march=x86-64 -g -O0 -fpre-include=/usr/include/finclude/math-vector-fortran.h
REM seed 2129688483 -1837118772 -1290089290 387898860 1678244715 2055040421 -326917377 587242083 -2106152488 1115734952 -1779498989 -1511743997 308516663 911358834 596826312 1834841000 -466786016 -2060898516 -112306704 1961998983 -1828488682 140819301 -1200709351 -1554195590 65286493 -315154980 -1954767660 -951176846 1596869240 232865116 966915237 1043539440 941706265
REM
CELL 1.54180   50.00000   50.00000   50.00000   90.00000   90.00000   90.00000
LATT -1
SFAC C  
C      1  0.5558080000000  0.4729430000000  0.5266740000000 1.0
C      1  0.4820320000000  0.5782670000000  0.5122190000000 1.0
C      1  0.4987730000000  0.4750250000000  0.4970410000000 1.0
C      1  0.4905960000000  0.4494230000000  0.5052990000000 1.0
C      1  0.4744560000000  0.4832370000000  0.5749200000000 1.0
C      1  0.4551530000000  0.5080220000000  0.4490420000000 1.0
C      1  0.4650890000000  0.5758000000000  0.4635760000000 1.0
C      1  0.4983400000000  0.5082050000000  0.5334330000000 1.0
C      1  0.4696780000000  0.4343580000000  0.4978150000000 1.0
C      1  0.5653690000000  0.4477920000000  0.5142620000000 1.0
C      1  0.4905680000000  0.4840580000000  0.4713370000000 1.0
C      1  0.4459020000000  0.4609590000000  0.4615820000000 1.0
C      1  0.4044910000000  0.4582440000000  0.4270770000000 1.0
C      1  0.5644980000000  0.5348520000000  0.4891580000000 1.0
C      1  0.5646080000000  0.4719900000000  0.5543840000000 1.0
C      1  0.4509830000000  0.4398210000000  0.4793930000000 1.0
C      1  0.5122660000000  0.5887290000000  0.5770830000000 1.0
C      1  0.4858350000000  0.4958730000000  0.5551730000000 1.0
C      1  0.5079100000000  0.5002300000000  0.4555430000000 1.0
C      1  0.4648550000000  0.5562360000000  0.4454990000000 1.0
C      1  0.5792180000000  0.4336060000000  0.5355720000000 1.0
C      1  0.5410650000000  0.4932400000000  0.5142490000000 1.0
C      1  0.5784480000000  0.4483890000000  0.5590630000000 1.0
C      1  0.4244390000000  0.4594240000000  0.4438070000000 1.0
C      1  0.5034460000000  0.5768220000000  0.5556440000000 1.0
C      1  0.4717170000000  0.5831890000000  0.4882530000000 1.0
C      1  0.5619040000000  0.4397650000000  0.4885940000000 1.0
C      1  0.4995160000000  0.5218550000000  0.4413840000000 1.0
C      1  0.4630720000000  0.4836950000000  0.4617470000000 1.0
C      1  0.4721420000000  0.5296280000000  0.4417380000000 1.0
C      1  0.4941370000000  0.5637140000000  0.5328120000000 1.0
C      1  0.5126860000000  0.4922900000000  0.5147340000000 1.0
C      1  0.4969200000000  0.5359650000000  0.5304780000000 1.0
C      1  0.5540790000000  0.5143520000000  0.5014160000000 1.0
END
