TITL C-247199-3331-512 -1.60723037445832e-06 125000 -842.091078511384 0 0 139 (C1) n - 1
REM
REM in /home/nfs/bkarasulu/CARBON/AIRSS/Generating-Clusters/LCBOP/Only-C1/SD-CG/FIRE-HFTN
REM
REM
REM
REM
REM
REM ./C.cell (11c1c37f851c82e70ff6c80c92926a4b)
REM AIRSS Version 0.9.1 bugfix July 2018 build 013d7b7c2542+ Fri, 06 Jul 2018 19:26:36 +0100
REM compiler GCC version 9.2.1 20190827 (Red Hat 9.2.1-1)
REM options -cpp -mtune=generic -march=x86-64 -g -O0 -fpre-include=/usr/include/finclude/math-vector-fortran.h
REM seed -1725644215 2076638072 1259884116 -1543299247 -17381798 -2092754915 1911511520 -1356045466 -736236805 196796655 987381281 -2025227463 880318148 958797828 766598610 -355604751 1783197666 808388147 774477853 -732877412 -621393318 1131018584 686501466 969321770 1527022664 -33731509 -1319935585 -1577971270 -210459830 1820925106 -533378857 -1444131417 -1286907298
REM
CELL 1.54180   50.00000   50.00000   50.00000   90.00000   90.00000   90.00000
LATT -1
SFAC C  
C      1  0.4205050000000  0.5602270000000  0.4949960000000 1.0
C      1  0.4806850000000  0.6002270000000  0.5272310000000 1.0
C      1  0.5274640000000  0.5220990000000  0.5827810000000 1.0
C      1  0.5167120000000  0.4400620000000  0.4350680000000 1.0
C      1  0.5257020000000  0.5531530000000  0.4060690000000 1.0
C      1  0.4137680000000  0.5504280000000  0.5252340000000 1.0
C      1  0.5496850000000  0.4493850000000  0.4708870000000 1.0
C      1  0.4278400000000  0.4775480000000  0.5741490000000 1.0
C      1  0.4907040000000  0.4651080000000  0.5133770000000 1.0
C      1  0.6030370000000  0.4593790000000  0.5538130000000 1.0
C      1  0.4286110000000  0.5143980000000  0.4287750000000 1.0
C      1  0.5510030000000  0.4993280000000  0.5246550000000 1.0
C      1  0.5650570000000  0.5016730000000  0.4487080000000 1.0
C      1  0.5088680000000  0.5840910000000  0.4693820000000 1.0
C      1  0.4750390000000  0.4689280000000  0.5366970000000 1.0
C      1  0.6023780000000  0.4745880000000  0.4664980000000 1.0
C      1  0.5191930000000  0.5124360000000  0.4423830000000 1.0
C      1  0.4645000000000  0.4223180000000  0.5415910000000 1.0
C      1  0.5459000000000  0.5184460000000  0.4342580000000 1.0
C      1  0.4468780000000  0.5477220000000  0.4874280000000 1.0
C      1  0.4215490000000  0.4544810000000  0.5559130000000 1.0
C      1  0.4437550000000  0.5366930000000  0.4365580000000 1.0
C      1  0.5226420000000  0.5083220000000  0.5239590000000 1.0
C      1  0.4755140000000  0.3980890000000  0.4389750000000 1.0
C      1  0.5502480000000  0.5914200000000  0.5223980000000 1.0
C      1  0.5020370000000  0.4043760000000  0.4856200000000 1.0
C      1  0.6126930000000  0.5021950000000  0.5069810000000 1.0
C      1  0.5058040000000  0.5590040000000  0.5285210000000 1.0
C      1  0.5642330000000  0.4540230000000  0.4464510000000 1.0
C      1  0.5317940000000  0.6104020000000  0.5321410000000 1.0
C      1  0.4838610000000  0.5232420000000  0.4025790000000 1.0
C      1  0.5586740000000  0.5612410000000  0.5666240000000 1.0
C      1  0.5602640000000  0.4037480000000  0.5132770000000 1.0
C      1  0.4934620000000  0.4199010000000  0.5472780000000 1.0
C      1  0.5368550000000  0.5639370000000  0.3827210000000 1.0
C      1  0.4991920000000  0.4890590000000  0.6109130000000 1.0
C      1  0.4550510000000  0.4436030000000  0.6011290000000 1.0
C      1  0.5610190000000  0.4809630000000  0.5453490000000 1.0
C      1  0.4970180000000  0.5484250000000  0.4063840000000 1.0
C      1  0.4808010000000  0.5712500000000  0.4102680000000 1.0
C      1  0.5409120000000  0.4598590000000  0.5507700000000 1.0
C      1  0.4439640000000  0.4929880000000  0.4171750000000 1.0
C      1  0.6124980000000  0.4989180000000  0.4787610000000 1.0
C      1  0.4500490000000  0.5603540000000  0.5676780000000 1.0
C      1  0.4925310000000  0.5813440000000  0.5720700000000 1.0
C      1  0.5489620000000  0.4224970000000  0.5868500000000 1.0
C      1  0.6021270000000  0.5466540000000  0.4569480000000 1.0
C      1  0.4980470000000  0.4316480000000  0.4802130000000 1.0
C      1  0.5018930000000  0.3955160000000  0.4327420000000 1.0
C      1  0.4684840000000  0.4662950000000  0.4421220000000 1.0
C      1  0.5212970000000  0.4937130000000  0.5905040000000 1.0
C      1  0.4561220000000  0.5993690000000  0.4458540000000 1.0
C      1  0.4090230000000  0.4588340000000  0.5087050000000 1.0
C      1  0.3918130000000  0.4894130000000  0.5401920000000 1.0
C      1  0.4102550000000  0.5044770000000  0.5567460000000 1.0
C      1  0.4406110000000  0.4332630000000  0.5500090000000 1.0
C      1  0.4017150000000  0.4590890000000  0.4605510000000 1.0
C      1  0.4296080000000  0.5891760000000  0.4873910000000 1.0
C      1  0.4903880000000  0.4746240000000  0.4027570000000 1.0
C      1  0.6132860000000  0.5232370000000  0.4639570000000 1.0
C      1  0.4506340000000  0.4787160000000  0.5248770000000 1.0
C      1  0.5534640000000  0.5663400000000  0.4479970000000 1.0
C      1  0.4758270000000  0.4273300000000  0.5949590000000 1.0
C      1  0.4767670000000  0.4967260000000  0.5738150000000 1.0
C      1  0.4715540000000  0.4879830000000  0.6003410000000 1.0
C      1  0.5061950000000  0.5177460000000  0.4670930000000 1.0
C      1  0.5675630000000  0.4372230000000  0.4251680000000 1.0
C      1  0.5712970000000  0.5221160000000  0.5259270000000 1.0
C      1  0.5507920000000  0.5885740000000  0.4935160000000 1.0
C      1  0.4665130000000  0.5897270000000  0.4231400000000 1.0
C      1  0.5051700000000  0.6137040000000  0.5323410000000 1.0
C      1  0.6038130000000  0.4475820000000  0.4767200000000 1.0
C      1  0.5057260000000  0.5607210000000  0.5575710000000 1.0
C      1  0.4643270000000  0.5036620000000  0.4879190000000 1.0
C      1  0.5182380000000  0.4737810000000  0.5674540000000 1.0
C      1  0.5664760000000  0.4081670000000  0.4847050000000 1.0
C      1  0.5442790000000  0.4008860000000  0.4659430000000 1.0
C      1  0.4049150000000  0.5112850000000  0.4445510000000 1.0
C      1  0.5451860000000  0.4110390000000  0.5368880000000 1.0
C      1  0.4345160000000  0.6250990000000  0.5394460000000 1.0
C      1  0.5571870000000  0.5684110000000  0.5386580000000 1.0
C      1  0.4594170000000  0.5365740000000  0.5553020000000 1.0
C      1  0.5246750000000  0.4122150000000  0.4378550000000 1.0
C      1  0.5439410000000  0.4600940000000  0.4967380000000 1.0
C      1  0.6298960000000  0.4579890000000  0.5580540000000 1.0
C      1  0.3991630000000  0.5449360000000  0.4793480000000 1.0
C      1  0.4370470000000  0.4597090000000  0.5071520000000 1.0
C      1  0.4426480000000  0.4327320000000  0.4647570000000 1.0
C      1  0.4543080000000  0.5047800000000  0.5145020000000 1.0
C      1  0.3872050000000  0.4974320000000  0.4896380000000 1.0
C      1  0.4896370000000  0.4731810000000  0.4585000000000 1.0
C      1  0.5048800000000  0.5355310000000  0.5710460000000 1.0
C      1  0.4900680000000  0.4770140000000  0.5586610000000 1.0
C      1  0.4552700000000  0.4108190000000  0.4515730000000 1.0
C      1  0.5472710000000  0.5741980000000  0.3611490000000 1.0
C      1  0.5231570000000  0.3885590000000  0.4803510000000 1.0
C      1  0.5541210000000  0.4870950000000  0.4974790000000 1.0
C      1  0.5435510000000  0.5472840000000  0.4279830000000 1.0
C      1  0.5075550000000  0.4553400000000  0.4121760000000 1.0
C      1  0.4261350000000  0.4513440000000  0.4489270000000 1.0
C      1  0.5228680000000  0.5378790000000  0.5158960000000 1.0
C      1  0.5494360000000  0.5318330000000  0.4801400000000 1.0
C      1  0.4865300000000  0.4982570000000  0.4719370000000 1.0
C      1  0.4012580000000  0.4625180000000  0.5360180000000 1.0
C      1  0.5900060000000  0.4241530000000  0.4796940000000 1.0
C      1  0.5802110000000  0.4777280000000  0.4475260000000 1.0
C      1  0.5060270000000  0.4888990000000  0.5121510000000 1.0
C      1  0.4834490000000  0.5845100000000  0.4832630000000 1.0
C      1  0.4526280000000  0.5441980000000  0.4604730000000 1.0
C      1  0.5214330000000  0.5341620000000  0.4856690000000 1.0
C      1  0.5563440000000  0.4313200000000  0.5589980000000 1.0
C      1  0.5063040000000  0.4499020000000  0.4598230000000 1.0
C      1  0.4524580000000  0.4434420000000  0.4900700000000 1.0
C      1  0.4126280000000  0.5317130000000  0.5459120000000 1.0
C      1  0.4716820000000  0.4972370000000  0.4051590000000 1.0
C      1  0.5186570000000  0.4236170000000  0.5311950000000 1.0
C      1  0.5297840000000  0.4502540000000  0.5221780000000 1.0
C      1  0.3800550000000  0.5019090000000  0.5170820000000 1.0
C      1  0.4801540000000  0.4449180000000  0.4966070000000 1.0
C      1  0.4639800000000  0.5503720000000  0.5096740000000 1.0
C      1  0.5537610000000  0.5446740000000  0.5238530000000 1.0
C      1  0.4587970000000  0.5296210000000  0.5280380000000 1.0
C      1  0.4797090000000  0.5233630000000  0.5691530000000 1.0
C      1  0.5597930000000  0.5061370000000  0.4767390000000 1.0
C      1  0.5858880000000  0.4369420000000  0.5566530000000 1.0
C      1  0.3957440000000  0.4701790000000  0.4857170000000 1.0
C      1  0.4835100000000  0.5734220000000  0.5124070000000 1.0
C      1  0.5376450000000  0.5809070000000  0.4687280000000 1.0
C      1  0.5896830000000  0.4830840000000  0.5463050000000 1.0
C      1  0.3947470000000  0.5179390000000  0.4706020000000 1.0
C      1  0.4479750000000  0.4710170000000  0.5962300000000 1.0
C      1  0.4564460000000  0.5938220000000  0.4737730000000 1.0
C      1  0.5816390000000  0.5634900000000  0.4524820000000 1.0
C      1  0.4422950000000  0.4684760000000  0.4326560000000 1.0
C      1  0.5961100000000  0.5064730000000  0.5294870000000 1.0
C      1  0.4939030000000  0.4195010000000  0.5762760000000 1.0
C      1  0.5506720000000  0.5391290000000  0.5811800000000 1.0
C      1  0.4559880000000  0.6119110000000  0.5327730000000 1.0
C      1  0.4658420000000  0.5802600000000  0.5772510000000 1.0
END
