TITL C-247201-3759-362 -5878.14588892559 125000 -952.058047509154 0 0 157 (C1) n - 1
REM
REM in /home/nfs/bkarasulu/CARBON/AIRSS/Generating-Clusters/LCBOP/Only-C1/SD-CG/FIRE-HFTN
REM
REM
REM
REM
REM
REM ./C.cell (11c1c37f851c82e70ff6c80c92926a4b)
REM AIRSS Version 0.9.1 bugfix July 2018 build 013d7b7c2542+ Fri, 06 Jul 2018 19:26:36 +0100
REM compiler GCC version 9.2.1 20190827 (Red Hat 9.2.1-1)
REM options -cpp -mtune=generic -march=x86-64 -g -O0 -fpre-include=/usr/include/finclude/math-vector-fortran.h
REM seed 777258862 -1164579615 863159246 -1113769697 -648210602 -2004120922 -1127408947 -1842517061 -154477221 -966946143 2077440711 -1758941107 695195615 837436588 -1503133450 600098381 -1963757452 320143403 -823042454 -866529661 -1113020530 1726345915 -854135072 -1510413466 -286532109 399313890 628986301 1007652319 81061659 1089463547 -354978647 -34915349 -810647798
REM
CELL 1.54180   50.00000   50.00000   50.00000   90.00000   90.00000   90.00000
LATT -1
SFAC C  
C      1  0.4626220000000  0.3724940000000  0.4989860000000 1.0
C      1  0.5413990000000  0.5672070000000  0.4376200000000 1.0
C      1  0.3731120000000  0.4474740000000  0.4628330000000 1.0
C      1  0.6010500000000  0.5111590000000  0.4972430000000 1.0
C      1  0.5577950000000  0.4198170000000  0.4416710000000 1.0
C      1  0.4668730000000  0.3462170000000  0.5056080000000 1.0
C      1  0.5825940000000  0.5704120000000  0.4738900000000 1.0
C      1  0.5901150000000  0.4890940000000  0.4276900000000 1.0
C      1  0.4767510000000  0.5918800000000  0.5194090000000 1.0
C      1  0.6037210000000  0.5316910000000  0.5404280000000 1.0
C      1  0.4542490000000  0.5961750000000  0.5020570000000 1.0
C      1  0.4719430000000  0.5264910000000  0.5472300000000 1.0
C      1  0.4757780000000  0.4758430000000  0.6033050000000 1.0
C      1  0.5121790000000  0.5034450000000  0.5709510000000 1.0
C      1  0.5624950000000  0.4559640000000  0.5684760000000 1.0
C      1  0.4932950000000  0.4279800000000  0.4781020000000 1.0
C      1  0.5559610000000  0.5206860000000  0.5624820000000 1.0
C      1  0.4320630000000  0.4837350000000  0.5681630000000 1.0
C      1  0.5473500000000  0.5248490000000  0.4886460000000 1.0
C      1  0.5535750000000  0.5483870000000  0.5650540000000 1.0
C      1  0.4822380000000  0.3924430000000  0.5069600000000 1.0
C      1  0.4397940000000  0.3797300000000  0.4839810000000 1.0
C      1  0.5981960000000  0.4852950000000  0.4544500000000 1.0
C      1  0.4212230000000  0.4336690000000  0.4951520000000 1.0
C      1  0.4462080000000  0.3545750000000  0.5904680000000 1.0
C      1  0.4943500000000  0.5800200000000  0.5744700000000 1.0
C      1  0.5064040000000  0.5159870000000  0.4608160000000 1.0
C      1  0.5723710000000  0.4199190000000  0.4657660000000 1.0
C      1  0.4490960000000  0.5286090000000  0.5656390000000 1.0
C      1  0.5081000000000  0.4736240000000  0.3926590000000 1.0
C      1  0.4130320000000  0.4291830000000  0.5203490000000 1.0
C      1  0.4191840000000  0.5364960000000  0.4168160000000 1.0
C      1  0.4937310000000  0.5267900000000  0.4856030000000 1.0
C      1  0.5362740000000  0.4437250000000  0.5655060000000 1.0
C      1  0.4412920000000  0.5420570000000  0.4328840000000 1.0
C      1  0.5329290000000  0.5616960000000  0.5511740000000 1.0
C      1  0.5613860000000  0.5035010000000  0.5864860000000 1.0
C      1  0.5546570000000  0.5162200000000  0.4070190000000 1.0
C      1  0.4961110000000  0.5923710000000  0.4663470000000 1.0
C      1  0.5196520000000  0.5298200000000  0.4415390000000 1.0
C      1  0.4971570000000  0.4545670000000  0.6028930000000 1.0
C      1  0.5075640000000  0.4812800000000  0.5012730000000 1.0
C      1  0.5945180000000  0.6188940000000  0.5094210000000 1.0
C      1  0.5801910000000  0.6026030000000  0.5255380000000 1.0
C      1  0.4666360000000  0.5472530000000  0.6104370000000 1.0
C      1  0.4533460000000  0.4606590000000  0.4675650000000 1.0
C      1  0.4897260000000  0.4631070000000  0.5140010000000 1.0
C      1  0.5693620000000  0.5768950000000  0.5206370000000 1.0
C      1  0.4568360000000  0.4717310000000  0.5802720000000 1.0
C      1  0.5039440000000  0.4429550000000  0.5280050000000 1.0
C      1  0.5423980000000  0.5180000000000  0.5148760000000 1.0
C      1  0.5984140000000  0.5361980000000  0.5120260000000 1.0
C      1  0.5594460000000  0.5037940000000  0.4746920000000 1.0
C      1  0.4806190000000  0.5176300000000  0.4010480000000 1.0
C      1  0.5471990000000  0.4781080000000  0.4781260000000 1.0
C      1  0.4999550000000  0.6069560000000  0.5122990000000 1.0
C      1  0.5175420000000  0.4437010000000  0.5876590000000 1.0
C      1  0.4385730000000  0.4557620000000  0.4188080000000 1.0
C      1  0.4901210000000  0.5447990000000  0.4081530000000 1.0
C      1  0.6025400000000  0.6148850000000  0.4839150000000 1.0
C      1  0.3617330000000  0.5354860000000  0.4555090000000 1.0
C      1  0.4719440000000  0.6249980000000  0.5898370000000 1.0
C      1  0.4646650000000  0.3876200000000  0.5534130000000 1.0
C      1  0.5956450000000  0.4837570000000  0.5404260000000 1.0
C      1  0.5177560000000  0.4728980000000  0.4744790000000 1.0
C      1  0.5145340000000  0.5014230000000  0.6181920000000 1.0
C      1  0.4295120000000  0.5793760000000  0.5060960000000 1.0
C      1  0.5978390000000  0.5935070000000  0.4680210000000 1.0
C      1  0.3796490000000  0.4216000000000  0.4596650000000 1.0
C      1  0.4241070000000  0.5188220000000  0.5608270000000 1.0
C      1  0.4687700000000  0.5053910000000  0.4238730000000 1.0
C      1  0.4762150000000  0.4573620000000  0.5612810000000 1.0
C      1  0.4118370000000  0.4454130000000  0.5417920000000 1.0
C      1  0.5879560000000  0.5044170000000  0.4729500000000 1.0
C      1  0.4674680000000  0.4363720000000  0.4763910000000 1.0
C      1  0.5074940000000  0.5575170000000  0.5639450000000 1.0
C      1  0.4660020000000  0.5945650000000  0.4738890000000 1.0
C      1  0.5851340000000  0.5601970000000  0.5020550000000 1.0
C      1  0.6007170000000  0.4592520000000  0.4656870000000 1.0
C      1  0.4805470000000  0.5634370000000  0.5176160000000 1.0
C      1  0.4988570000000  0.5072150000000  0.5087610000000 1.0
C      1  0.4218730000000  0.5231160000000  0.4959540000000 1.0
C      1  0.4618350000000  0.5439270000000  0.5241810000000 1.0
C      1  0.6063230000000  0.4885300000000  0.5142580000000 1.0
C      1  0.4558280000000  0.5212110000000  0.4444010000000 1.0
C      1  0.5486150000000  0.5092350000000  0.5386400000000 1.0
C      1  0.4361640000000  0.4816150000000  0.5212230000000 1.0
C      1  0.4548070000000  0.3714550000000  0.5719300000000 1.0
C      1  0.5923380000000  0.5099130000000  0.5855350000000 1.0
C      1  0.5517870000000  0.4632260000000  0.4127540000000 1.0
C      1  0.3397810000000  0.5291360000000  0.4429660000000 1.0
C      1  0.4996870000000  0.5526980000000  0.4996670000000 1.0
C      1  0.5420020000000  0.5513640000000  0.4813590000000 1.0
C      1  0.4834240000000  0.6026980000000  0.5827390000000 1.0
C      1  0.5651560000000  0.4896970000000  0.4138080000000 1.0
C      1  0.5042470000000  0.5016660000000  0.3904930000000 1.0
C      1  0.5312450000000  0.4438330000000  0.5360840000000 1.0
C      1  0.4174810000000  0.5632420000000  0.5286800000000 1.0
C      1  0.4791820000000  0.5037730000000  0.5301120000000 1.0
C      1  0.4458620000000  0.5791550000000  0.4598650000000 1.0
C      1  0.3960330000000  0.4005800000000  0.4626610000000 1.0
C      1  0.5175090000000  0.3948880000000  0.4614060000000 1.0
C      1  0.4490820000000  0.5302080000000  0.5012010000000 1.0
C      1  0.5657640000000  0.4401130000000  0.4228020000000 1.0
C      1  0.5278310000000  0.5177130000000  0.3968760000000 1.0
C      1  0.4549380000000  0.5665220000000  0.4362690000000 1.0
C      1  0.4827210000000  0.5664810000000  0.4260360000000 1.0
C      1  0.4995640000000  0.4011520000000  0.4843530000000 1.0
C      1  0.5611610000000  0.4578620000000  0.4940620000000 1.0
C      1  0.6224300000000  0.5226760000000  0.6286500000000 1.0
C      1  0.4947620000000  0.5297530000000  0.5686180000000 1.0
C      1  0.5846990000000  0.5561670000000  0.4078890000000 1.0
C      1  0.4261180000000  0.4558560000000  0.4781980000000 1.0
C      1  0.5137910000000  0.5951390000000  0.4897460000000 1.0
C      1  0.4063010000000  0.5165550000000  0.4045720000000 1.0
C      1  0.4642190000000  0.5183980000000  0.4776360000000 1.0
C      1  0.5297650000000  0.4120050000000  0.4399890000000 1.0
C      1  0.4996790000000  0.4787440000000  0.5613520000000 1.0
C      1  0.4182330000000  0.4952420000000  0.5013910000000 1.0
C      1  0.5163920000000  0.4303000000000  0.4208210000000 1.0
C      1  0.5309180000000  0.5032680000000  0.5949780000000 1.0
C      1  0.6005620000000  0.5078790000000  0.5572090000000 1.0
C      1  0.4185300000000  0.4671390000000  0.4052980000000 1.0
C      1  0.4798990000000  0.4805570000000  0.4324230000000 1.0
C      1  0.4172910000000  0.3867230000000  0.4712920000000 1.0
C      1  0.6078670000000  0.5164840000000  0.6074040000000 1.0
C      1  0.3848570000000  0.5405780000000  0.4673920000000 1.0
C      1  0.5138620000000  0.4446060000000  0.4706400000000 1.0
C      1  0.4061390000000  0.4902230000000  0.4001490000000 1.0
C      1  0.4830860000000  0.4319380000000  0.5449120000000 1.0
C      1  0.4078670000000  0.4773230000000  0.4818760000000 1.0
C      1  0.3823390000000  0.4713060000000  0.4716990000000 1.0
C      1  0.4117220000000  0.5401140000000  0.5441930000000 1.0
C      1  0.5609260000000  0.5445330000000  0.4164370000000 1.0
C      1  0.5064750000000  0.5778030000000  0.4419190000000 1.0
C      1  0.4382650000000  0.3377820000000  0.6087590000000 1.0
C      1  0.5239920000000  0.4556670000000  0.4077870000000 1.0
C      1  0.5557550000000  0.4540570000000  0.5220180000000 1.0
C      1  0.5809460000000  0.4434110000000  0.4789200000000 1.0
C      1  0.4689320000000  0.4867810000000  0.4764070000000 1.0
C      1  0.4248570000000  0.5684720000000  0.4786290000000 1.0
C      1  0.6367400000000  0.5287430000000  0.6495790000000 1.0
C      1  0.4585600000000  0.4615270000000  0.4374860000000 1.0
C      1  0.4096480000000  0.5435750000000  0.4795420000000 1.0
C      1  0.4234200000000  0.4707510000000  0.5446870000000 1.0
C      1  0.5653980000000  0.4737990000000  0.5895980000000 1.0
C      1  0.4768700000000  0.4048740000000  0.5345990000000 1.0
C      1  0.5565860000000  0.5652690000000  0.4617480000000 1.0
C      1  0.4654470000000  0.4792060000000  0.5223470000000 1.0
C      1  0.4800330000000  0.5269940000000  0.5982430000000 1.0
C      1  0.5167940000000  0.5376180000000  0.4147990000000 1.0
C      1  0.5410890000000  0.5711560000000  0.5251570000000 1.0
C      1  0.6075700000000  0.5666130000000  0.4010450000000 1.0
C      1  0.4961530000000  0.4867230000000  0.4576260000000 1.0
C      1  0.5252730000000  0.5681950000000  0.4990590000000 1.0
C      1  0.5748730000000  0.4634080000000  0.5430300000000 1.0
C      1  0.4862180000000  0.5019310000000  0.6116600000000 1.0
END
