TITL C-247199-3331-638 0.530851254742954 125000 -1018.83207024046 0 0 165 (C1) n - 1
REM
REM in /home/nfs/bkarasulu/CARBON/AIRSS/Generating-Clusters/LCBOP/Only-C1/SD-CG/FIRE-HFTN
REM
REM
REM
REM
REM
REM ./C.cell (11c1c37f851c82e70ff6c80c92926a4b)
REM AIRSS Version 0.9.1 bugfix July 2018 build 013d7b7c2542+ Fri, 06 Jul 2018 19:26:36 +0100
REM compiler GCC version 9.2.1 20190827 (Red Hat 9.2.1-1)
REM options -cpp -mtune=generic -march=x86-64 -g -O0 -fpre-include=/usr/include/finclude/math-vector-fortran.h
REM seed 833064624 290194836 -737227769 -1347925919 -1569923022 249409554 363252865 -139209118 -1866961165 1793325215 -478733658 1317454973 1485445631 1707760485 464251611 -1942356306 -1812480658 -2083953514 1443309474 1512429295 -480645186 418891585 -1697092931 741625538 955546976 553338205 959319073 849711464 -243234687 790441845 -1850960599 468415083 493189975
REM
CELL 1.54180   50.00000   50.00000   50.00000   90.00000   90.00000   90.00000
LATT -1
SFAC C  
C      1  0.6217370000000  0.4502630000000  0.5845590000000 1.0
C      1  0.4298680000000  0.5771090000000  0.5630820000000 1.0
C      1  0.5236550000000  0.5744820000000  0.5213400000000 1.0
C      1  0.5965340000000  0.5099930000000  0.4253440000000 1.0
C      1  0.5019030000000  0.3600020000000  0.4619940000000 1.0
C      1  0.5029490000000  0.3695970000000  0.4364530000000 1.0
C      1  0.5823900000000  0.5067280000000  0.4975080000000 1.0
C      1  0.4774550000000  0.5179290000000  0.4417480000000 1.0
C      1  0.5277410000000  0.5970600000000  0.5736750000000 1.0
C      1  0.5366440000000  0.6198370000000  0.5229140000000 1.0
C      1  0.4581660000000  0.3922310000000  0.4820320000000 1.0
C      1  0.4253850000000  0.5399040000000  0.4262990000000 1.0
C      1  0.4145180000000  0.5148410000000  0.5243480000000 1.0
C      1  0.4182800000000  0.3814560000000  0.5390240000000 1.0
C      1  0.3991450000000  0.4625010000000  0.5264430000000 1.0
C      1  0.4509550000000  0.4878890000000  0.5543710000000 1.0
C      1  0.5606610000000  0.5421960000000  0.5226340000000 1.0
C      1  0.4474940000000  0.4446860000000  0.5866870000000 1.0
C      1  0.5042800000000  0.5986630000000  0.5559490000000 1.0
C      1  0.5716810000000  0.4803720000000  0.4959720000000 1.0
C      1  0.5945770000000  0.5452350000000  0.5844560000000 1.0
C      1  0.4546890000000  0.4041750000000  0.5607770000000 1.0
C      1  0.4100660000000  0.4265620000000  0.5605550000000 1.0
C      1  0.4737240000000  0.5815290000000  0.4185910000000 1.0
C      1  0.4467070000000  0.6019260000000  0.4647110000000 1.0
C      1  0.4663840000000  0.5107400000000  0.5210640000000 1.0
C      1  0.5114320000000  0.4242500000000  0.4655050000000 1.0
C      1  0.5109810000000  0.4709950000000  0.5661180000000 1.0
C      1  0.4381620000000  0.4894710000000  0.5795310000000 1.0
C      1  0.4005160000000  0.5596470000000  0.4623910000000 1.0
C      1  0.5581810000000  0.6017670000000  0.4596110000000 1.0
C      1  0.4813660000000  0.5885000000000  0.5025840000000 1.0
C      1  0.6217020000000  0.5049440000000  0.4701620000000 1.0
C      1  0.5028430000000  0.3982790000000  0.5653090000000 1.0
C      1  0.4468650000000  0.5152420000000  0.4769830000000 1.0
C      1  0.5053610000000  0.4120010000000  0.4058260000000 1.0
C      1  0.5245840000000  0.5745100000000  0.4210980000000 1.0
C      1  0.3945070000000  0.4374110000000  0.5392500000000 1.0
C      1  0.4411190000000  0.4735700000000  0.5034860000000 1.0
C      1  0.5340400000000  0.4498590000000  0.6276840000000 1.0
C      1  0.5345700000000  0.5917550000000  0.4708760000000 1.0
C      1  0.3941520000000  0.5360960000000  0.4788570000000 1.0
C      1  0.4777140000000  0.4994900000000  0.4186770000000 1.0
C      1  0.4119040000000  0.5137820000000  0.4322660000000 1.0
C      1  0.5552010000000  0.5358410000000  0.4306230000000 1.0
C      1  0.5027620000000  0.4714180000000  0.5386280000000 1.0
C      1  0.5157560000000  0.4473160000000  0.5817890000000 1.0
C      1  0.5174780000000  0.6002750000000  0.5303470000000 1.0
C      1  0.5859850000000  0.4578810000000  0.5045040000000 1.0
C      1  0.4750510000000  0.5614470000000  0.4998900000000 1.0
C      1  0.5533520000000  0.4976550000000  0.3911470000000 1.0
C      1  0.5044350000000  0.5179770000000  0.4939910000000 1.0
C      1  0.6124350000000  0.5000790000000  0.5753200000000 1.0
C      1  0.4905080000000  0.4127280000000  0.4505860000000 1.0
C      1  0.5789330000000  0.5026400000000  0.4052250000000 1.0
C      1  0.4295060000000  0.5292560000000  0.5469980000000 1.0
C      1  0.5347390000000  0.5507080000000  0.5288720000000 1.0
C      1  0.5058160000000  0.5528470000000  0.4660760000000 1.0
C      1  0.4102300000000  0.3980560000000  0.4750650000000 1.0
C      1  0.4261730000000  0.5543220000000  0.4505460000000 1.0
C      1  0.4221210000000  0.5512720000000  0.5622590000000 1.0
C      1  0.5080860000000  0.4514120000000  0.5180680000000 1.0
C      1  0.5016580000000  0.4826310000000  0.4250430000000 1.0
C      1  0.5663280000000  0.5305140000000  0.4983430000000 1.0
C      1  0.5124670000000  0.4497050000000  0.6101940000000 1.0
C      1  0.4996780000000  0.3965970000000  0.4284750000000 1.0
C      1  0.5897840000000  0.5160120000000  0.5840280000000 1.0
C      1  0.4433180000000  0.5422610000000  0.4700470000000 1.0
C      1  0.5400200000000  0.4731340000000  0.3956980000000 1.0
C      1  0.5628980000000  0.6155540000000  0.5173760000000 1.0
C      1  0.4617920000000  0.4896180000000  0.5972490000000 1.0
C      1  0.5648800000000  0.5129220000000  0.5646810000000 1.0
C      1  0.5677110000000  0.4843030000000  0.5538720000000 1.0
C      1  0.4349400000000  0.5902850000000  0.5180110000000 1.0
C      1  0.4574710000000  0.5928540000000  0.4407020000000 1.0
C      1  0.4778990000000  0.5848460000000  0.5575930000000 1.0
C      1  0.4051250000000  0.5397340000000  0.5065560000000 1.0
C      1  0.4400140000000  0.5045600000000  0.5044960000000 1.0
C      1  0.4261000000000  0.4018760000000  0.5566210000000 1.0
C      1  0.4475830000000  0.5371330000000  0.4077160000000 1.0
C      1  0.5578550000000  0.5655350000000  0.4304120000000 1.0
C      1  0.6067950000000  0.5482480000000  0.4576360000000 1.0
C      1  0.4523960000000  0.5070230000000  0.4063630000000 1.0
C      1  0.4636760000000  0.4071070000000  0.4581410000000 1.0
C      1  0.6109390000000  0.5076540000000  0.4967920000000 1.0
C      1  0.3999470000000  0.4224450000000  0.4715310000000 1.0
C      1  0.5737960000000  0.5813460000000  0.4485600000000 1.0
C      1  0.4180840000000  0.4700370000000  0.4076670000000 1.0
C      1  0.6425770000000  0.4882070000000  0.4646090000000 1.0
C      1  0.4632950000000  0.4614250000000  0.6044760000000 1.0
C      1  0.4962180000000  0.5404420000000  0.4423670000000 1.0
C      1  0.5409810000000  0.4934170000000  0.4602730000000 1.0
C      1  0.5464510000000  0.4768260000000  0.4839860000000 1.0
C      1  0.4811180000000  0.5361750000000  0.5861040000000 1.0
C      1  0.5927380000000  0.5706360000000  0.4679900000000 1.0
C      1  0.4543320000000  0.5153350000000  0.5465200000000 1.0
C      1  0.5972120000000  0.4387980000000  0.5191530000000 1.0
C      1  0.5281240000000  0.3874730000000  0.4912430000000 1.0
C      1  0.5554200000000  0.4507710000000  0.6425580000000 1.0
C      1  0.4442990000000  0.4106040000000  0.4383290000000 1.0
C      1  0.4855060000000  0.5076840000000  0.5897860000000 1.0
C      1  0.4604820000000  0.4320840000000  0.5644930000000 1.0
C      1  0.4193390000000  0.4435890000000  0.4082060000000 1.0
C      1  0.4693460000000  0.4991170000000  0.4657260000000 1.0
C      1  0.5510800000000  0.5396130000000  0.4764030000000 1.0
C      1  0.6081250000000  0.4283190000000  0.5410260000000 1.0
C      1  0.5099750000000  0.5300160000000  0.3743900000000 1.0
C      1  0.4522850000000  0.4677890000000  0.5327450000000 1.0
C      1  0.5861650000000  0.5579680000000  0.5599750000000 1.0
C      1  0.5322510000000  0.5624910000000  0.4717880000000 1.0
C      1  0.5036710000000  0.3732600000000  0.4872710000000 1.0
C      1  0.6235720000000  0.5073810000000  0.5221900000000 1.0
C      1  0.5072900000000  0.4383880000000  0.4012580000000 1.0
C      1  0.4794160000000  0.5603510000000  0.5739210000000 1.0
C      1  0.5519980000000  0.5206030000000  0.4547730000000 1.0
C      1  0.4134260000000  0.4620150000000  0.5016470000000 1.0
C      1  0.4244150000000  0.3744250000000  0.5139380000000 1.0
C      1  0.5128720000000  0.5476110000000  0.4209210000000 1.0
C      1  0.4390140000000  0.6045770000000  0.4915650000000 1.0
C      1  0.5016130000000  0.5912430000000  0.4176600000000 1.0
C      1  0.4267990000000  0.4951380000000  0.4154230000000 1.0
C      1  0.5154260000000  0.4646700000000  0.4070530000000 1.0
C      1  0.4883430000000  0.5460150000000  0.3816210000000 1.0
C      1  0.4127240000000  0.4767940000000  0.5719950000000 1.0
C      1  0.4977040000000  0.4971060000000  0.4753530000000 1.0
C      1  0.5739830000000  0.5358170000000  0.5456470000000 1.0
C      1  0.4658470000000  0.4441280000000  0.5390600000000 1.0
C      1  0.6229310000000  0.5049680000000  0.5490530000000 1.0
C      1  0.5796460000000  0.5924860000000  0.5219670000000 1.0
C      1  0.5272060000000  0.4600820000000  0.4982590000000 1.0
C      1  0.4796570000000  0.3939020000000  0.5491580000000 1.0
C      1  0.4312680000000  0.3858180000000  0.4892300000000 1.0
C      1  0.4587960000000  0.4710490000000  0.4772040000000 1.0
C      1  0.5544440000000  0.5937550000000  0.5671460000000 1.0
C      1  0.5907680000000  0.5799640000000  0.4967880000000 1.0
C      1  0.4906660000000  0.4950560000000  0.5282290000000 1.0
C      1  0.4857240000000  0.4523650000000  0.6184930000000 1.0
C      1  0.4497360000000  0.5892440000000  0.5453530000000 1.0
C      1  0.5115430000000  0.4978270000000  0.5779780000000 1.0
C      1  0.5139400000000  0.4887920000000  0.4518580000000 1.0
C      1  0.6172500000000  0.4318010000000  0.5658190000000 1.0
C      1  0.5108310000000  0.5127560000000  0.5205210000000 1.0
C      1  0.4807580000000  0.3867540000000  0.4988340000000 1.0
C      1  0.4036480000000  0.4853370000000  0.5433770000000 1.0
C      1  0.5339200000000  0.5193580000000  0.3873730000000 1.0
C      1  0.4035360000000  0.4474490000000  0.4800450000000 1.0
C      1  0.4863210000000  0.4321740000000  0.5217080000000 1.0
C      1  0.5765290000000  0.5832450000000  0.5507450000000 1.0
C      1  0.4486510000000  0.5559240000000  0.4935070000000 1.0
C      1  0.6198910000000  0.4765940000000  0.5885770000000 1.0
C      1  0.4918090000000  0.6094860000000  0.4898340000000 1.0
C      1  0.5137960000000  0.6098560000000  0.4749050000000 1.0
C      1  0.5163430000000  0.4206860000000  0.5721620000000 1.0
C      1  0.6090590000000  0.5209310000000  0.4495610000000 1.0
C      1  0.4255880000000  0.5629360000000  0.5092340000000 1.0
C      1  0.5338180000000  0.5311560000000  0.4128450000000 1.0
C      1  0.4296010000000  0.4218850000000  0.4194250000000 1.0
C      1  0.5223680000000  0.5283400000000  0.5404860000000 1.0
C      1  0.5307420000000  0.4121810000000  0.4802800000000 1.0
C      1  0.3970530000000  0.5139970000000  0.4580870000000 1.0
C      1  0.4839280000000  0.4031930000000  0.5218690000000 1.0
C      1  0.4939210000000  0.5437200000000  0.4892840000000 1.0
C      1  0.4683050000000  0.5565830000000  0.4010640000000 1.0
C      1  0.4190770000000  0.4478300000000  0.5786650000000 1.0
C      1  0.5321880000000  0.5156750000000  0.5651560000000 1.0
END
