TITL C-247201-3759-633 3.65308199342469 125000 -1061.70713008739 0 0 174 (C1) n - 1
REM
REM in /home/nfs/bkarasulu/CARBON/AIRSS/Generating-Clusters/LCBOP/Only-C1/SD-CG/FIRE-HFTN
REM
REM
REM
REM
REM
REM ./C.cell (11c1c37f851c82e70ff6c80c92926a4b)
REM AIRSS Version 0.9.1 bugfix July 2018 build 013d7b7c2542+ Fri, 06 Jul 2018 19:26:36 +0100
REM compiler GCC version 9.2.1 20190827 (Red Hat 9.2.1-1)
REM options -cpp -mtune=generic -march=x86-64 -g -O0 -fpre-include=/usr/include/finclude/math-vector-fortran.h
REM seed -2135368712 859523023 185787966 -1938242795 -786555866 581783737 1987251683 538489585 -1300635152 761681138 -349375332 -2091318635 -1352003638 -1720039714 -629353432 1824489530 -324259857 1464153717 -1358707727 781198952 765815467 183950317 -626862753 1705582603 -1894691699 1301718858 -2131708761 1285695640 -1013989203 2101968099 982628430 -1156803376 -783535146
REM
CELL 1.54180   50.00000   50.00000   50.00000   90.00000   90.00000   90.00000
LATT -1
SFAC C  
C      1  0.4561460000000  0.4991550000000  0.4978180000000 1.0
C      1  0.4603980000000  0.5565460000000  0.4174240000000 1.0
C      1  0.5072400000000  0.4458170000000  0.5172760000000 1.0
C      1  0.4307360000000  0.4674010000000  0.5950270000000 1.0
C      1  0.5130120000000  0.5101860000000  0.5488640000000 1.0
C      1  0.4723230000000  0.5722990000000  0.4788020000000 1.0
C      1  0.5617980000000  0.5427600000000  0.5476670000000 1.0
C      1  0.4868380000000  0.5216610000000  0.6007260000000 1.0
C      1  0.4872250000000  0.5010130000000  0.5550700000000 1.0
C      1  0.4867230000000  0.4837960000000  0.4411040000000 1.0
C      1  0.3954030000000  0.4435840000000  0.5621250000000 1.0
C      1  0.4628040000000  0.5211350000000  0.3783200000000 1.0
C      1  0.4304040000000  0.3939900000000  0.5586050000000 1.0
C      1  0.5764300000000  0.4458090000000  0.5436160000000 1.0
C      1  0.4892290000000  0.3894660000000  0.4879590000000 1.0
C      1  0.5428590000000  0.5106180000000  0.5939700000000 1.0
C      1  0.5282520000000  0.5971010000000  0.5783540000000 1.0
C      1  0.6370120000000  0.5011510000000  0.5457200000000 1.0
C      1  0.4305730000000  0.4569310000000  0.5166880000000 1.0
C      1  0.4824810000000  0.4129450000000  0.5834760000000 1.0
C      1  0.3905020000000  0.4287380000000  0.5111770000000 1.0
C      1  0.4662240000000  0.5613610000000  0.5037430000000 1.0
C      1  0.3870280000000  0.5075760000000  0.4636710000000 1.0
C      1  0.6110600000000  0.5042870000000  0.4527860000000 1.0
C      1  0.3986470000000  0.3884800000000  0.4638930000000 1.0
C      1  0.4169360000000  0.4071950000000  0.4736290000000 1.0
C      1  0.6028920000000  0.5157350000000  0.4767470000000 1.0
C      1  0.5668600000000  0.5619520000000  0.4481280000000 1.0
C      1  0.5960690000000  0.4248930000000  0.4773710000000 1.0
C      1  0.3812590000000  0.3706660000000  0.4548300000000 1.0
C      1  0.6047570000000  0.5368690000000  0.5530890000000 1.0
C      1  0.5475460000000  0.4424440000000  0.4900520000000 1.0
C      1  0.4591370000000  0.5937150000000  0.5559470000000 1.0
C      1  0.4830020000000  0.4525920000000  0.5577930000000 1.0
C      1  0.4095160000000  0.5523170000000  0.4110860000000 1.0
C      1  0.4183710000000  0.5547190000000  0.4806060000000 1.0
C      1  0.6398540000000  0.5255200000000  0.5030480000000 1.0
C      1  0.4362980000000  0.5167910000000  0.5088900000000 1.0
C      1  0.5661150000000  0.4918680000000  0.4104040000000 1.0
C      1  0.4836500000000  0.4319720000000  0.4105840000000 1.0
C      1  0.5196450000000  0.5251430000000  0.3916190000000 1.0
C      1  0.5803310000000  0.5734720000000  0.4736800000000 1.0
C      1  0.5899630000000  0.5319600000000  0.3929830000000 1.0
C      1  0.5297670000000  0.4616810000000  0.4231560000000 1.0
C      1  0.4001120000000  0.5109340000000  0.4383620000000 1.0
C      1  0.3911270000000  0.5176780000000  0.4899450000000 1.0
C      1  0.5079220000000  0.4750020000000  0.5998880000000 1.0
C      1  0.5409870000000  0.5220450000000  0.4436580000000 1.0
C      1  0.4868740000000  0.4543610000000  0.3957530000000 1.0
C      1  0.4531190000000  0.5557520000000  0.5904610000000 1.0
C      1  0.5711430000000  0.5073750000000  0.5148450000000 1.0
C      1  0.4903260000000  0.4827490000000  0.3924390000000 1.0
C      1  0.4606540000000  0.5115370000000  0.4726070000000 1.0
C      1  0.4815520000000  0.5504160000000  0.5946490000000 1.0
C      1  0.4802020000000  0.5406700000000  0.4308320000000 1.0
C      1  0.5421260000000  0.5788200000000  0.4420680000000 1.0
C      1  0.4446410000000  0.4337280000000  0.5258820000000 1.0
C      1  0.4565620000000  0.4046580000000  0.4430960000000 1.0
C      1  0.4861470000000  0.5226610000000  0.4738810000000 1.0
C      1  0.5431080000000  0.5748640000000  0.5752870000000 1.0
C      1  0.6127400000000  0.5085420000000  0.5577300000000 1.0
C      1  0.5544210000000  0.4282370000000  0.5496000000000 1.0
C      1  0.5596020000000  0.5898700000000  0.5254640000000 1.0
C      1  0.4733060000000  0.4783840000000  0.5537460000000 1.0
C      1  0.6024230000000  0.5592430000000  0.4967610000000 1.0
C      1  0.4364940000000  0.5312920000000  0.5922500000000 1.0
C      1  0.5017680000000  0.5936290000000  0.5709360000000 1.0
C      1  0.4168900000000  0.5767110000000  0.4657130000000 1.0
C      1  0.4578050000000  0.5096500000000  0.5999030000000 1.0
C      1  0.5219460000000  0.5643790000000  0.4280100000000 1.0
C      1  0.4657310000000  0.5002500000000  0.3999850000000 1.0
C      1  0.5930590000000  0.4990560000000  0.4980790000000 1.0
C      1  0.4296090000000  0.5970000000000  0.5201230000000 1.0
C      1  0.6180820000000  0.5371450000000  0.4880110000000 1.0
C      1  0.5075050000000  0.4464810000000  0.5452050000000 1.0
C      1  0.4450660000000  0.4031000000000  0.4693560000000 1.0
C      1  0.4805070000000  0.6143910000000  0.5017990000000 1.0
C      1  0.3939240000000  0.5334860000000  0.4223190000000 1.0
C      1  0.5318190000000  0.4980790000000  0.4534040000000 1.0
C      1  0.5262470000000  0.4290910000000  0.5053600000000 1.0
C      1  0.4802710000000  0.4641300000000  0.6011760000000 1.0
C      1  0.5367750000000  0.6002270000000  0.4630090000000 1.0
C      1  0.3756430000000  0.5245650000000  0.5128050000000 1.0
C      1  0.4219890000000  0.4761410000000  0.5349610000000 1.0
C      1  0.5641820000000  0.4020930000000  0.5035650000000 1.0
C      1  0.4877060000000  0.4467930000000  0.4711820000000 1.0
C      1  0.5170710000000  0.4964660000000  0.3918210000000 1.0
C      1  0.4783540000000  0.4407670000000  0.5835890000000 1.0
C      1  0.5826250000000  0.4737310000000  0.4263860000000 1.0
C      1  0.4483100000000  0.5682960000000  0.5648620000000 1.0
C      1  0.3875970000000  0.4345480000000  0.5376570000000 1.0
C      1  0.5461880000000  0.4144170000000  0.4471000000000 1.0
C      1  0.5233080000000  0.5493730000000  0.4035080000000 1.0
C      1  0.5167240000000  0.5377620000000  0.5497980000000 1.0
C      1  0.4369500000000  0.4901940000000  0.4069210000000 1.0
C      1  0.4925920000000  0.3964720000000  0.5644580000000 1.0
C      1  0.4427480000000  0.4619690000000  0.4663390000000 1.0
C      1  0.4643510000000  0.4036120000000  0.4911680000000 1.0
C      1  0.4935590000000  0.5660760000000  0.5742010000000 1.0
C      1  0.3641360000000  0.3531430000000  0.4459220000000 1.0
C      1  0.5630430000000  0.5986730000000  0.4776580000000 1.0
C      1  0.5057780000000  0.4950190000000  0.5073210000000 1.0
C      1  0.4513070000000  0.6109370000000  0.5080020000000 1.0
C      1  0.5706330000000  0.5122020000000  0.5817660000000 1.0
C      1  0.4014060000000  0.5547830000000  0.5499840000000 1.0
C      1  0.4170270000000  0.5295710000000  0.4924260000000 1.0
C      1  0.4110710000000  0.4545150000000  0.5814740000000 1.0
C      1  0.5950950000000  0.4369420000000  0.5233960000000 1.0
C      1  0.5469970000000  0.4692420000000  0.4919190000000 1.0
C      1  0.5772940000000  0.4413040000000  0.4662620000000 1.0
C      1  0.5465960000000  0.4404280000000  0.4327380000000 1.0
C      1  0.5147480000000  0.4794580000000  0.4407080000000 1.0
C      1  0.4555550000000  0.4805590000000  0.6015350000000 1.0
C      1  0.5261260000000  0.4942660000000  0.5290530000000 1.0
C      1  0.4075070000000  0.4302810000000  0.4878200000000 1.0
C      1  0.5053110000000  0.3946070000000  0.5407460000000 1.0
C      1  0.5078770000000  0.5174080000000  0.4899700000000 1.0
C      1  0.4350370000000  0.5937610000000  0.4558680000000 1.0
C      1  0.5643490000000  0.5356460000000  0.4351810000000 1.0
C      1  0.4134030000000  0.5791350000000  0.5351580000000 1.0
C      1  0.5455230000000  0.4892440000000  0.4753750000000 1.0
C      1  0.5399420000000  0.5751260000000  0.5109890000000 1.0
C      1  0.5040400000000  0.6137870000000  0.4710040000000 1.0
C      1  0.4791800000000  0.4814680000000  0.5052310000000 1.0
C      1  0.4359840000000  0.5222840000000  0.5367630000000 1.0
C      1  0.4967120000000  0.5998890000000  0.5199110000000 1.0
C      1  0.4704830000000  0.4646350000000  0.4565650000000 1.0
C      1  0.4485170000000  0.5095990000000  0.4472050000000 1.0
C      1  0.4251930000000  0.4991230000000  0.5485860000000 1.0
C      1  0.5413210000000  0.4018200000000  0.4739700000000 1.0
C      1  0.5519170000000  0.4043780000000  0.5307420000000 1.0
C      1  0.5136710000000  0.5815970000000  0.5040130000000 1.0
C      1  0.5742650000000  0.5204210000000  0.4122480000000 1.0
C      1  0.4482530000000  0.5466290000000  0.5443480000000 1.0
C      1  0.4248980000000  0.4539560000000  0.4878500000000 1.0
C      1  0.4350460000000  0.5603050000000  0.4097330000000 1.0
C      1  0.5009230000000  0.5559710000000  0.4454060000000 1.0
C      1  0.5473390000000  0.5486850000000  0.5037800000000 1.0
C      1  0.5727450000000  0.4741310000000  0.5491530000000 1.0
C      1  0.4735830000000  0.5100220000000  0.4292070000000 1.0
C      1  0.4976150000000  0.4234360000000  0.4576480000000 1.0
C      1  0.5108590000000  0.4016650000000  0.4735440000000 1.0
C      1  0.6014680000000  0.5618060000000  0.5267640000000 1.0
C      1  0.4259240000000  0.5001010000000  0.4323430000000 1.0
C      1  0.6152530000000  0.4835880000000  0.5083270000000 1.0
C      1  0.5798610000000  0.5365020000000  0.5677310000000 1.0
C      1  0.5720490000000  0.4515800000000  0.4408510000000 1.0
C      1  0.4721110000000  0.5522720000000  0.5296380000000 1.0
C      1  0.6068300000000  0.4847860000000  0.4351810000000 1.0
C      1  0.4835090000000  0.6103910000000  0.4526790000000 1.0
C      1  0.5297480000000  0.5338710000000  0.4890020000000 1.0
C      1  0.4834010000000  0.4507970000000  0.5007170000000 1.0
C      1  0.5552360000000  0.4889940000000  0.5307120000000 1.0
C      1  0.5878890000000  0.4919130000000  0.5670680000000 1.0
C      1  0.4374800000000  0.4154270000000  0.5455180000000 1.0
C      1  0.4120270000000  0.5398870000000  0.5752150000000 1.0
C      1  0.5848820000000  0.5840610000000  0.5338800000000 1.0
C      1  0.5892470000000  0.4163850000000  0.5032940000000 1.0
C      1  0.5396530000000  0.4813770000000  0.4030650000000 1.0
C      1  0.4997060000000  0.5673820000000  0.4732480000000 1.0
C      1  0.6368080000000  0.5006710000000  0.5175110000000 1.0
C      1  0.5638250000000  0.5341400000000  0.5209080000000 1.0
C      1  0.4865800000000  0.6014860000000  0.5477660000000 1.0
C      1  0.5278060000000  0.4571980000000  0.5870180000000 1.0
C      1  0.4624350000000  0.5926400000000  0.4605790000000 1.0
C      1  0.3816190000000  0.5399600000000  0.5345150000000 1.0
C      1  0.5388170000000  0.5526380000000  0.5582350000000 1.0
C      1  0.4936510000000  0.5529610000000  0.5479990000000 1.0
C      1  0.4650670000000  0.4272330000000  0.5076790000000 1.0
C      1  0.5308890000000  0.4424540000000  0.5620010000000 1.0
C      1  0.5131130000000  0.5043340000000  0.5999810000000 1.0
C      1  0.5244520000000  0.4051270000000  0.5229470000000 1.0
C      1  0.6136720000000  0.4566660000000  0.5153620000000 1.0
C      1  0.4808830000000  0.4171150000000  0.4346590000000 1.0
END
