TITL C-247197-3123-68 50574.6838803234 125000 -788.780049425286 0 0 129 (C1) n - 1
REM
REM in /home/nfs/bkarasulu/CARBON/AIRSS/Generating-Clusters/LCBOP/Only-C1/SD-CG/FIRE-HFTN
REM
REM
REM
REM
REM
REM ./C.cell (11c1c37f851c82e70ff6c80c92926a4b)
REM AIRSS Version 0.9.1 bugfix July 2018 build 013d7b7c2542+ Fri, 06 Jul 2018 19:26:36 +0100
REM compiler GCC version 9.2.1 20190827 (Red Hat 9.2.1-1)
REM options -cpp -mtune=generic -march=x86-64 -g -O0 -fpre-include=/usr/include/finclude/math-vector-fortran.h
REM seed -1987212078 1032632519 -1580378311 682451028 -2016251991 781025832 1375152448 -1893891518 1060233224 -1140803228 -1730318244 -1544761926 105979378 -1563857820 -2083983084 -981160039 -2015145748 -1100874518 433232479 -414414314 -1116537119 -233631168 -2134729952 -340271487 1716800892 -1528199625 -1487485778 -1381396141 -1141857069 288031920 -1585080296 598854579 -399674495
REM
CELL 1.54180   50.00000   50.00000   50.00000   90.00000   90.00000   90.00000
LATT -1
SFAC C  
C      1  0.4956630000000  0.5664560000000  0.4289070000000 1.0
C      1  0.5837230000000  0.5051100000000  0.5361240000000 1.0
C      1  0.5080360000000  0.4700710000000  0.5061160000000 1.0
C      1  0.4153070000000  0.5313930000000  0.4676490000000 1.0
C      1  0.5465900000000  0.4548070000000  0.5270840000000 1.0
C      1  0.5344480000000  0.4785100000000  0.3895480000000 1.0
C      1  0.5512040000000  0.5973870000000  0.4667870000000 1.0
C      1  0.5586000000000  0.5334580000000  0.4834770000000 1.0
C      1  0.4404540000000  0.4205230000000  0.5295150000000 1.0
C      1  0.4492180000000  0.5471200000000  0.5009840000000 1.0
C      1  0.5725460000000  0.5573520000000  0.4881380000000 1.0
C      1  0.4400910000000  0.5998130000000  0.4925000000000 1.0
C      1  0.4473970000000  0.5373070000000  0.6226840000000 1.0
C      1  0.4611880000000  0.4507490000000  0.4128930000000 1.0
C      1  0.4244770000000  0.5047300000000  0.5854420000000 1.0
C      1  0.5394150000000  0.5154380000000  0.4344510000000 1.0
C      1  0.5120630000000  0.5091830000000  0.5388750000000 1.0
C      1  0.5152150000000  0.4720330000000  0.4620440000000 1.0
C      1  0.6144270000000  0.4672830000000  0.5360460000000 1.0
C      1  0.5312280000000  0.3816870000000  0.5265480000000 1.0
C      1  0.6189700000000  0.4460400000000  0.5512520000000 1.0
C      1  0.4907510000000  0.4893770000000  0.4044040000000 1.0
C      1  0.5029280000000  0.4987060000000  0.4656310000000 1.0
C      1  0.4889590000000  0.5396360000000  0.4199520000000 1.0
C      1  0.4963560000000  0.4531410000000  0.4682200000000 1.0
C      1  0.5312070000000  0.5586800000000  0.5847640000000 1.0
C      1  0.5960120000000  0.5682610000000  0.5782290000000 1.0
C      1  0.4004850000000  0.5283890000000  0.5445420000000 1.0
C      1  0.5087520000000  0.3682260000000  0.5192600000000 1.0
C      1  0.5489210000000  0.4880470000000  0.4342670000000 1.0
C      1  0.6026600000000  0.4030570000000  0.5764460000000 1.0
C      1  0.4866810000000  0.4728240000000  0.5601360000000 1.0
C      1  0.5147920000000  0.5593670000000  0.5227640000000 1.0
C      1  0.5401070000000  0.4700900000000  0.4758810000000 1.0
C      1  0.5416150000000  0.4741970000000  0.5478720000000 1.0
C      1  0.4353990000000  0.4535940000000  0.4212360000000 1.0
C      1  0.4257360000000  0.4372700000000  0.5119620000000 1.0
C      1  0.4887300000000  0.4108030000000  0.4606460000000 1.0
C      1  0.5448320000000  0.5591030000000  0.4181170000000 1.0
C      1  0.5180060000000  0.3463590000000  0.5987850000000 1.0
C      1  0.5506400000000  0.4270420000000  0.5269230000000 1.0
C      1  0.6145540000000  0.4238480000000  0.5650790000000 1.0
C      1  0.4408520000000  0.5525570000000  0.4330750000000 1.0
C      1  0.4434040000000  0.5173580000000  0.6026010000000 1.0
C      1  0.4883490000000  0.5650530000000  0.5620480000000 1.0
C      1  0.5130620000000  0.5404020000000  0.5014270000000 1.0
C      1  0.5859860000000  0.5299710000000  0.4318660000000 1.0
C      1  0.3971820000000  0.5079360000000  0.5248800000000 1.0
C      1  0.4188880000000  0.5786860000000  0.5332260000000 1.0
C      1  0.5681060000000  0.5830800000000  0.4818790000000 1.0
C      1  0.4031870000000  0.5049220000000  0.4653560000000 1.0
C      1  0.5145860000000  0.4488080000000  0.4231060000000 1.0
C      1  0.5690590000000  0.5083900000000  0.4754260000000 1.0
C      1  0.5574870000000  0.4858000000000  0.4615740000000 1.0
C      1  0.5327740000000  0.5942560000000  0.4475940000000 1.0
C      1  0.5374220000000  0.4680830000000  0.4163440000000 1.0
C      1  0.5172830000000  0.4259150000000  0.4425070000000 1.0
C      1  0.5027810000000  0.3967200000000  0.4804050000000 1.0
C      1  0.5298850000000  0.4072270000000  0.4856950000000 1.0
C      1  0.5111650000000  0.4920420000000  0.3846090000000 1.0
C      1  0.5973980000000  0.5026280000000  0.4734140000000 1.0
C      1  0.4756410000000  0.5847310000000  0.4403840000000 1.0
C      1  0.5791330000000  0.5526810000000  0.5631900000000 1.0
C      1  0.4674010000000  0.4865340000000  0.5763080000000 1.0
C      1  0.5411010000000  0.4226910000000  0.4630720000000 1.0
C      1  0.4988900000000  0.4953810000000  0.4957530000000 1.0
C      1  0.4380120000000  0.5298600000000  0.4491400000000 1.0
C      1  0.4586610000000  0.4769670000000  0.5217510000000 1.0
C      1  0.4693130000000  0.4538380000000  0.4642650000000 1.0
C      1  0.5413820000000  0.3574360000000  0.5955430000000 1.0
C      1  0.4734800000000  0.5463520000000  0.6222030000000 1.0
C      1  0.4253390000000  0.5543330000000  0.4843020000000 1.0
C      1  0.5380160000000  0.5208070000000  0.5414240000000 1.0
C      1  0.4147150000000  0.4610300000000  0.5262480000000 1.0
C      1  0.4534880000000  0.6231920000000  0.4849120000000 1.0
C      1  0.5568630000000  0.4991450000000  0.5436830000000 1.0
C      1  0.4377370000000  0.4820380000000  0.5722970000000 1.0
C      1  0.5992250000000  0.4852780000000  0.5204200000000 1.0
C      1  0.5903090000000  0.5310490000000  0.5471940000000 1.0
C      1  0.4742140000000  0.4559040000000  0.5382240000000 1.0
C      1  0.4839290000000  0.5111720000000  0.4223890000000 1.0
C      1  0.4051250000000  0.5190220000000  0.5709490000000 1.0
C      1  0.4880610000000  0.4608770000000  0.4131440000000 1.0
C      1  0.4062970000000  0.4821250000000  0.4836530000000 1.0
C      1  0.4615310000000  0.4769710000000  0.4517230000000 1.0
C      1  0.4628010000000  0.5667010000000  0.5184990000000 1.0
C      1  0.4231370000000  0.4665040000000  0.5534070000000 1.0
C      1  0.4773850000000  0.5018010000000  0.4506980000000 1.0
C      1  0.4844960000000  0.6564280000000  0.4666060000000 1.0
C      1  0.4945560000000  0.4492070000000  0.5184040000000 1.0
C      1  0.4714690000000  0.5110520000000  0.5920230000000 1.0
C      1  0.5868840000000  0.4530460000000  0.4801540000000 1.0
C      1  0.4557840000000  0.5044510000000  0.5174010000000 1.0
C      1  0.5371480000000  0.5496290000000  0.5398040000000 1.0
C      1  0.4583140000000  0.4289770000000  0.4696710000000 1.0
C      1  0.4315550000000  0.4369150000000  0.4830570000000 1.0
C      1  0.5216890000000  0.5205850000000  0.4573440000000 1.0
C      1  0.5402440000000  0.4048970000000  0.5127460000000 1.0
C      1  0.5304570000000  0.5361080000000  0.4795210000000 1.0
C      1  0.5236790000000  0.5745420000000  0.4294860000000 1.0
C      1  0.5987730000000  0.4789640000000  0.4912270000000 1.0
C      1  0.5643470000000  0.3699630000000  0.5912580000000 1.0
C      1  0.4532850000000  0.5193620000000  0.5405780000000 1.0
C      1  0.4038830000000  0.4834780000000  0.5117500000000 1.0
C      1  0.4050590000000  0.5560360000000  0.5390350000000 1.0
C      1  0.4168320000000  0.4642670000000  0.4399810000000 1.0
C      1  0.5029550000000  0.5528110000000  0.5834490000000 1.0
C      1  0.4592760000000  0.5192440000000  0.4652390000000 1.0
C      1  0.5022960000000  0.5163550000000  0.5131070000000 1.0
C      1  0.4421710000000  0.5877130000000  0.5190120000000 1.0
C      1  0.4951670000000  0.6802050000000  0.4666870000000 1.0
C      1  0.4045520000000  0.4909700000000  0.4390010000000 1.0
C      1  0.5126100000000  0.4832220000000  0.5529890000000 1.0
C      1  0.4572510000000  0.5208680000000  0.4940180000000 1.0
C      1  0.4945870000000  0.3755960000000  0.4972620000000 1.0
C      1  0.4597390000000  0.4312810000000  0.5453290000000 1.0
C      1  0.4488400000000  0.5761960000000  0.4466240000000 1.0
C      1  0.5678740000000  0.4356580000000  0.4684290000000 1.0
C      1  0.5359980000000  0.4648490000000  0.5028300000000 1.0
C      1  0.5580650000000  0.5353300000000  0.4256350000000 1.0
C      1  0.4341560000000  0.5800740000000  0.4719440000000 1.0
C      1  0.5505460000000  0.5582060000000  0.5634640000000 1.0
C      1  0.4734340000000  0.6309190000000  0.4665450000000 1.0
C      1  0.4815770000000  0.6111330000000  0.4482100000000 1.0
C      1  0.5852840000000  0.3849920000000  0.5850700000000 1.0
C      1  0.4882910000000  0.5664210000000  0.5335800000000 1.0
C      1  0.4882960000000  0.5346840000000  0.5998470000000 1.0
C      1  0.4164790000000  0.4579610000000  0.4689610000000 1.0
C      1  0.6036760000000  0.5166890000000  0.4487380000000 1.0
END
