TITL C-247197-3123-239 -1.41517011158732e-06 125000 -717.575751321086 0 0 118 (C1) n - 1
REM
REM in /home/nfs/bkarasulu/CARBON/AIRSS/Generating-Clusters/LCBOP/Only-C1/SD-CG/FIRE-HFTN
REM
REM
REM
REM
REM
REM ./C.cell (11c1c37f851c82e70ff6c80c92926a4b)
REM AIRSS Version 0.9.1 bugfix July 2018 build 013d7b7c2542+ Fri, 06 Jul 2018 19:26:36 +0100
REM compiler GCC version 9.2.1 20190827 (Red Hat 9.2.1-1)
REM options -cpp -mtune=generic -march=x86-64 -g -O0 -fpre-include=/usr/include/finclude/math-vector-fortran.h
REM seed 744228012 78094599 -553844175 1266351486 -209369859 -1088458657 -451367929 237501192 -1543319556 -1287937419 717692812 96050823 -145716836 -2075816777 1322876426 -1314739057 -1323139423 -130831485 42485333 -1771224671 -2115207697 -277790428 -1975983054 1651837810 1523097943 1936905289 465201251 903967046 -446303001 327590711 -257662498 1574720538 -1842701944
REM
CELL 1.54180   50.00000   50.00000   50.00000   90.00000   90.00000   90.00000
LATT -1
SFAC C  
C      1  0.5408510000000  0.6110780000000  0.5143090000000 1.0
C      1  0.5926940000000  0.5444820000000  0.5629780000000 1.0
C      1  0.4551740000000  0.5067450000000  0.4930050000000 1.0
C      1  0.4918550000000  0.4462500000000  0.5334330000000 1.0
C      1  0.4904720000000  0.4633330000000  0.5579450000000 1.0
C      1  0.5924640000000  0.5120530000000  0.5095310000000 1.0
C      1  0.5692970000000  0.4632730000000  0.4537840000000 1.0
C      1  0.4810050000000  0.5045780000000  0.4071180000000 1.0
C      1  0.5545200000000  0.5290320000000  0.4348620000000 1.0
C      1  0.4411500000000  0.5625370000000  0.5388730000000 1.0
C      1  0.5266260000000  0.5082270000000  0.5972760000000 1.0
C      1  0.4141670000000  0.4654170000000  0.4878720000000 1.0
C      1  0.5322930000000  0.5356420000000  0.4837680000000 1.0
C      1  0.4972640000000  0.4887910000000  0.5005080000000 1.0
C      1  0.5886950000000  0.4784360000000  0.4683520000000 1.0
C      1  0.4397150000000  0.4787900000000  0.4114660000000 1.0
C      1  0.4289910000000  0.4563910000000  0.5697800000000 1.0
C      1  0.4696890000000  0.4925710000000  0.5148330000000 1.0
C      1  0.4104970000000  0.5237660000000  0.5204690000000 1.0
C      1  0.5648120000000  0.5740320000000  0.5319270000000 1.0
C      1  0.5605100000000  0.5090590000000  0.5650330000000 1.0
C      1  0.5435380000000  0.5562520000000  0.4407530000000 1.0
C      1  0.4916290000000  0.5380900000000  0.5688120000000 1.0
C      1  0.4602180000000  0.4397720000000  0.4558770000000 1.0
C      1  0.5606390000000  0.4452070000000  0.5664760000000 1.0
C      1  0.4330180000000  0.4573590000000  0.5096280000000 1.0
C      1  0.4607120000000  0.5879000000000  0.4932970000000 1.0
C      1  0.4964650000000  0.4079260000000  0.5641880000000 1.0
C      1  0.4296100000000  0.4629790000000  0.4322680000000 1.0
C      1  0.5375110000000  0.5377540000000  0.5305880000000 1.0
C      1  0.4568190000000  0.4914010000000  0.4672210000000 1.0
C      1  0.5852180000000  0.4535810000000  0.5536810000000 1.0
C      1  0.5330810000000  0.4051370000000  0.4919540000000 1.0
C      1  0.4998530000000  0.4150860000000  0.4378050000000 1.0
C      1  0.4778370000000  0.4332920000000  0.4340110000000 1.0
C      1  0.5175040000000  0.4522940000000  0.5199710000000 1.0
C      1  0.4841080000000  0.5317560000000  0.5409620000000 1.0
C      1  0.4586840000000  0.4883970000000  0.5873310000000 1.0
C      1  0.5261520000000  0.5485720000000  0.5073310000000 1.0
C      1  0.5162720000000  0.4006800000000  0.5170630000000 1.0
C      1  0.4492260000000  0.5259200000000  0.5841180000000 1.0
C      1  0.5152370000000  0.5606770000000  0.4407960000000 1.0
C      1  0.4633640000000  0.5439270000000  0.4666870000000 1.0
C      1  0.5658010000000  0.5822620000000  0.4828990000000 1.0
C      1  0.5015670000000  0.5368720000000  0.4343290000000 1.0
C      1  0.4517050000000  0.5491870000000  0.4209120000000 1.0
C      1  0.5809000000000  0.5269870000000  0.4459640000000 1.0
C      1  0.4710400000000  0.4171420000000  0.5715270000000 1.0
C      1  0.5375970000000  0.5045530000000  0.4263980000000 1.0
C      1  0.5973690000000  0.5023870000000  0.5364540000000 1.0
C      1  0.4865900000000  0.5850680000000  0.5540730000000 1.0
C      1  0.5114930000000  0.4545000000000  0.4066910000000 1.0
C      1  0.4662080000000  0.5475650000000  0.5788040000000 1.0
C      1  0.4424420000000  0.5510340000000  0.4482720000000 1.0
C      1  0.5087980000000  0.5135090000000  0.4176770000000 1.0
C      1  0.5930410000000  0.5363220000000  0.4684160000000 1.0
C      1  0.5810360000000  0.5669150000000  0.5539310000000 1.0
C      1  0.5643310000000  0.4372100000000  0.4655890000000 1.0
C      1  0.5003170000000  0.4859630000000  0.4727900000000 1.0
C      1  0.5983470000000  0.4742000000000  0.5419460000000 1.0
C      1  0.4496270000000  0.4671830000000  0.4537570000000 1.0
C      1  0.4315230000000  0.4865170000000  0.5711510000000 1.0
C      1  0.4175150000000  0.5377880000000  0.4531390000000 1.0
C      1  0.5418750000000  0.4398850000000  0.5250410000000 1.0
C      1  0.5483340000000  0.4726170000000  0.4345780000000 1.0
C      1  0.5268790000000  0.4244140000000  0.4416950000000 1.0
C      1  0.5010860000000  0.5603140000000  0.5080680000000 1.0
C      1  0.4737740000000  0.4279320000000  0.5180660000000 1.0
C      1  0.4834910000000  0.5285900000000  0.4537110000000 1.0
C      1  0.4292330000000  0.5168320000000  0.5650250000000 1.0
C      1  0.5546190000000  0.6070550000000  0.4912990000000 1.0
C      1  0.5529230000000  0.4922010000000  0.4929780000000 1.0
C      1  0.4451550000000  0.5780350000000  0.5139690000000 1.0
C      1  0.5240740000000  0.4935430000000  0.5394480000000 1.0
C      1  0.5437100000000  0.4267930000000  0.5506810000000 1.0
C      1  0.4803160000000  0.5888210000000  0.4737760000000 1.0
C      1  0.4540790000000  0.4408800000000  0.5760990000000 1.0
C      1  0.5866510000000  0.5175190000000  0.5582820000000 1.0
C      1  0.4038290000000  0.5173740000000  0.4937660000000 1.0
C      1  0.4094480000000  0.4463470000000  0.4426630000000 1.0
C      1  0.5397860000000  0.5907930000000  0.5346080000000 1.0
C      1  0.5012760000000  0.4378160000000  0.4779270000000 1.0
C      1  0.4823500000000  0.5010520000000  0.4580940000000 1.0
C      1  0.4795820000000  0.5045450000000  0.5398840000000 1.0
C      1  0.4557680000000  0.5226310000000  0.4112420000000 1.0
C      1  0.5810290000000  0.4916760000000  0.4922350000000 1.0
C      1  0.4997990000000  0.5803380000000  0.4561080000000 1.0
C      1  0.5507340000000  0.4652750000000  0.5845620000000 1.0
C      1  0.4723460000000  0.4634420000000  0.5797490000000 1.0
C      1  0.4836930000000  0.4537080000000  0.4131820000000 1.0
C      1  0.5213330000000  0.4069950000000  0.5473780000000 1.0
C      1  0.5137360000000  0.5880170000000  0.5483440000000 1.0
C      1  0.4686550000000  0.4770870000000  0.4064010000000 1.0
C      1  0.4876100000000  0.4033750000000  0.5121840000000 1.0
C      1  0.4612660000000  0.5696960000000  0.5600480000000 1.0
C      1  0.5748120000000  0.5646630000000  0.5049260000000 1.0
C      1  0.4143440000000  0.4407830000000  0.4703340000000 1.0
C      1  0.4476210000000  0.4754840000000  0.5245260000000 1.0
C      1  0.5099710000000  0.5270170000000  0.5871040000000 1.0
C      1  0.4491380000000  0.4335670000000  0.5036150000000 1.0
C      1  0.5416180000000  0.5141820000000  0.5445350000000 1.0
C      1  0.5486160000000  0.4938420000000  0.5862990000000 1.0
C      1  0.5195000000000  0.4798200000000  0.5152810000000 1.0
C      1  0.4021980000000  0.5404780000000  0.4766160000000 1.0
C      1  0.4614450000000  0.5349500000000  0.4938220000000 1.0
C      1  0.4326710000000  0.5056050000000  0.4192810000000 1.0
C      1  0.4418750000000  0.4282350000000  0.4757600000000 1.0
C      1  0.5421020000000  0.4189900000000  0.4666830000000 1.0
C      1  0.4792410000000  0.5444310000000  0.5154700000000 1.0
C      1  0.4256430000000  0.5352100000000  0.5419460000000 1.0
C      1  0.5891910000000  0.5391320000000  0.4971560000000 1.0
C      1  0.5595220000000  0.5733730000000  0.4568610000000 1.0
C      1  0.5074840000000  0.4603350000000  0.4662960000000 1.0
C      1  0.4094650000000  0.4933930000000  0.4768370000000 1.0
C      1  0.4177940000000  0.5098090000000  0.4448930000000 1.0
C      1  0.5321270000000  0.4495870000000  0.4257180000000 1.0
C      1  0.4994780000000  0.4893820000000  0.5527570000000 1.0
C      1  0.5390220000000  0.5105280000000  0.4795290000000 1.0
END
