TITL C-247198-3593-106 -0.000459751547632258 125000 -340.23535005063 0 0 56 (C1) n - 1
REM
REM in /home/nfs/bkarasulu/CARBON/AIRSS/Generating-Clusters/LCBOP/Only-C1/SD-CG/FIRE-HFTN
REM
REM
REM
REM
REM
REM ./C.cell (11c1c37f851c82e70ff6c80c92926a4b)
REM AIRSS Version 0.9.1 bugfix July 2018 build 013d7b7c2542+ Fri, 06 Jul 2018 19:26:36 +0100
REM compiler GCC version 9.2.1 20190827 (Red Hat 9.2.1-1)
REM options -cpp -mtune=generic -march=x86-64 -g -O0 -fpre-include=/usr/include/finclude/math-vector-fortran.h
REM seed 882416744 552918450 381884223 -851828401 -720182893 981923462 511817005 160281008 1373607677 -138725717 -1801227461 -1489083864 1339359335 1555137565 -478119040 -975390996 1606224526 -1002507410 -1657856406 -967752922 1942931145 1747352284 -1413972650 -857540428 1573270440 991664520 -1231909852 738536128 -946390411 467877199 -150005529 -241238857 -1112754469
REM
CELL 1.54180   50.00000   50.00000   50.00000   90.00000   90.00000   90.00000
LATT -1
SFAC C  
C      1  0.4535510000000  0.4753300000000  0.5313740000000 1.0
C      1  0.5794090000000  0.4933270000000  0.5165760000000 1.0
C      1  0.4824050000000  0.5166220000000  0.5017850000000 1.0
C      1  0.4262430000000  0.5184780000000  0.4716310000000 1.0
C      1  0.5376610000000  0.5755390000000  0.4311370000000 1.0
C      1  0.4690670000000  0.4889610000000  0.4503240000000 1.0
C      1  0.4414820000000  0.4971420000000  0.5134180000000 1.0
C      1  0.5481590000000  0.4575820000000  0.5347210000000 1.0
C      1  0.5561060000000  0.5567700000000  0.4875670000000 1.0
C      1  0.4693890000000  0.5439180000000  0.5349160000000 1.0
C      1  0.5559860000000  0.4780630000000  0.5168860000000 1.0
C      1  0.4647090000000  0.5715010000000  0.4950130000000 1.0
C      1  0.4496040000000  0.4766980000000  0.4686020000000 1.0
C      1  0.5141750000000  0.5218800000000  0.5606000000000 1.0
C      1  0.4870220000000  0.4868450000000  0.5679440000000 1.0
C      1  0.5131940000000  0.4256440000000  0.5265520000000 1.0
C      1  0.4878910000000  0.4564990000000  0.4877100000000 1.0
C      1  0.5411150000000  0.5884840000000  0.4544440000000 1.0
C      1  0.5334470000000  0.4860760000000  0.5000960000000 1.0
C      1  0.4999270000000  0.4297000000000  0.4832830000000 1.0
C      1  0.5450890000000  0.4330850000000  0.4897420000000 1.0
C      1  0.4664780000000  0.4486270000000  0.5328800000000 1.0
C      1  0.4576260000000  0.5237340000000  0.5165780000000 1.0
C      1  0.4479370000000  0.4310600000000  0.4932540000000 1.0
C      1  0.5251440000000  0.5287050000000  0.4412100000000 1.0
C      1  0.5250020000000  0.5644640000000  0.5405740000000 1.0
C      1  0.5071470000000  0.5747700000000  0.5210430000000 1.0
C      1  0.4332670000000  0.4941560000000  0.4851650000000 1.0
C      1  0.5243170000000  0.4368500000000  0.4694500000000 1.0
C      1  0.5153020000000  0.4568550000000  0.4493660000000 1.0
C      1  0.4914230000000  0.5213680000000  0.4755730000000 1.0
C      1  0.5314710000000  0.5498900000000  0.4261640000000 1.0
C      1  0.5372050000000  0.5109730000000  0.4855400000000 1.0
C      1  0.5327490000000  0.5420440000000  0.5536100000000 1.0
C      1  0.4711370000000  0.5174570000000  0.4559440000000 1.0
C      1  0.4650510000000  0.4255220000000  0.5159890000000 1.0
C      1  0.5406610000000  0.4331160000000  0.5190170000000 1.0
C      1  0.5019430000000  0.4533450000000  0.5351130000000 1.0
C      1  0.4750960000000  0.4907720000000  0.5429220000000 1.0
C      1  0.4934710000000  0.4733010000000  0.4433650000000 1.0
C      1  0.5051930000000  0.4733560000000  0.5075020000000 1.0
C      1  0.4920080000000  0.4968730000000  0.5192310000000 1.0
C      1  0.5405630000000  0.5794230000000  0.4810420000000 1.0
C      1  0.5200190000000  0.5864960000000  0.4988460000000 1.0
C      1  0.4793180000000  0.5668330000000  0.5192820000000 1.0
C      1  0.5253550000000  0.4670610000000  0.5518690000000 1.0
C      1  0.4868790000000  0.5336670000000  0.5559480000000 1.0
C      1  0.4531950000000  0.5596520000000  0.4735320000000 1.0
C      1  0.5808130000000  0.5176780000000  0.5050430000000 1.0
C      1  0.4259780000000  0.4173840000000  0.4853330000000 1.0
C      1  0.5180960000000  0.5200340000000  0.4669380000000 1.0
C      1  0.5155110000000  0.4923270000000  0.5653860000000 1.0
C      1  0.5587670000000  0.5292420000000  0.4918550000000 1.0
C      1  0.4924560000000  0.4163050000000  0.5081480000000 1.0
C      1  0.4479540000000  0.5342390000000  0.4616030000000 1.0
C      1  0.4598370000000  0.4542790000000  0.4813610000000 1.0
END
