TITL C-247198-3593-378 -1.83808370258489e-07 125000 -537.153807400682 0 0 89 (C1) n - 1
REM
REM in /home/nfs/bkarasulu/CARBON/AIRSS/Generating-Clusters/LCBOP/Only-C1/SD-CG/FIRE-HFTN
REM
REM
REM
REM
REM
REM ./C.cell (11c1c37f851c82e70ff6c80c92926a4b)
REM AIRSS Version 0.9.1 bugfix July 2018 build 013d7b7c2542+ Fri, 06 Jul 2018 19:26:36 +0100
REM compiler GCC version 9.2.1 20190827 (Red Hat 9.2.1-1)
REM options -cpp -mtune=generic -march=x86-64 -g -O0 -fpre-include=/usr/include/finclude/math-vector-fortran.h
REM seed 2007557655 451503657 896737264 585006881 -235746260 -1967239781 -88222750 1886705864 -369859640 154822752 -1171438414 134412353 1531151441 -29853892 -1467170605 800057395 1150309975 1523218625 -415899261 -354101568 241710591 -82622303 -1909828139 -787911517 1465311416 -975655466 1031899374 -2019877315 -1842814479 -1551383842 510415591 252307978 -2091972687
REM
CELL 1.54180   50.00000   50.00000   50.00000   90.00000   90.00000   90.00000
LATT -1
SFAC C  
C      1  0.4977760000000  0.5784570000000  0.5676290000000 1.0
C      1  0.5161090000000  0.5777150000000  0.4949500000000 1.0
C      1  0.4580310000000  0.5301910000000  0.4125750000000 1.0
C      1  0.5241590000000  0.4678990000000  0.4179040000000 1.0
C      1  0.4359410000000  0.5463980000000  0.5438320000000 1.0
C      1  0.5159390000000  0.5341080000000  0.5492010000000 1.0
C      1  0.5798340000000  0.5475310000000  0.5035220000000 1.0
C      1  0.4897180000000  0.4980590000000  0.4550170000000 1.0
C      1  0.4234550000000  0.5031980000000  0.5218510000000 1.0
C      1  0.4490810000000  0.5071140000000  0.4790030000000 1.0
C      1  0.5428620000000  0.4627330000000  0.4392660000000 1.0
C      1  0.5461270000000  0.4964290000000  0.4998040000000 1.0
C      1  0.4228550000000  0.4854360000000  0.4489580000000 1.0
C      1  0.5892550000000  0.4597010000000  0.4712230000000 1.0
C      1  0.5871150000000  0.5101650000000  0.4767140000000 1.0
C      1  0.4493480000000  0.5349010000000  0.4400220000000 1.0
C      1  0.4348770000000  0.4366880000000  0.5447290000000 1.0
C      1  0.4646860000000  0.4339160000000  0.5457220000000 1.0
C      1  0.4786920000000  0.5053080000000  0.4811830000000 1.0
C      1  0.4959360000000  0.5199340000000  0.5346730000000 1.0
C      1  0.5455850000000  0.4970330000000  0.4735140000000 1.0
C      1  0.5128380000000  0.4563040000000  0.5578140000000 1.0
C      1  0.4959100000000  0.5863200000000  0.5416660000000 1.0
C      1  0.4837520000000  0.5186900000000  0.4085690000000 1.0
C      1  0.4750060000000  0.4538250000000  0.4119900000000 1.0
C      1  0.3892910000000  0.5360240000000  0.5330980000000 1.0
C      1  0.4700840000000  0.4765580000000  0.5690650000000 1.0
C      1  0.4156570000000  0.5285930000000  0.5328250000000 1.0
C      1  0.5034750000000  0.5581630000000  0.5852210000000 1.0
C      1  0.5319650000000  0.4939980000000  0.5229920000000 1.0
C      1  0.4676630000000  0.5541840000000  0.4557790000000 1.0
C      1  0.5799760000000  0.4714450000000  0.5383090000000 1.0
C      1  0.5711500000000  0.5358050000000  0.4788000000000 1.0
C      1  0.5949440000000  0.4767520000000  0.5147590000000 1.0
C      1  0.5117100000000  0.5315570000000  0.5778940000000 1.0
C      1  0.4978860000000  0.4602950000000  0.4266260000000 1.0
C      1  0.5870600000000  0.5387260000000  0.5279980000000 1.0
C      1  0.4360430000000  0.5116610000000  0.4541170000000 1.0
C      1  0.5273930000000  0.4371450000000  0.5112690000000 1.0
C      1  0.4620950000000  0.4706530000000  0.5063520000000 1.0
C      1  0.5444280000000  0.4438040000000  0.4620870000000 1.0
C      1  0.5617360000000  0.4493860000000  0.5423160000000 1.0
C      1  0.4536160000000  0.4473440000000  0.4923310000000 1.0
C      1  0.4673440000000  0.5533880000000  0.4849720000000 1.0
C      1  0.4946550000000  0.5158130000000  0.4348510000000 1.0
C      1  0.4489120000000  0.4598980000000  0.4116370000000 1.0
C      1  0.5259500000000  0.4943290000000  0.4041220000000 1.0
C      1  0.5371050000000  0.5505270000000  0.5416270000000 1.0
C      1  0.4832050000000  0.4522600000000  0.5601570000000 1.0
C      1  0.5401870000000  0.5852170000000  0.5082870000000 1.0
C      1  0.4545090000000  0.5343490000000  0.5627270000000 1.0
C      1  0.5245620000000  0.4454260000000  0.4840610000000 1.0
C      1  0.5803610000000  0.4116450000000  0.4712690000000 1.0
C      1  0.4463580000000  0.5667440000000  0.5265310000000 1.0
C      1  0.4965640000000  0.5615660000000  0.4512390000000 1.0
C      1  0.4924080000000  0.5812700000000  0.5133840000000 1.0
C      1  0.5835110000000  0.5199050000000  0.5468850000000 1.0
C      1  0.4885020000000  0.4823380000000  0.4992230000000 1.0
C      1  0.4660980000000  0.5714230000000  0.5064160000000 1.0
C      1  0.4190750000000  0.4410740000000  0.5199990000000 1.0
C      1  0.5067420000000  0.5034880000000  0.5846360000000 1.0
C      1  0.4209880000000  0.4344940000000  0.5685040000000 1.0
C      1  0.5475920000000  0.5727190000000  0.5309780000000 1.0
C      1  0.5205120000000  0.5621150000000  0.4694470000000 1.0
C      1  0.4153840000000  0.4674030000000  0.4713360000000 1.0
C      1  0.5701300000000  0.4954810000000  0.5510260000000 1.0
C      1  0.5422110000000  0.5155550000000  0.4155590000000 1.0
C      1  0.5465610000000  0.5454530000000  0.4622920000000 1.0
C      1  0.4292180000000  0.4726580000000  0.4245150000000 1.0
C      1  0.4848100000000  0.5316780000000  0.4912860000000 1.0
C      1  0.5527590000000  0.4868730000000  0.4500410000000 1.0
C      1  0.4598600000000  0.5210840000000  0.5885270000000 1.0
C      1  0.5022990000000  0.4626490000000  0.4796330000000 1.0
C      1  0.5017850000000  0.5046770000000  0.3915340000000 1.0
C      1  0.4454530000000  0.4852210000000  0.5244460000000 1.0
C      1  0.5462360000000  0.5342240000000  0.4349900000000 1.0
C      1  0.5044950000000  0.4973100000000  0.5197400000000 1.0
C      1  0.4943300000000  0.4701060000000  0.4529930000000 1.0
C      1  0.5223540000000  0.4832340000000  0.5687450000000 1.0
C      1  0.4676230000000  0.4235830000000  0.4983530000000 1.0
C      1  0.4784180000000  0.4972790000000  0.5882940000000 1.0
C      1  0.4745850000000  0.4181120000000  0.5240920000000 1.0
C      1  0.4247170000000  0.4492350000000  0.4921060000000 1.0
C      1  0.5717970000000  0.4373790000000  0.4683510000000 1.0
C      1  0.5331730000000  0.4442820000000  0.5385170000000 1.0
C      1  0.5932290000000  0.4831470000000  0.4869200000000 1.0
C      1  0.4705640000000  0.5177680000000  0.5454720000000 1.0
C      1  0.4600280000000  0.4914190000000  0.5471130000000 1.0
C      1  0.5417780000000  0.4940560000000  0.5499990000000 1.0
END
