TITL C-247200-3482-289 23449.7106289474 125000 -1137.0016198169 0 0 184 (C1) n - 1
REM
REM in /home/nfs/bkarasulu/CARBON/AIRSS/Generating-Clusters/LCBOP/Only-C1/SD-CG/FIRE-HFTN
REM
REM
REM
REM
REM
REM ./C.cell (11c1c37f851c82e70ff6c80c92926a4b)
REM AIRSS Version 0.9.1 bugfix July 2018 build 013d7b7c2542+ Fri, 06 Jul 2018 19:26:36 +0100
REM compiler GCC version 9.2.1 20190827 (Red Hat 9.2.1-1)
REM options -cpp -mtune=generic -march=x86-64 -g -O0 -fpre-include=/usr/include/finclude/math-vector-fortran.h
REM seed 477511437 -117003413 -812756017 -1870040911 -1050376003 -1703252564 -157219734 -409746287 821333663 1731637172 818909175 1079094182 337446471 -2100388991 -931390179 -2002757328 -946465454 -567316508 -1366771739 -1272782066 1389072442 -2021551675 788658988 1883476155 -1936365602 510057491 1325561184 1115704578 1436063527 -367005232 2018045666 -541280429 411762183
REM
CELL 1.54180   50.00000   50.00000   50.00000   90.00000   90.00000   90.00000
LATT -1
SFAC C  
C      1  0.5208380000000  0.4579210000000  0.4497480000000 1.0
C      1  0.4153500000000  0.5908470000000  0.5159080000000 1.0
C      1  0.3927550000000  0.5559910000000  0.5529470000000 1.0
C      1  0.3972900000000  0.3941880000000  0.4454230000000 1.0
C      1  0.5898370000000  0.5725790000000  0.4562940000000 1.0
C      1  0.5018350000000  0.5884650000000  0.5180840000000 1.0
C      1  0.5734670000000  0.5861750000000  0.4978200000000 1.0
C      1  0.5293160000000  0.4384560000000  0.4943160000000 1.0
C      1  0.5394850000000  0.4973660000000  0.4794290000000 1.0
C      1  0.5635010000000  0.4820800000000  0.5218640000000 1.0
C      1  0.6043690000000  0.4615140000000  0.5089210000000 1.0
C      1  0.5327040000000  0.5015390000000  0.5783210000000 1.0
C      1  0.5940570000000  0.4572300000000  0.5793900000000 1.0
C      1  0.5277860000000  0.4883870000000  0.6064860000000 1.0
C      1  0.5888280000000  0.4486690000000  0.5532110000000 1.0
C      1  0.5346850000000  0.4846330000000  0.4515670000000 1.0
C      1  0.4921770000000  0.4388690000000  0.5254880000000 1.0
C      1  0.4521500000000  0.5260340000000  0.5287430000000 1.0
C      1  0.5294910000000  0.5356060000000  0.6490690000000 1.0
C      1  0.4986520000000  0.4555700000000  0.4313580000000 1.0
C      1  0.5414140000000  0.4499640000000  0.5680830000000 1.0
C      1  0.4004730000000  0.4980170000000  0.6051170000000 1.0
C      1  0.5063930000000  0.6085530000000  0.4982460000000 1.0
C      1  0.4934190000000  0.5274520000000  0.4029870000000 1.0
C      1  0.5976210000000  0.5259160000000  0.5377070000000 1.0
C      1  0.5319880000000  0.5422460000000  0.4478060000000 1.0
C      1  0.5758020000000  0.5499890000000  0.5751810000000 1.0
C      1  0.3811380000000  0.4153590000000  0.4364010000000 1.0
C      1  0.5780270000000  0.4500150000000  0.4722820000000 1.0
C      1  0.4016070000000  0.6023570000000  0.4674650000000 1.0
C      1  0.5680350000000  0.5248870000000  0.4052330000000 1.0
C      1  0.5001520000000  0.5933990000000  0.4568700000000 1.0
C      1  0.4954190000000  0.5664650000000  0.4660280000000 1.0
C      1  0.5299690000000  0.5985520000000  0.4566930000000 1.0
C      1  0.5863270000000  0.4205400000000  0.5444130000000 1.0
C      1  0.6276200000000  0.6092020000000  0.5409270000000 1.0
C      1  0.5764720000000  0.5955780000000  0.5504420000000 1.0
C      1  0.5619950000000  0.4887940000000  0.4941510000000 1.0
C      1  0.5472210000000  0.3902770000000  0.4709260000000 1.0
C      1  0.5017580000000  0.5022040000000  0.4139920000000 1.0
C      1  0.5893150000000  0.4701730000000  0.6022840000000 1.0
C      1  0.5727430000000  0.5567110000000  0.4993100000000 1.0
C      1  0.4852960000000  0.6088830000000  0.4782450000000 1.0
C      1  0.4924010000000  0.4318550000000  0.5796060000000 1.0
C      1  0.5556290000000  0.4718530000000  0.3814680000000 1.0
C      1  0.4089330000000  0.5777540000000  0.5420780000000 1.0
C      1  0.5423920000000  0.5215080000000  0.3917300000000 1.0
C      1  0.4053590000000  0.5112380000000  0.4559180000000 1.0
C      1  0.5233750000000  0.4331300000000  0.4635180000000 1.0
C      1  0.5365170000000  0.4436500000000  0.5950740000000 1.0
C      1  0.5332780000000  0.6077150000000  0.4864800000000 1.0
C      1  0.4142800000000  0.4883170000000  0.4701180000000 1.0
C      1  0.5035150000000  0.5979980000000  0.5449080000000 1.0
C      1  0.4984260000000  0.4076780000000  0.5622540000000 1.0
C      1  0.3686660000000  0.4443940000000  0.3972580000000 1.0
C      1  0.4521430000000  0.6006460000000  0.5431710000000 1.0
C      1  0.4901940000000  0.4690220000000  0.4844830000000 1.0
C      1  0.4507450000000  0.4071890000000  0.4439530000000 1.0
C      1  0.4975620000000  0.4626350000000  0.5408880000000 1.0
C      1  0.4417380000000  0.5428530000000  0.4573050000000 1.0
C      1  0.4282870000000  0.5202080000000  0.5121450000000 1.0
C      1  0.5552900000000  0.5389570000000  0.5157340000000 1.0
C      1  0.5016180000000  0.3903890000000  0.4543940000000 1.0
C      1  0.5637470000000  0.4072030000000  0.4553070000000 1.0
C      1  0.4424740000000  0.4702030000000  0.6191720000000 1.0
C      1  0.4189420000000  0.4830040000000  0.6174210000000 1.0
C      1  0.3754540000000  0.3542600000000  0.4748320000000 1.0
C      1  0.4511620000000  0.5116340000000  0.5561490000000 1.0
C      1  0.5771950000000  0.5518990000000  0.4119530000000 1.0
C      1  0.5445640000000  0.5828650000000  0.4340780000000 1.0
C      1  0.5129200000000  0.5633800000000  0.6099950000000 1.0
C      1  0.4743130000000  0.4005290000000  0.4890670000000 1.0
C      1  0.5188300000000  0.3833980000000  0.4781730000000 1.0
C      1  0.4140550000000  0.4652730000000  0.4525410000000 1.0
C      1  0.4650670000000  0.5226330000000  0.3988010000000 1.0
C      1  0.6106220000000  0.5141820000000  0.5150910000000 1.0
C      1  0.5197110000000  0.4264340000000  0.5216610000000 1.0
C      1  0.5487340000000  0.4945080000000  0.6255480000000 1.0
C      1  0.5732720000000  0.5726640000000  0.4323720000000 1.0
C      1  0.4452370000000  0.5603610000000  0.5705540000000 1.0
C      1  0.5135000000000  0.5016450000000  0.4390450000000 1.0
C      1  0.4800030000000  0.5113020000000  0.5685890000000 1.0
C      1  0.5156590000000  0.4764820000000  0.5242270000000 1.0
C      1  0.3917470000000  0.4634070000000  0.4336210000000 1.0
C      1  0.5167410000000  0.4602210000000  0.6086710000000 1.0
C      1  0.5001310000000  0.3885270000000  0.5020800000000 1.0
C      1  0.4013910000000  0.5485440000000  0.4837110000000 1.0
C      1  0.5413720000000  0.3880170000000  0.5379340000000 1.0
C      1  0.5546920000000  0.4486710000000  0.3990970000000 1.0
C      1  0.5202980000000  0.5413160000000  0.4011810000000 1.0
C      1  0.5167580000000  0.5539880000000  0.6345670000000 1.0
C      1  0.5529520000000  0.6058780000000  0.5354150000000 1.0
C      1  0.4457830000000  0.5626240000000  0.4375320000000 1.0
C      1  0.5148120000000  0.4658930000000  0.4975800000000 1.0
C      1  0.6019040000000  0.5420090000000  0.5619510000000 1.0
C      1  0.4363030000000  0.4592350000000  0.4336170000000 1.0
C      1  0.4816580000000  0.5163420000000  0.4864450000000 1.0
C      1  0.6060660000000  0.4150700000000  0.5245310000000 1.0
C      1  0.4443570000000  0.5986510000000  0.5139630000000 1.0
C      1  0.5402610000000  0.4326200000000  0.5453070000000 1.0
C      1  0.4769500000000  0.4467170000000  0.4735760000000 1.0
C      1  0.4265190000000  0.4955520000000  0.4958520000000 1.0
C      1  0.6158270000000  0.4354900000000  0.5090810000000 1.0
C      1  0.4315880000000  0.4793570000000  0.4113600000000 1.0
C      1  0.4525360000000  0.4354800000000  0.4360820000000 1.0
C      1  0.3656490000000  0.5557350000000  0.5483790000000 1.0
C      1  0.6065200000000  0.5040480000000  0.4877000000000 1.0
C      1  0.5077750000000  0.4565630000000  0.4041870000000 1.0
C      1  0.4708980000000  0.5626840000000  0.5580640000000 1.0
C      1  0.5864920000000  0.4673040000000  0.5312730000000 1.0
C      1  0.4142080000000  0.5369120000000  0.4615700000000 1.0
C      1  0.4150000000000  0.5989220000000  0.4446350000000 1.0
C      1  0.4640610000000  0.4613990000000  0.6036670000000 1.0
C      1  0.5116420000000  0.4834090000000  0.3953020000000 1.0
C      1  0.4048730000000  0.5348400000000  0.5695200000000 1.0
C      1  0.5364130000000  0.4932220000000  0.3838990000000 1.0
C      1  0.5531670000000  0.6029130000000  0.5068510000000 1.0
C      1  0.5167660000000  0.4119400000000  0.4435370000000 1.0
C      1  0.4472110000000  0.5020100000000  0.4031080000000 1.0
C      1  0.4473920000000  0.4798190000000  0.5529260000000 1.0
C      1  0.4495280000000  0.4816470000000  0.5034990000000 1.0
C      1  0.5400280000000  0.4828660000000  0.5354810000000 1.0
C      1  0.5284810000000  0.4366100000000  0.4002210000000 1.0
C      1  0.5991060000000  0.5236580000000  0.4687890000000 1.0
C      1  0.3498330000000  0.4307590000000  0.3833230000000 1.0
C      1  0.5748050000000  0.5040070000000  0.4250070000000 1.0
C      1  0.5141170000000  0.5453770000000  0.4682730000000 1.0
C      1  0.4621780000000  0.5380550000000  0.4775650000000 1.0
C      1  0.5128250000000  0.3975940000000  0.5297710000000 1.0
C      1  0.6027920000000  0.6032820000000  0.5461770000000 1.0
C      1  0.5908050000000  0.4761310000000  0.4848920000000 1.0
C      1  0.3660840000000  0.3382130000000  0.4937350000000 1.0
C      1  0.5593310000000  0.4400040000000  0.4929660000000 1.0
C      1  0.5600090000000  0.4805000000000  0.4334520000000 1.0
C      1  0.4501250000000  0.4645560000000  0.5264400000000 1.0
C      1  0.5262980000000  0.5324140000000  0.5160100000000 1.0
C      1  0.5401440000000  0.5875090000000  0.5768270000000 1.0
C      1  0.5739980000000  0.4835480000000  0.6196770000000 1.0
C      1  0.3572710000000  0.3234460000000  0.5133310000000 1.0
C      1  0.5157430000000  0.5544060000000  0.5600490000000 1.0
C      1  0.5579590000000  0.5267140000000  0.5662310000000 1.0
C      1  0.5290550000000  0.5584370000000  0.4241760000000 1.0
C      1  0.4317450000000  0.5839150000000  0.5587470000000 1.0
C      1  0.4252470000000  0.3953470000000  0.4425530000000 1.0
C      1  0.5136740000000  0.5229820000000  0.4889450000000 1.0
C      1  0.4732260000000  0.3946670000000  0.4597190000000 1.0
C      1  0.5560670000000  0.5311910000000  0.4543620000000 1.0
C      1  0.5431850000000  0.5129520000000  0.6457050000000 1.0
C      1  0.5214840000000  0.5677790000000  0.5841250000000 1.0
C      1  0.5674400000000  0.5778200000000  0.5720410000000 1.0
C      1  0.4735030000000  0.4900870000000  0.4912430000000 1.0
C      1  0.4078520000000  0.5390210000000  0.5080530000000 1.0
C      1  0.5078450000000  0.5115760000000  0.5629970000000 1.0
C      1  0.5596470000000  0.4102030000000  0.5444370000000 1.0
C      1  0.4436020000000  0.5988670000000  0.4055950000000 1.0
C      1  0.4728580000000  0.5647750000000  0.4862400000000 1.0
C      1  0.5245010000000  0.4136640000000  0.4163300000000 1.0
C      1  0.5661300000000  0.4528770000000  0.4254910000000 1.0
C      1  0.5802990000000  0.5176040000000  0.4492130000000 1.0
C      1  0.4654410000000  0.4278360000000  0.4925770000000 1.0
C      1  0.4855660000000  0.4558840000000  0.5646790000000 1.0
C      1  0.3763710000000  0.4404060000000  0.4250490000000 1.0
C      1  0.4642810000000  0.4390930000000  0.5187870000000 1.0
C      1  0.5302400000000  0.6031960000000  0.5538400000000 1.0
C      1  0.5877600000000  0.5947870000000  0.4744250000000 1.0
C      1  0.4776010000000  0.5915160000000  0.5548780000000 1.0
C      1  0.4612460000000  0.5940710000000  0.4890480000000 1.0
C      1  0.4766540000000  0.4458990000000  0.4453810000000 1.0
C      1  0.3927820000000  0.5163670000000  0.5870290000000 1.0
C      1  0.4349570000000  0.5870880000000  0.4286470000000 1.0
C      1  0.4335620000000  0.5340270000000  0.5707590000000 1.0
C      1  0.3851160000000  0.4661100000000  0.3876210000000 1.0
C      1  0.3856080000000  0.3723840000000  0.4583900000000 1.0
C      1  0.5680600000000  0.5251910000000  0.5377880000000 1.0
C      1  0.4904760000000  0.4459170000000  0.6072160000000 1.0
C      1  0.4024600000000  0.4767160000000  0.4080220000000 1.0
C      1  0.4860160000000  0.5638620000000  0.5130630000000 1.0
C      1  0.4614350000000  0.4668480000000  0.5746800000000 1.0
C      1  0.5914040000000  0.5500910000000  0.4764000000000 1.0
C      1  0.5417530000000  0.4778590000000  0.5626340000000 1.0
C      1  0.5151840000000  0.5317680000000  0.5432590000000 1.0
C      1  0.4713830000000  0.5487370000000  0.5322660000000 1.0
C      1  0.5728480000000  0.4350710000000  0.4479880000000 1.0
C      1  0.3996760000000  0.5983860000000  0.4938710000000 1.0
END
