TITL C-247202-1916-396 164.958205365921 125000 -496.497548181249 0 0 84 (C1) n - 1
REM
REM in /home/nfs/bkarasulu/CARBON/AIRSS/Generating-Clusters/LCBOP/Only-C1/SD-CG/FIRE-HFTN
REM
REM
REM
REM
REM
REM ./C.cell (11c1c37f851c82e70ff6c80c92926a4b)
REM AIRSS Version 0.9.1 bugfix July 2018 build 013d7b7c2542+ Fri, 06 Jul 2018 19:26:36 +0100
REM compiler GCC version 9.2.1 20190827 (Red Hat 9.2.1-1)
REM options -cpp -mtune=generic -march=x86-64 -g -O0 -fpre-include=/usr/include/finclude/math-vector-fortran.h
REM seed 1716028207 927002814 -1583184597 850959062 1552492099 1018522367 -1062173325 1776049226 -2002025492 -1682246998 1121000955 -120882703 1434380015 -1497012400 265583322 594461557 128871220 -1833662384 2131309243 439575267 1226051454 1382843231 803363609 1916905464 -1641018091 1262234191 -1603833845 1202280259 151055413 -1653447339 791328062 549842986 2128447445
REM
CELL 1.54180   50.00000   50.00000   50.00000   90.00000   90.00000   90.00000
LATT -1
SFAC C  
C      1  0.4376130000000  0.5904710000000  0.5256670000000 1.0
C      1  0.4676390000000  0.4996910000000  0.4974140000000 1.0
C      1  0.5057790000000  0.4678080000000  0.5383970000000 1.0
C      1  0.5069560000000  0.4956250000000  0.4698930000000 1.0
C      1  0.4908170000000  0.5461220000000  0.5006000000000 1.0
C      1  0.5042450000000  0.4394970000000  0.5384050000000 1.0
C      1  0.5035770000000  0.5408220000000  0.4751470000000 1.0
C      1  0.5049680000000  0.5349980000000  0.5245380000000 1.0
C      1  0.4533580000000  0.4185870000000  0.5401200000000 1.0
C      1  0.4377060000000  0.5297280000000  0.4625100000000 1.0
C      1  0.5910630000000  0.4755430000000  0.5040570000000 1.0
C      1  0.4414990000000  0.4766270000000  0.4610840000000 1.0
C      1  0.4390700000000  0.4851050000000  0.5995570000000 1.0
C      1  0.5342840000000  0.4833180000000  0.5084070000000 1.0
C      1  0.4253190000000  0.5322720000000  0.5612280000000 1.0
C      1  0.4558090000000  0.5515620000000  0.4658160000000 1.0
C      1  0.4151270000000  0.5049470000000  0.5176270000000 1.0
C      1  0.5004880000000  0.4340050000000  0.4843710000000 1.0
C      1  0.5722560000000  0.4664460000000  0.4533300000000 1.0
C      1  0.4391580000000  0.5299880000000  0.5843000000000 1.0
C      1  0.4344000000000  0.5036670000000  0.4567740000000 1.0
C      1  0.4955100000000  0.5134840000000  0.5450090000000 1.0
C      1  0.4701990000000  0.5584600000000  0.4411910000000 1.0
C      1  0.5026190000000  0.4658680000000  0.6026420000000 1.0
C      1  0.5691180000000  0.5761020000000  0.4575610000000 1.0
C      1  0.5575650000000  0.5488640000000  0.5120790000000 1.0
C      1  0.5859680000000  0.4886480000000  0.4778530000000 1.0
C      1  0.4903600000000  0.4647950000000  0.4391380000000 1.0
C      1  0.4941020000000  0.4302920000000  0.5638380000000 1.0
C      1  0.5428360000000  0.4918910000000  0.5604490000000 1.0
C      1  0.4650860000000  0.5575300000000  0.4930850000000 1.0
C      1  0.5436520000000  0.4707160000000  0.4856460000000 1.0
C      1  0.5342470000000  0.5343500000000  0.5205550000000 1.0
C      1  0.5161980000000  0.5789200000000  0.4367220000000 1.0
C      1  0.5470370000000  0.5050120000000  0.4446810000000 1.0
C      1  0.4936780000000  0.4875550000000  0.4210250000000 1.0
C      1  0.4914900000000  0.4881120000000  0.4922960000000 1.0
C      1  0.4874090000000  0.5806910000000  0.4361360000000 1.0
C      1  0.5555100000000  0.5995880000000  0.4579910000000 1.0
C      1  0.5038360000000  0.4439330000000  0.5870610000000 1.0
C      1  0.5148190000000  0.4913490000000  0.5539320000000 1.0
C      1  0.4687750000000  0.5017480000000  0.5489630000000 1.0
C      1  0.4452050000000  0.4386680000000  0.5226050000000 1.0
C      1  0.5217040000000  0.5015850000000  0.6285160000000 1.0
C      1  0.4661740000000  0.4237960000000  0.5646820000000 1.0
C      1  0.5134430000000  0.4474870000000  0.4552510000000 1.0
C      1  0.4733350000000  0.5362430000000  0.4231200000000 1.0
C      1  0.5263030000000  0.4037190000000  0.5132300000000 1.0
C      1  0.4996700000000  0.5191420000000  0.4575450000000 1.0
C      1  0.5825850000000  0.4482530000000  0.5018360000000 1.0
C      1  0.4629030000000  0.4637510000000  0.4473530000000 1.0
C      1  0.5782960000000  0.5365160000000  0.4986170000000 1.0
C      1  0.5008650000000  0.4921110000000  0.6134100000000 1.0
C      1  0.4979560000000  0.4831620000000  0.3942950000000 1.0
C      1  0.4480330000000  0.4403830000000  0.4940620000000 1.0
C      1  0.5861680000000  0.4864250000000  0.5302830000000 1.0
C      1  0.4505370000000  0.5738890000000  0.5102670000000 1.0
C      1  0.5242660000000  0.5429890000000  0.3838910000000 1.0
C      1  0.5800580000000  0.5174690000000  0.4770790000000 1.0
C      1  0.4162680000000  0.5230530000000  0.5376020000000 1.0
C      1  0.4454330000000  0.4673440000000  0.5789690000000 1.0
C      1  0.5338180000000  0.4883890000000  0.4645090000000 1.0
C      1  0.5427370000000  0.5076450000000  0.5171960000000 1.0
C      1  0.5339360000000  0.5566700000000  0.4301560000000 1.0
C      1  0.5641080000000  0.5255200000000  0.4549830000000 1.0
C      1  0.5575320000000  0.5523410000000  0.4474040000000 1.0
C      1  0.5070920000000  0.4776490000000  0.5123490000000 1.0
C      1  0.4385990000000  0.4653980000000  0.5315690000000 1.0
C      1  0.4887300000000  0.5142910000000  0.4316290000000 1.0
C      1  0.4338850000000  0.4649030000000  0.4858080000000 1.0
C      1  0.5314700000000  0.5370790000000  0.4094730000000 1.0
C      1  0.4514190000000  0.5105780000000  0.6009370000000 1.0
C      1  0.5105660000000  0.4265800000000  0.5119450000000 1.0
C      1  0.5576300000000  0.4463110000000  0.4910720000000 1.0
C      1  0.5302740000000  0.6011240000000  0.4480960000000 1.0
C      1  0.5683100000000  0.4891570000000  0.5508160000000 1.0
C      1  0.4507870000000  0.4398840000000  0.5823750000000 1.0
C      1  0.4783850000000  0.5089210000000  0.6090890000000 1.0
C      1  0.5471110000000  0.4510300000000  0.4470050000000 1.0
C      1  0.4720430000000  0.4311350000000  0.4827660000000 1.0
C      1  0.4510540000000  0.4790030000000  0.5531380000000 1.0
C      1  0.4758350000000  0.6048190000000  0.4298500000000 1.0
C      1  0.5388090000000  0.5108890000000  0.4181890000000 1.0
C      1  0.4255240000000  0.4799640000000  0.5099400000000 1.0
END
