TITL C-247200-3482-122 69.2430390616667 125000 -1095.35599412071 0 0 182 (C1) n - 1
REM
REM in /home/nfs/bkarasulu/CARBON/AIRSS/Generating-Clusters/LCBOP/Only-C1/SD-CG/FIRE-HFTN
REM
REM
REM
REM
REM
REM ./C.cell (11c1c37f851c82e70ff6c80c92926a4b)
REM AIRSS Version 0.9.1 bugfix July 2018 build 013d7b7c2542+ Fri, 06 Jul 2018 19:26:36 +0100
REM compiler GCC version 9.2.1 20190827 (Red Hat 9.2.1-1)
REM options -cpp -mtune=generic -march=x86-64 -g -O0 -fpre-include=/usr/include/finclude/math-vector-fortran.h
REM seed 1686731494 846394459 807641047 -1187889257 -1448101379 -1000225181 1127745796 1789466783 -748687060 305114391 -97930562 -788334913 -853272690 1496835281 890710901 -176427626 -1390364618 -1097615557 -1860989124 1711254627 -209532090 -1442248526 -1126954262 -1751165392 728620122 -540690882 -557093321 147116019 -177120004 -543163289 1163842995 -307648640 1594985076
REM
CELL 1.54180   50.00000   50.00000   50.00000   90.00000   90.00000   90.00000
LATT -1
SFAC C  
C      1  0.5267050000000  0.6087090000000  0.5359110000000 1.0
C      1  0.4650830000000  0.5680350000000  0.4398950000000 1.0
C      1  0.5666260000000  0.5713380000000  0.4258020000000 1.0
C      1  0.4317510000000  0.5717620000000  0.4759250000000 1.0
C      1  0.4993350000000  0.4824280000000  0.5792200000000 1.0
C      1  0.5190120000000  0.4463460000000  0.5507680000000 1.0
C      1  0.4132610000000  0.5453240000000  0.5706620000000 1.0
C      1  0.5439610000000  0.5866240000000  0.4180330000000 1.0
C      1  0.4579100000000  0.4867320000000  0.4007000000000 1.0
C      1  0.4391680000000  0.3941730000000  0.5553700000000 1.0
C      1  0.4531740000000  0.5142380000000  0.3955270000000 1.0
C      1  0.5748480000000  0.4147880000000  0.4349870000000 1.0
C      1  0.4407960000000  0.5531730000000  0.5300380000000 1.0
C      1  0.5153750000000  0.6158900000000  0.4815840000000 1.0
C      1  0.4477510000000  0.4700520000000  0.5995150000000 1.0
C      1  0.5364170000000  0.4126210000000  0.3434590000000 1.0
C      1  0.5659180000000  0.4930570000000  0.4224070000000 1.0
C      1  0.6005320000000  0.4703500000000  0.4657410000000 1.0
C      1  0.4615270000000  0.3848470000000  0.4252150000000 1.0
C      1  0.5142360000000  0.3647360000000  0.5291600000000 1.0
C      1  0.5120360000000  0.5100670000000  0.4408140000000 1.0
C      1  0.4294320000000  0.5219020000000  0.5801160000000 1.0
C      1  0.6027130000000  0.4617540000000  0.4927520000000 1.0
C      1  0.4954240000000  0.4288400000000  0.5465380000000 1.0
C      1  0.4473060000000  0.4442010000000  0.5567450000000 1.0
C      1  0.4218730000000  0.4062880000000  0.5384890000000 1.0
C      1  0.4352930000000  0.4878290000000  0.5482420000000 1.0
C      1  0.4233690000000  0.5984960000000  0.4336340000000 1.0
C      1  0.5031910000000  0.4040510000000  0.5583770000000 1.0
C      1  0.5353230000000  0.5578610000000  0.4957050000000 1.0
C      1  0.4381250000000  0.6245850000000  0.5231240000000 1.0
C      1  0.5174620000000  0.5166280000000  0.5455650000000 1.0
C      1  0.5222700000000  0.3584240000000  0.4793850000000 1.0
C      1  0.4234610000000  0.4478820000000  0.5111870000000 1.0
C      1  0.3933260000000  0.5405430000000  0.5504100000000 1.0
C      1  0.5375540000000  0.5138210000000  0.5656370000000 1.0
C      1  0.5096480000000  0.4307000000000  0.4866720000000 1.0
C      1  0.4754390000000  0.4655860000000  0.4062620000000 1.0
C      1  0.5321710000000  0.4796780000000  0.3871640000000 1.0
C      1  0.5956810000000  0.5371330000000  0.5431740000000 1.0
C      1  0.5911910000000  0.4866760000000  0.5607480000000 1.0
C      1  0.4796490000000  0.4846390000000  0.4899480000000 1.0
C      1  0.4418360000000  0.4181930000000  0.5969800000000 1.0
C      1  0.5698320000000  0.5018950000000  0.5235820000000 1.0
C      1  0.4961890000000  0.5582580000000  0.5601200000000 1.0
C      1  0.4342250000000  0.5785280000000  0.5398210000000 1.0
C      1  0.4678150000000  0.4596570000000  0.5538180000000 1.0
C      1  0.6332600000000  0.5435470000000  0.4880100000000 1.0
C      1  0.5131670000000  0.5436240000000  0.6133860000000 1.0
C      1  0.5786600000000  0.5594360000000  0.5041620000000 1.0
C      1  0.5855020000000  0.4903570000000  0.6344760000000 1.0
C      1  0.5348330000000  0.4350500000000  0.3566500000000 1.0
C      1  0.4711840000000  0.5753010000000  0.4140040000000 1.0
C      1  0.3814610000000  0.4317840000000  0.5299900000000 1.0
C      1  0.4534540000000  0.5717620000000  0.5827550000000 1.0
C      1  0.5304770000000  0.6038000000000  0.4344310000000 1.0
C      1  0.6094250000000  0.5463290000000  0.4731390000000 1.0
C      1  0.4905250000000  0.4660900000000  0.4307380000000 1.0
C      1  0.5506710000000  0.5673840000000  0.5404190000000 1.0
C      1  0.5214250000000  0.6164870000000  0.5101520000000 1.0
C      1  0.4835400000000  0.5687500000000  0.4616910000000 1.0
C      1  0.4869450000000  0.6141690000000  0.4738830000000 1.0
C      1  0.5351820000000  0.5879350000000  0.5544340000000 1.0
C      1  0.4711910000000  0.5514560000000  0.5723270000000 1.0
C      1  0.5510550000000  0.5213400000000  0.3842800000000 1.0
C      1  0.4078750000000  0.5401450000000  0.5009090000000 1.0
C      1  0.4231570000000  0.4125400000000  0.4749520000000 1.0
C      1  0.4286600000000  0.5715640000000  0.5678910000000 1.0
C      1  0.4618980000000  0.5271800000000  0.5023180000000 1.0
C      1  0.5579540000000  0.5747110000000  0.4915880000000 1.0
C      1  0.4654960000000  0.4879910000000  0.6124650000000 1.0
C      1  0.4714990000000  0.4980960000000  0.4653840000000 1.0
C      1  0.3486230000000  0.5408170000000  0.4503650000000 1.0
C      1  0.5068990000000  0.4894470000000  0.5040360000000 1.0
C      1  0.5670760000000  0.5194870000000  0.4081760000000 1.0
C      1  0.5472880000000  0.4465730000000  0.4586920000000 1.0
C      1  0.5600420000000  0.5916520000000  0.4695530000000 1.0
C      1  0.4889290000000  0.5423450000000  0.4673890000000 1.0
C      1  0.4879260000000  0.5174310000000  0.4525400000000 1.0
C      1  0.5732980000000  0.5449420000000  0.4184560000000 1.0
C      1  0.4633620000000  0.4240560000000  0.5024470000000 1.0
C      1  0.5992620000000  0.4505770000000  0.5203010000000 1.0
C      1  0.5880960000000  0.5093820000000  0.5434320000000 1.0
C      1  0.5358950000000  0.6067060000000  0.4623750000000 1.0
C      1  0.5360960000000  0.5316460000000  0.4807380000000 1.0
C      1  0.5453590000000  0.4874210000000  0.5734060000000 1.0
C      1  0.5327160000000  0.4573970000000  0.3707220000000 1.0
C      1  0.4056540000000  0.5593760000000  0.4790610000000 1.0
C      1  0.5459430000000  0.5361100000000  0.5809400000000 1.0
C      1  0.4172360000000  0.4800890000000  0.4283220000000 1.0
C      1  0.4499590000000  0.4501350000000  0.4607960000000 1.0
C      1  0.5017940000000  0.5189280000000  0.3765500000000 1.0
C      1  0.6376650000000  0.5431780000000  0.5146370000000 1.0
C      1  0.4785520000000  0.4496790000000  0.4521910000000 1.0
C      1  0.5588060000000  0.3977450000000  0.5535890000000 1.0
C      1  0.4493240000000  0.5868460000000  0.4930110000000 1.0
C      1  0.4776930000000  0.5864100000000  0.3913340000000 1.0
C      1  0.3903160000000  0.5383810000000  0.5234120000000 1.0
C      1  0.5814950000000  0.4859310000000  0.4481200000000 1.0
C      1  0.5897710000000  0.4037680000000  0.5018260000000 1.0
C      1  0.4396190000000  0.4349520000000  0.4869540000000 1.0
C      1  0.4880640000000  0.5331420000000  0.4941510000000 1.0
C      1  0.4593550000000  0.5892680000000  0.6039230000000 1.0
C      1  0.4432840000000  0.6156300000000  0.4424070000000 1.0
C      1  0.5521250000000  0.4834920000000  0.5170010000000 1.0
C      1  0.4445070000000  0.5048820000000  0.4612890000000 1.0
C      1  0.5622500000000  0.4934240000000  0.4684450000000 1.0
C      1  0.4762620000000  0.5255700000000  0.3830980000000 1.0
C      1  0.4761670000000  0.5885160000000  0.4814110000000 1.0
C      1  0.5290190000000  0.5555370000000  0.5931470000000 1.0
C      1  0.4366610000000  0.5292300000000  0.4534720000000 1.0
C      1  0.5307470000000  0.5291820000000  0.4507630000000 1.0
C      1  0.5094450000000  0.5430200000000  0.5391990000000 1.0
C      1  0.4796820000000  0.4257840000000  0.5234070000000 1.0
C      1  0.4097580000000  0.5725410000000  0.4296870000000 1.0
C      1  0.5798780000000  0.4882060000000  0.6091230000000 1.0
C      1  0.4699660000000  0.6144860000000  0.5981180000000 1.0
C      1  0.5040130000000  0.4087790000000  0.4444170000000 1.0
C      1  0.4548300000000  0.5817040000000  0.6298130000000 1.0
C      1  0.4370890000000  0.3837890000000  0.4358540000000 1.0
C      1  0.5445820000000  0.4714470000000  0.4728920000000 1.0
C      1  0.4957710000000  0.4293180000000  0.4621870000000 1.0
C      1  0.4426500000000  0.5566360000000  0.4531940000000 1.0
C      1  0.5789970000000  0.5813970000000  0.4497230000000 1.0
C      1  0.4867810000000  0.4284260000000  0.5991380000000 1.0
C      1  0.4579330000000  0.4783910000000  0.5066420000000 1.0
C      1  0.4403880000000  0.5976230000000  0.5190350000000 1.0
C      1  0.5638330000000  0.5191730000000  0.4807640000000 1.0
C      1  0.4095650000000  0.5059530000000  0.4189730000000 1.0
C      1  0.5943120000000  0.4604440000000  0.5491190000000 1.0
C      1  0.6230180000000  0.5422330000000  0.5372580000000 1.0
C      1  0.4585240000000  0.4417140000000  0.6019460000000 1.0
C      1  0.5290210000000  0.5560830000000  0.5233700000000 1.0
C      1  0.3751530000000  0.5392750000000  0.4441600000000 1.0
C      1  0.4358300000000  0.5355580000000  0.5090470000000 1.0
C      1  0.5723640000000  0.4864240000000  0.5824430000000 1.0
C      1  0.4278070000000  0.5250970000000  0.4055740000000 1.0
C      1  0.5408140000000  0.4345630000000  0.6018010000000 1.0
C      1  0.4084550000000  0.4285640000000  0.5266860000000 1.0
C      1  0.5352040000000  0.4350810000000  0.5303650000000 1.0
C      1  0.5935020000000  0.4215640000000  0.5230750000000 1.0
C      1  0.4576410000000  0.5263220000000  0.5692640000000 1.0
C      1  0.5148790000000  0.4833010000000  0.4313110000000 1.0
C      1  0.5810800000000  0.4151810000000  0.5488410000000 1.0
C      1  0.5268900000000  0.4430510000000  0.5051040000000 1.0
C      1  0.4909820000000  0.4958450000000  0.6031900000000 1.0
C      1  0.4273000000000  0.4899750000000  0.5775980000000 1.0
C      1  0.5858320000000  0.5369560000000  0.4869250000000 1.0
C      1  0.5668690000000  0.3905200000000  0.4972770000000 1.0
C      1  0.4347320000000  0.4728110000000  0.5224500000000 1.0
C      1  0.5511750000000  0.4204350000000  0.4476700000000 1.0
C      1  0.5025840000000  0.5188440000000  0.6145300000000 1.0
C      1  0.5236600000000  0.4685230000000  0.5700130000000 1.0
C      1  0.3935970000000  0.5597760000000  0.4520040000000 1.0
C      1  0.4224980000000  0.3942080000000  0.4556150000000 1.0
C      1  0.4828040000000  0.4849380000000  0.5534660000000 1.0
C      1  0.5766150000000  0.5568790000000  0.5328280000000 1.0
C      1  0.5819290000000  0.4385290000000  0.5657060000000 1.0
C      1  0.4302360000000  0.4619820000000  0.4435730000000 1.0
C      1  0.4771600000000  0.4442150000000  0.3892760000000 1.0
C      1  0.5324140000000  0.3743020000000  0.4601630000000 1.0
C      1  0.4605890000000  0.5043850000000  0.5508940000000 1.0
C      1  0.4859390000000  0.3950490000000  0.4282450000000 1.0
C      1  0.5391240000000  0.4794430000000  0.4154020000000 1.0
C      1  0.5643580000000  0.4375520000000  0.5884240000000 1.0
C      1  0.5174490000000  0.5739940000000  0.5736980000000 1.0
C      1  0.5141990000000  0.3555090000000  0.5048830000000 1.0
C      1  0.6036540000000  0.5689700000000  0.4568470000000 1.0
C      1  0.5031560000000  0.4946160000000  0.5340770000000 1.0
C      1  0.4545770000000  0.3993530000000  0.5785940000000 1.0
C      1  0.5126770000000  0.5175840000000  0.4951610000000 1.0
C      1  0.5309730000000  0.4718160000000  0.4995480000000 1.0
C      1  0.5437480000000  0.3910720000000  0.5109060000000 1.0
C      1  0.5140050000000  0.4340110000000  0.6066670000000 1.0
C      1  0.4806540000000  0.6369310000000  0.5902970000000 1.0
C      1  0.4842490000000  0.4034050000000  0.5808890000000 1.0
C      1  0.4666170000000  0.6241540000000  0.4549000000000 1.0
C      1  0.5274100000000  0.5067630000000  0.3783720000000 1.0
C      1  0.5307410000000  0.4001030000000  0.4487340000000 1.0
C      1  0.5332000000000  0.3994410000000  0.5383770000000 1.0
C      1  0.3859290000000  0.5175180000000  0.4296730000000 1.0
C      1  0.4198630000000  0.5530160000000  0.4097590000000 1.0
END
