TITL C-247199-3331-217 3.67933775876357e-09 125000 -599.149211450191 0 0 99 (C1) n - 1
REM
REM in /home/nfs/bkarasulu/CARBON/AIRSS/Generating-Clusters/LCBOP/Only-C1/SD-CG/FIRE-HFTN
REM
REM
REM
REM
REM
REM ./C.cell (11c1c37f851c82e70ff6c80c92926a4b)
REM AIRSS Version 0.9.1 bugfix July 2018 build 013d7b7c2542+ Fri, 06 Jul 2018 19:26:36 +0100
REM compiler GCC version 9.2.1 20190827 (Red Hat 9.2.1-1)
REM options -cpp -mtune=generic -march=x86-64 -g -O0 -fpre-include=/usr/include/finclude/math-vector-fortran.h
REM seed 710578023 266457929 -1471499718 508263976 -746607327 -832244745 -1326252155 1044546827 -613346947 100332484 1669731708 1139307249 -468845377 739637202 -1288874067 -682185454 -1170449392 1789005000 -630159806 -1895863774 1932295258 -510880731 -240156409 -1115997358 1971371243 27318548 -1259684913 906039264 -1041025705 1004284677 1196361486 1858015821 -1601469141
REM
CELL 1.54180   50.00000   50.00000   50.00000   90.00000   90.00000   90.00000
LATT -1
SFAC C  
C      1  0.5023440000000  0.5453990000000  0.4784540000000 1.0
C      1  0.4457360000000  0.5307210000000  0.5673750000000 1.0
C      1  0.4611460000000  0.5902850000000  0.5953850000000 1.0
C      1  0.3917840000000  0.5194070000000  0.4837290000000 1.0
C      1  0.3952340000000  0.4715040000000  0.5026760000000 1.0
C      1  0.5468670000000  0.5243620000000  0.5171430000000 1.0
C      1  0.4171110000000  0.4508620000000  0.4680930000000 1.0
C      1  0.4671670000000  0.5063800000000  0.5095590000000 1.0
C      1  0.4859550000000  0.4483380000000  0.5631100000000 1.0
C      1  0.4968980000000  0.5923380000000  0.4365740000000 1.0
C      1  0.4660580000000  0.5664930000000  0.5103250000000 1.0
C      1  0.4820580000000  0.4058740000000  0.5010120000000 1.0
C      1  0.5277240000000  0.4249010000000  0.5541770000000 1.0
C      1  0.5143640000000  0.5135660000000  0.6193010000000 1.0
C      1  0.5433160000000  0.4281160000000  0.5300060000000 1.0
C      1  0.4993350000000  0.4878560000000  0.5394470000000 1.0
C      1  0.5257970000000  0.5025880000000  0.4688140000000 1.0
C      1  0.4818940000000  0.4557120000000  0.4964410000000 1.0
C      1  0.4509780000000  0.4851480000000  0.5203560000000 1.0
C      1  0.5419540000000  0.4793890000000  0.4714950000000 1.0
C      1  0.4267670000000  0.4015080000000  0.5484160000000 1.0
C      1  0.5382150000000  0.4208070000000  0.4828550000000 1.0
C      1  0.4851590000000  0.5916090000000  0.6068730000000 1.0
C      1  0.5427270000000  0.5565030000000  0.5536210000000 1.0
C      1  0.4319370000000  0.4916710000000  0.5398150000000 1.0
C      1  0.5283730000000  0.5617540000000  0.6039140000000 1.0
C      1  0.5655590000000  0.5521030000000  0.4351710000000 1.0
C      1  0.4434940000000  0.5580420000000  0.5584750000000 1.0
C      1  0.4877190000000  0.4770730000000  0.5633210000000 1.0
C      1  0.3975710000000  0.4923550000000  0.4826330000000 1.0
C      1  0.5096100000000  0.5241470000000  0.4612310000000 1.0
C      1  0.4539570000000  0.4181750000000  0.4610120000000 1.0
C      1  0.5567690000000  0.4672160000000  0.4025910000000 1.0
C      1  0.5220770000000  0.5839590000000  0.4387170000000 1.0
C      1  0.5423810000000  0.5630640000000  0.5795400000000 1.0
C      1  0.5653480000000  0.4824410000000  0.4912270000000 1.0
C      1  0.5097600000000  0.5818670000000  0.6100510000000 1.0
C      1  0.4372530000000  0.4882490000000  0.4472300000000 1.0
C      1  0.5674320000000  0.4835800000000  0.3845860000000 1.0
C      1  0.5668000000000  0.4447580000000  0.5282670000000 1.0
C      1  0.5781810000000  0.5329540000000  0.3877680000000 1.0
C      1  0.5449020000000  0.5703340000000  0.4403770000000 1.0
C      1  0.5901360000000  0.4920950000000  0.4750550000000 1.0
C      1  0.6303040000000  0.4698250000000  0.4552520000000 1.0
C      1  0.5408600000000  0.4353250000000  0.5771140000000 1.0
C      1  0.4791370000000  0.4117590000000  0.4724350000000 1.0
C      1  0.4986520000000  0.4254870000000  0.5505150000000 1.0
C      1  0.4087120000000  0.5661860000000  0.4680730000000 1.0
C      1  0.5743870000000  0.5488520000000  0.4087460000000 1.0
C      1  0.5756220000000  0.5081440000000  0.3784600000000 1.0
C      1  0.4693140000000  0.5974100000000  0.4342560000000 1.0
C      1  0.4499060000000  0.5643080000000  0.5316000000000 1.0
C      1  0.5079320000000  0.4509260000000  0.5077980000000 1.0
C      1  0.4475410000000  0.4628780000000  0.4367040000000 1.0
C      1  0.6000650000000  0.4486060000000  0.4883700000000 1.0
C      1  0.5013550000000  0.4197320000000  0.4558480000000 1.0
C      1  0.4535570000000  0.5097830000000  0.4557990000000 1.0
C      1  0.4825340000000  0.4656140000000  0.4707790000000 1.0
C      1  0.4120920000000  0.4485020000000  0.4965680000000 1.0
C      1  0.4507570000000  0.5761810000000  0.4380390000000 1.0
C      1  0.5614120000000  0.5003900000000  0.5159160000000 1.0
C      1  0.6087310000000  0.4701490000000  0.4717110000000 1.0
C      1  0.4321050000000  0.4199540000000  0.5307910000000 1.0
C      1  0.6176660000000  0.5313220000000  0.4787940000000 1.0
C      1  0.4904710000000  0.5114290000000  0.5258150000000 1.0
C      1  0.4872010000000  0.4108540000000  0.5277320000000 1.0
C      1  0.4819130000000  0.4968610000000  0.5834880000000 1.0
C      1  0.4960170000000  0.5224160000000  0.4361450000000 1.0
C      1  0.4596900000000  0.5136220000000  0.4833590000000 1.0
C      1  0.4384750000000  0.4398050000000  0.4522570000000 1.0
C      1  0.5702230000000  0.4633630000000  0.5500800000000 1.0
C      1  0.4135480000000  0.4801630000000  0.4619110000000 1.0
C      1  0.5275660000000  0.4299120000000  0.5068140000000 1.0
C      1  0.5378570000000  0.4572910000000  0.4525530000000 1.0
C      1  0.5605430000000  0.4540550000000  0.5749850000000 1.0
C      1  0.4856300000000  0.5605580000000  0.4929800000000 1.0
C      1  0.4571340000000  0.5504480000000  0.4288560000000 1.0
C      1  0.5765160000000  0.5352380000000  0.4548070000000 1.0
C      1  0.5464450000000  0.4605040000000  0.4260640000000 1.0
C      1  0.4966180000000  0.4972990000000  0.6075330000000 1.0
C      1  0.4276530000000  0.5783410000000  0.4538060000000 1.0
C      1  0.5712050000000  0.4898990000000  0.5407610000000 1.0
C      1  0.4284230000000  0.5106350000000  0.5583920000000 1.0
C      1  0.5031900000000  0.5341290000000  0.5375920000000 1.0
C      1  0.5308330000000  0.5402970000000  0.5338370000000 1.0
C      1  0.4721960000000  0.5228380000000  0.5748280000000 1.0
C      1  0.5266980000000  0.5372180000000  0.6176010000000 1.0
C      1  0.5160230000000  0.4717990000000  0.5245670000000 1.0
C      1  0.4920640000000  0.5395640000000  0.5630730000000 1.0
C      1  0.4568910000000  0.4586540000000  0.5112000000000 1.0
C      1  0.3962240000000  0.5451260000000  0.4785230000000 1.0
C      1  0.5761500000000  0.4542760000000  0.5029160000000 1.0
C      1  0.4449400000000  0.5782550000000  0.5779350000000 1.0
C      1  0.5947620000000  0.5195310000000  0.4693360000000 1.0
C      1  0.5089730000000  0.5175660000000  0.4126370000000 1.0
C      1  0.4678590000000  0.5261790000000  0.4374770000000 1.0
C      1  0.4604410000000  0.6225590000000  0.4280990000000 1.0
C      1  0.5268470000000  0.4315930000000  0.4596330000000 1.0
C      1  0.4342930000000  0.4408880000000  0.5126200000000 1.0
END
