TITL C-247197-3123-49 1.68174468568962e-05 125000 -201.45820586287 0 0 34 (C1) n - 1
REM
REM in /home/nfs/bkarasulu/CARBON/AIRSS/Generating-Clusters/LCBOP/Only-C1/SD-CG/FIRE-HFTN
REM
REM
REM
REM
REM
REM ./C.cell (11c1c37f851c82e70ff6c80c92926a4b)
REM AIRSS Version 0.9.1 bugfix July 2018 build 013d7b7c2542+ Fri, 06 Jul 2018 19:26:36 +0100
REM compiler GCC version 9.2.1 20190827 (Red Hat 9.2.1-1)
REM options -cpp -mtune=generic -march=x86-64 -g -O0 -fpre-include=/usr/include/finclude/math-vector-fortran.h
REM seed -854576379 -852837630 -826966495 -581301652 -1634315400 392831473 1807338850 534334481 366414735 -16779311 1372858373 -1788753535 -73623064 1472743884 -119983438 -1012177215 -1225857086 -1143558974 1580637303 1878899682 389347890 648115930 -759172114 369387261 545566611 -983304109 -1090591694 1250315101 1095924907 -1826021787 2144921186 -1402793553 -611126012
REM
CELL 1.54180   50.00000   50.00000   50.00000   90.00000   90.00000   90.00000
LATT -1
SFAC C  
C      1  0.4515960000000  0.5063550000000  0.4818560000000 1.0
C      1  0.5420700000000  0.4417490000000  0.5393570000000 1.0
C      1  0.5480030000000  0.4660200000000  0.5524380000000 1.0
C      1  0.4682640000000  0.5498250000000  0.4686350000000 1.0
C      1  0.5202310000000  0.4270600000000  0.5342220000000 1.0
C      1  0.4817030000000  0.5259000000000  0.4262300000000 1.0
C      1  0.4663120000000  0.5568900000000  0.5850260000000 1.0
C      1  0.5330340000000  0.4714140000000  0.5757480000000 1.0
C      1  0.5327910000000  0.5216340000000  0.4139790000000 1.0
C      1  0.4539220000000  0.4987110000000  0.4548580000000 1.0
C      1  0.5718910000000  0.5170900000000  0.4477590000000 1.0
C      1  0.5144810000000  0.5379930000000  0.5346340000000 1.0
C      1  0.5778300000000  0.5149020000000  0.4735520000000 1.0
C      1  0.5734880000000  0.5126020000000  0.4996400000000 1.0
C      1  0.5610030000000  0.4867250000000  0.5389860000000 1.0
C      1  0.4418550000000  0.4703940000000  0.5201680000000 1.0
C      1  0.5077750000000  0.4682440000000  0.5841560000000 1.0
C      1  0.4762930000000  0.5477800000000  0.4431450000000 1.0
C      1  0.4700840000000  0.5374360000000  0.5155750000000 1.0
C      1  0.5385410000000  0.5281290000000  0.5294200000000 1.0
C      1  0.4531040000000  0.4544640000000  0.5382050000000 1.0
C      1  0.5063240000000  0.5239340000000  0.4132650000000 1.0
C      1  0.4869160000000  0.5418890000000  0.5374490000000 1.0
C      1  0.4576450000000  0.4872160000000  0.4074610000000 1.0
C      1  0.5561090000000  0.5193200000000  0.4265080000000 1.0
C      1  0.4642770000000  0.5034130000000  0.4291020000000 1.0
C      1  0.5586830000000  0.5096940000000  0.5231410000000 1.0
C      1  0.4847630000000  0.4578060000000  0.5751980000000 1.0
C      1  0.4754640000000  0.4449410000000  0.5518840000000 1.0
C      1  0.4620660000000  0.5319150000000  0.4894610000000 1.0
C      1  0.4938830000000  0.4277980000000  0.5391160000000 1.0
C      1  0.4762830000000  0.5499340000000  0.5619740000000 1.0
C      1  0.4518440000000  0.4721970000000  0.3869680000000 1.0
C      1  0.4414720000000  0.4886290000000  0.5008840000000 1.0
END
