TITL C-247201-3759-352 0.309628690877958 125000 -370.073279429571 0 0 61 (C1) n - 1
REM
REM in /home/nfs/bkarasulu/CARBON/AIRSS/Generating-Clusters/LCBOP/Only-C1/SD-CG/FIRE-HFTN
REM
REM
REM
REM
REM
REM ./C.cell (11c1c37f851c82e70ff6c80c92926a4b)
REM AIRSS Version 0.9.1 bugfix July 2018 build 013d7b7c2542+ Fri, 06 Jul 2018 19:26:36 +0100
REM compiler GCC version 9.2.1 20190827 (Red Hat 9.2.1-1)
REM options -cpp -mtune=generic -march=x86-64 -g -O0 -fpre-include=/usr/include/finclude/math-vector-fortran.h
REM seed 425098337 -921051366 97267777 -634523367 -1941745642 1440683424 1298760279 -88224131 179666207 1682106104 -1754528835 -1425286351 1976660003 -344071001 -459380944 1468526744 1132556889 -33203194 525406668 1633839834 -148411513 -1494336700 347320494 544303610 -1679140966 1617361237 580862292 -1446658120 60648870 -791670131 27538062 -1165016270 750539064
REM
CELL 1.54180   50.00000   50.00000   50.00000   90.00000   90.00000   90.00000
LATT -1
SFAC C  
C      1  0.5890010000000  0.4986260000000  0.4562050000000 1.0
C      1  0.5097640000000  0.4407130000000  0.5270620000000 1.0
C      1  0.4748060000000  0.4857550000000  0.5318380000000 1.0
C      1  0.4403920000000  0.5762700000000  0.6300440000000 1.0
C      1  0.4715460000000  0.4664050000000  0.4238600000000 1.0
C      1  0.5187370000000  0.4778740000000  0.4312890000000 1.0
C      1  0.4927840000000  0.5122620000000  0.4125950000000 1.0
C      1  0.5447870000000  0.4893710000000  0.5680120000000 1.0
C      1  0.5293250000000  0.5753770000000  0.4792840000000 1.0
C      1  0.4349110000000  0.4552400000000  0.4549840000000 1.0
C      1  0.5723370000000  0.5334670000000  0.5167620000000 1.0
C      1  0.5568050000000  0.5701490000000  0.4827010000000 1.0
C      1  0.4902100000000  0.5427470000000  0.5242210000000 1.0
C      1  0.4689260000000  0.4765140000000  0.5579690000000 1.0
C      1  0.4625630000000  0.4979780000000  0.5749710000000 1.0
C      1  0.5266870000000  0.4453250000000  0.4653260000000 1.0
C      1  0.4810420000000  0.4505230000000  0.5624600000000 1.0
C      1  0.5067180000000  0.4541130000000  0.5763810000000 1.0
C      1  0.4807790000000  0.4190970000000  0.4698770000000 1.0
C      1  0.5193860000000  0.4669660000000  0.5337430000000 1.0
C      1  0.5010310000000  0.4381600000000  0.4758010000000 1.0
C      1  0.5385030000000  0.5276130000000  0.4092600000000 1.0
C      1  0.4900350000000  0.5271970000000  0.5000070000000 1.0
C      1  0.4560130000000  0.5433630000000  0.5915550000000 1.0
C      1  0.5554210000000  0.5333010000000  0.5398560000000 1.0
C      1  0.4753240000000  0.4380500000000  0.4236520000000 1.0
C      1  0.5026890000000  0.4882740000000  0.5242660000000 1.0
C      1  0.5624000000000  0.5178090000000  0.4157910000000 1.0
C      1  0.5082020000000  0.5545280000000  0.4346020000000 1.0
C      1  0.5551570000000  0.5121540000000  0.5584230000000 1.0
C      1  0.5086780000000  0.4859750000000  0.4780900000000 1.0
C      1  0.4587970000000  0.4225700000000  0.4892920000000 1.0
C      1  0.4891570000000  0.4644690000000  0.4823780000000 1.0
C      1  0.4482050000000  0.5598100000000  0.6107940000000 1.0
C      1  0.5120990000000  0.5608990000000  0.5256650000000 1.0
C      1  0.5268500000000  0.4688950000000  0.5617350000000 1.0
C      1  0.4656070000000  0.4216930000000  0.5177860000000 1.0
C      1  0.4758000000000  0.4177560000000  0.4418160000000 1.0
C      1  0.4454670000000  0.5021210000000  0.4452150000000 1.0
C      1  0.4745550000000  0.5368980000000  0.5469740000000 1.0
C      1  0.5152360000000  0.5782880000000  0.5036310000000 1.0
C      1  0.5345890000000  0.5524570000000  0.5404190000000 1.0
C      1  0.5718760000000  0.5559750000000  0.4996860000000 1.0
C      1  0.4478970000000  0.4749130000000  0.4382810000000 1.0
C      1  0.4643390000000  0.5261660000000  0.5712180000000 1.0
C      1  0.4327090000000  0.5924600000000  0.6489780000000 1.0
C      1  0.5842930000000  0.5104600000000  0.5060630000000 1.0
C      1  0.4622810000000  0.4678100000000  0.4906950000000 1.0
C      1  0.4551360000000  0.5219680000000  0.4603120000000 1.0
C      1  0.4936050000000  0.4848270000000  0.4198720000000 1.0
C      1  0.5902490000000  0.4987980000000  0.4828080000000 1.0
C      1  0.4715240000000  0.5311640000000  0.4792900000000 1.0
C      1  0.4833140000000  0.4333690000000  0.5373920000000 1.0
C      1  0.4549930000000  0.4844530000000  0.5119140000000 1.0
C      1  0.4309340000000  0.4970620000000  0.5137960000000 1.0
C      1  0.5263780000000  0.4735480000000  0.4579930000000 1.0
C      1  0.4450050000000  0.4472860000000  0.4802950000000 1.0
C      1  0.5062860000000  0.5034550000000  0.5002110000000 1.0
C      1  0.5797830000000  0.5066130000000  0.4325510000000 1.0
C      1  0.5162160000000  0.5696730000000  0.4551270000000 1.0
C      1  0.5118630000000  0.5329440000000  0.4169220000000 1.0
END
