TITL C-247197-3123-348 0.169200691501079 125000 -754.406753712132 0 0 122 (C1) n - 1
REM
REM in /home/nfs/bkarasulu/CARBON/AIRSS/Generating-Clusters/LCBOP/Only-C1/SD-CG/FIRE-HFTN
REM
REM
REM
REM
REM
REM ./C.cell (11c1c37f851c82e70ff6c80c92926a4b)
REM AIRSS Version 0.9.1 bugfix July 2018 build 013d7b7c2542+ Fri, 06 Jul 2018 19:26:36 +0100
REM compiler GCC version 9.2.1 20190827 (Red Hat 9.2.1-1)
REM options -cpp -mtune=generic -march=x86-64 -g -O0 -fpre-include=/usr/include/finclude/math-vector-fortran.h
REM seed 186913619 2005745424 1080520171 833972307 29627931 -157740070 -744013915 1648878557 -84191552 1940524315 -654585134 -634075477 1920382310 -1238567006 -1491971311 1870268556 1202252793 -978219757 1174424053 2060578556 1005709859 267817989 183778623 2093562548 239530708 -961866916 646691109 -482137306 -706331569 560119267 -1959234912 -485320006 362982832
REM
CELL 1.54180   50.00000   50.00000   50.00000   90.00000   90.00000   90.00000
LATT -1
SFAC C  
C      1  0.3732610000000  0.4795470000000  0.4978240000000 1.0
C      1  0.4962620000000  0.5258990000000  0.5233960000000 1.0
C      1  0.5307470000000  0.5934960000000  0.5566640000000 1.0
C      1  0.5892810000000  0.5311260000000  0.4941840000000 1.0
C      1  0.5833920000000  0.5391140000000  0.4654700000000 1.0
C      1  0.6169410000000  0.5209500000000  0.4952450000000 1.0
C      1  0.4728490000000  0.4992320000000  0.5580800000000 1.0
C      1  0.5124460000000  0.4700460000000  0.4144500000000 1.0
C      1  0.4912030000000  0.5212450000000  0.4944800000000 1.0
C      1  0.5239950000000  0.4751950000000  0.4396990000000 1.0
C      1  0.6702560000000  0.6069310000000  0.4805140000000 1.0
C      1  0.4696350000000  0.4213030000000  0.4934310000000 1.0
C      1  0.4738520000000  0.4723950000000  0.4995400000000 1.0
C      1  0.5171210000000  0.4381710000000  0.5444420000000 1.0
C      1  0.4098350000000  0.5443350000000  0.5025380000000 1.0
C      1  0.4438460000000  0.4757550000000  0.5057560000000 1.0
C      1  0.5735970000000  0.5269840000000  0.5176790000000 1.0
C      1  0.5938880000000  0.5906890000000  0.5363240000000 1.0
C      1  0.4722260000000  0.5418160000000  0.5348250000000 1.0
C      1  0.5465550000000  0.5185900000000  0.5151960000000 1.0
C      1  0.3783040000000  0.4314660000000  0.4824680000000 1.0
C      1  0.4059920000000  0.4093740000000  0.5158600000000 1.0
C      1  0.3736100000000  0.4511880000000  0.5689640000000 1.0
C      1  0.5252130000000  0.5452120000000  0.4102940000000 1.0
C      1  0.5880530000000  0.4397920000000  0.4971140000000 1.0
C      1  0.4719710000000  0.4372960000000  0.5701940000000 1.0
C      1  0.4543710000000  0.4546470000000  0.5547430000000 1.0
C      1  0.4699830000000  0.4930140000000  0.4006300000000 1.0
C      1  0.5463610000000  0.5012370000000  0.4720800000000 1.0
C      1  0.4252280000000  0.4137380000000  0.5356230000000 1.0
C      1  0.6281540000000  0.5258890000000  0.4694240000000 1.0
C      1  0.4182090000000  0.5292990000000  0.5253190000000 1.0
C      1  0.6244970000000  0.4999790000000  0.5119010000000 1.0
C      1  0.3971980000000  0.4904010000000  0.5073470000000 1.0
C      1  0.6468110000000  0.5940020000000  0.4826100000000 1.0
C      1  0.3958210000000  0.4926570000000  0.5557270000000 1.0
C      1  0.4377850000000  0.4405860000000  0.4360970000000 1.0
C      1  0.6062970000000  0.4521770000000  0.5120480000000 1.0
C      1  0.4810900000000  0.4052060000000  0.5113430000000 1.0
C      1  0.4783780000000  0.5793040000000  0.4635920000000 1.0
C      1  0.5435680000000  0.4514350000000  0.4807270000000 1.0
C      1  0.3621410000000  0.4223970000000  0.5282020000000 1.0
C      1  0.5695680000000  0.4411180000000  0.4760790000000 1.0
C      1  0.3937740000000  0.4240460000000  0.4601540000000 1.0
C      1  0.4151110000000  0.4259600000000  0.4440830000000 1.0
C      1  0.3939230000000  0.4698950000000  0.5735470000000 1.0
C      1  0.5196530000000  0.5033410000000  0.5598360000000 1.0
C      1  0.4828590000000  0.4026200000000  0.5391980000000 1.0
C      1  0.4835000000000  0.5146200000000  0.4399730000000 1.0
C      1  0.5288370000000  0.5667170000000  0.5166170000000 1.0
C      1  0.5175230000000  0.4583000000000  0.5235440000000 1.0
C      1  0.4485000000000  0.4808680000000  0.4555230000000 1.0
C      1  0.5083680000000  0.5225130000000  0.4515820000000 1.0
C      1  0.4994790000000  0.4431060000000  0.4649400000000 1.0
C      1  0.4361010000000  0.4854520000000  0.5865810000000 1.0
C      1  0.6347110000000  0.6174640000000  0.5397680000000 1.0
C      1  0.4555270000000  0.4311330000000  0.5934530000000 1.0
C      1  0.6783720000000  0.6336300000000  0.5210370000000 1.0
C      1  0.5810370000000  0.5323250000000  0.5445520000000 1.0
C      1  0.4353560000000  0.4398020000000  0.5400740000000 1.0
C      1  0.4963960000000  0.5002120000000  0.5402960000000 1.0
C      1  0.5017840000000  0.5342700000000  0.4015840000000 1.0
C      1  0.6579790000000  0.6306510000000  0.5382530000000 1.0
C      1  0.4693440000000  0.4986220000000  0.4579150000000 1.0
C      1  0.3612320000000  0.4348410000000  0.5518790000000 1.0
C      1  0.4519460000000  0.5816790000000  0.4611440000000 1.0
C      1  0.6199630000000  0.4743450000000  0.5176620000000 1.0
C      1  0.4345970000000  0.3915750000000  0.5511750000000 1.0
C      1  0.4449220000000  0.5338250000000  0.5338860000000 1.0
C      1  0.5874750000000  0.4503290000000  0.4272510000000 1.0
C      1  0.5444670000000  0.5849110000000  0.5329550000000 1.0
C      1  0.5030720000000  0.5386330000000  0.4748170000000 1.0
C      1  0.4381700000000  0.4563610000000  0.4119200000000 1.0
C      1  0.6077720000000  0.5319600000000  0.4502770000000 1.0
C      1  0.5222360000000  0.5711410000000  0.5724180000000 1.0
C      1  0.5702920000000  0.5775690000000  0.5423450000000 1.0
C      1  0.5615360000000  0.5481870000000  0.4497120000000 1.0
C      1  0.4175470000000  0.3759710000000  0.5656930000000 1.0
C      1  0.4624620000000  0.3871080000000  0.5509980000000 1.0
C      1  0.6179340000000  0.5997290000000  0.5256870000000 1.0
C      1  0.6069610000000  0.5201220000000  0.4250790000000 1.0
C      1  0.4203530000000  0.4850180000000  0.4921660000000 1.0
C      1  0.4532850000000  0.4529070000000  0.4568480000000 1.0
C      1  0.5056460000000  0.5778610000000  0.5039120000000 1.0
C      1  0.4812690000000  0.5171220000000  0.4119710000000 1.0
C      1  0.4125910000000  0.5079580000000  0.4448000000000 1.0
C      1  0.4036820000000  0.5325070000000  0.4550830000000 1.0
C      1  0.4023870000000  0.5054980000000  0.5311850000000 1.0
C      1  0.4926070000000  0.4254240000000  0.5539200000000 1.0
C      1  0.4983860000000  0.5666470000000  0.4785670000000 1.0
C      1  0.4906020000000  0.4732640000000  0.3987850000000 1.0
C      1  0.4276980000000  0.5724300000000  0.4670790000000 1.0
C      1  0.3669630000000  0.4572560000000  0.4842250000000 1.0
C      1  0.5243420000000  0.4541920000000  0.4595420000000 1.0
C      1  0.4534440000000  0.4812210000000  0.5649570000000 1.0
C      1  0.5375960000000  0.4670870000000  0.5044740000000 1.0
C      1  0.5283510000000  0.5015300000000  0.4507350000000 1.0
C      1  0.4797530000000  0.5674500000000  0.5447960000000 1.0
C      1  0.4794030000000  0.4981410000000  0.4843790000000 1.0
C      1  0.5955180000000  0.4715570000000  0.4133570000000 1.0
C      1  0.4943370000000  0.4750540000000  0.5225950000000 1.0
C      1  0.6837780000000  0.6237190000000  0.4966150000000 1.0
C      1  0.4115810000000  0.5509090000000  0.4750930000000 1.0
C      1  0.5255610000000  0.5377200000000  0.5213620000000 1.0
C      1  0.4942090000000  0.5673840000000  0.5694080000000 1.0
C      1  0.4166930000000  0.4650430000000  0.5906580000000 1.0
C      1  0.6023750000000  0.4972600000000  0.4121660000000 1.0
C      1  0.5681490000000  0.5535770000000  0.5582710000000 1.0
C      1  0.4234550000000  0.4901970000000  0.4643550000000 1.0
C      1  0.4299830000000  0.4406510000000  0.5988260000000 1.0
C      1  0.5450590000000  0.5499100000000  0.4282240000000 1.0
C      1  0.5787210000000  0.4389210000000  0.4496440000000 1.0
C      1  0.4227450000000  0.5023860000000  0.4182650000000 1.0
C      1  0.5409300000000  0.4308120000000  0.5560840000000 1.0
C      1  0.4735280000000  0.4468350000000  0.4791230000000 1.0
C      1  0.4425120000000  0.4845720000000  0.4065340000000 1.0
C      1  0.5422910000000  0.5492930000000  0.5723330000000 1.0
C      1  0.5328590000000  0.5224770000000  0.5734450000000 1.0
C      1  0.5433180000000  0.4952250000000  0.4996130000000 1.0
C      1  0.4860130000000  0.5854870000000  0.5233970000000 1.0
C      1  0.6267980000000  0.5914780000000  0.5002300000000 1.0
C      1  0.3807210000000  0.4179550000000  0.5074500000000 1.0
END
