TITL C-247195-3186-389 0.748341056542036 125000 -345.509753550488 0 0 58 (C1) n - 1
REM
REM in /home/nfs/bkarasulu/CARBON/AIRSS/Generating-Clusters/LCBOP/Only-C1/SD-CG/FIRE-HFTN
REM
REM
REM
REM
REM
REM ./C.cell (11c1c37f851c82e70ff6c80c92926a4b)
REM AIRSS Version 0.9.1 bugfix July 2018 build 013d7b7c2542+ Fri, 06 Jul 2018 19:26:36 +0100
REM compiler GCC version 9.2.1 20190827 (Red Hat 9.2.1-1)
REM options -cpp -mtune=generic -march=x86-64 -g -O0 -fpre-include=/usr/include/finclude/math-vector-fortran.h
REM seed -2094641254 -101337369 475560965 1891770850 -371209857 1786788398 2127039727 -1968363145 200986015 -148517856 1544346368 17827559 -261028825 902780326 -1400133078 1558795090 -1214379155 47540166 -1222866541 -1978860158 -742208479 -903837699 1798633815 65249888 1919286199 465964664 1948964468 -332567370 -1449000235 817607847 1438300650 -1286965795 -2129567455
REM
CELL 1.54180   50.00000   50.00000   50.00000   90.00000   90.00000   90.00000
LATT -1
SFAC C  
C      1  0.4187080000000  0.4973850000000  0.5502110000000 1.0
C      1  0.5572970000000  0.4988230000000  0.5781230000000 1.0
C      1  0.5406870000000  0.5067820000000  0.4827790000000 1.0
C      1  0.4951640000000  0.5609190000000  0.4187700000000 1.0
C      1  0.5639710000000  0.5331560000000  0.5343610000000 1.0
C      1  0.4946890000000  0.4346700000000  0.5606580000000 1.0
C      1  0.5007800000000  0.3627250000000  0.5682340000000 1.0
C      1  0.5370080000000  0.5078720000000  0.4341700000000 1.0
C      1  0.4938530000000  0.5345350000000  0.4840950000000 1.0
C      1  0.4228190000000  0.4688740000000  0.4558800000000 1.0
C      1  0.4509660000000  0.4520000000000  0.5023450000000 1.0
C      1  0.5752400000000  0.5406730000000  0.5596860000000 1.0
C      1  0.5267920000000  0.5711850000000  0.4745760000000 1.0
C      1  0.6066050000000  0.5142590000000  0.4544540000000 1.0
C      1  0.4518340000000  0.3907850000000  0.5186890000000 1.0
C      1  0.4253120000000  0.5361900000000  0.5172620000000 1.0
C      1  0.4696650000000  0.4975520000000  0.5051840000000 1.0
C      1  0.5704390000000  0.5223370000000  0.5807190000000 1.0
C      1  0.5220550000000  0.4442260000000  0.5603460000000 1.0
C      1  0.5164070000000  0.5173800000000  0.4205030000000 1.0
C      1  0.4784850000000  0.4590950000000  0.5582360000000 1.0
C      1  0.4507600000000  0.4387860000000  0.5270790000000 1.0
C      1  0.5344840000000  0.5822730000000  0.3997700000000 1.0
C      1  0.5899700000000  0.5639650000000  0.5632760000000 1.0
C      1  0.5464280000000  0.5663600000000  0.4944460000000 1.0
C      1  0.4686760000000  0.5245780000000  0.4937170000000 1.0
C      1  0.4561340000000  0.4770540000000  0.4905290000000 1.0
C      1  0.3790260000000  0.4423720000000  0.4421730000000 1.0
C      1  0.4730440000000  0.5757400000000  0.4123030000000 1.0
C      1  0.3575000000000  0.4292350000000  0.4355630000000 1.0
C      1  0.5569390000000  0.5049310000000  0.5308470000000 1.0
C      1  0.5578820000000  0.5525460000000  0.5145020000000 1.0
C      1  0.4009130000000  0.4557180000000  0.4489090000000 1.0
C      1  0.6036170000000  0.5859800000000  0.5661540000000 1.0
C      1  0.4930830000000  0.5327050000000  0.4224980000000 1.0
C      1  0.4921450000000  0.3858450000000  0.5598650000000 1.0
C      1  0.4615880000000  0.4127270000000  0.5317740000000 1.0
C      1  0.4158940000000  0.5199670000000  0.5362920000000 1.0
C      1  0.5111080000000  0.5126700000000  0.5193700000000 1.0
C      1  0.5007110000000  0.5612150000000  0.4795040000000 1.0
C      1  0.5463650000000  0.4899450000000  0.5534630000000 1.0
C      1  0.5312920000000  0.5777220000000  0.4476860000000 1.0
C      1  0.4454960000000  0.5391260000000  0.4998710000000 1.0
C      1  0.5526140000000  0.5080640000000  0.4572030000000 1.0
C      1  0.4459000000000  0.4823740000000  0.4642310000000 1.0
C      1  0.4518750000000  0.4564880000000  0.5495460000000 1.0
C      1  0.4315350000000  0.4746090000000  0.5554590000000 1.0
C      1  0.5164580000000  0.5183710000000  0.4919640000000 1.0
C      1  0.4702980000000  0.5194830000000  0.4322980000000 1.0
C      1  0.4957220000000  0.4796010000000  0.5481080000000 1.0
C      1  0.4831360000000  0.4106730000000  0.5509340000000 1.0
C      1  0.4575560000000  0.5009450000000  0.4466170000000 1.0
C      1  0.5240760000000  0.4724470000000  0.5533740000000 1.0
C      1  0.4896450000000  0.4957880000000  0.5260660000000 1.0
C      1  0.5559570000000  0.4957870000000  0.5041890000000 1.0
C      1  0.5803790000000  0.5105370000000  0.4549240000000 1.0
C      1  0.5206220000000  0.5738990000000  0.4218430000000 1.0
C      1  0.6323970000000  0.5180500000000  0.4543720000000 1.0
END
