TITL C-247198-3593-489 -7.30701259112174e-07 125000 -718.114621192169 0 0 119 (C1) n - 1
REM
REM in /home/nfs/bkarasulu/CARBON/AIRSS/Generating-Clusters/LCBOP/Only-C1/SD-CG/FIRE-HFTN
REM
REM
REM
REM
REM
REM ./C.cell (11c1c37f851c82e70ff6c80c92926a4b)
REM AIRSS Version 0.9.1 bugfix July 2018 build 013d7b7c2542+ Fri, 06 Jul 2018 19:26:36 +0100
REM compiler GCC version 9.2.1 20190827 (Red Hat 9.2.1-1)
REM options -cpp -mtune=generic -march=x86-64 -g -O0 -fpre-include=/usr/include/finclude/math-vector-fortran.h
REM seed -1881247134 720560948 -2064418474 -190250117 817114668 720852117 2021041127 1050728336 760396737 2123536410 1240396837 1476753186 6326630 343974538 1469258909 1334604824 361994118 1430770475 1575780884 -442844436 -590666519 -1751167060 -1838714296 13587047 649232555 2076932780 2109071723 -1965472658 779476574 -1865303420 1183325350 265483727 -659526406
REM
CELL 1.54180   50.00000   50.00000   50.00000   90.00000   90.00000   90.00000
LATT -1
SFAC C  
C      1  0.4978400000000  0.5908920000000  0.4577420000000 1.0
C      1  0.4895750000000  0.5371910000000  0.4048350000000 1.0
C      1  0.5059440000000  0.5135020000000  0.4508540000000 1.0
C      1  0.5620420000000  0.4682030000000  0.5788270000000 1.0
C      1  0.5364380000000  0.5582450000000  0.4071270000000 1.0
C      1  0.5713550000000  0.5212030000000  0.5791670000000 1.0
C      1  0.4745750000000  0.4665180000000  0.4029650000000 1.0
C      1  0.3889030000000  0.4875820000000  0.5096360000000 1.0
C      1  0.5316120000000  0.4347610000000  0.4350900000000 1.0
C      1  0.5029900000000  0.4311760000000  0.5425780000000 1.0
C      1  0.5213250000000  0.5771000000000  0.5498790000000 1.0
C      1  0.5078970000000  0.4744380000000  0.6056630000000 1.0
C      1  0.4146260000000  0.4661320000000  0.5831550000000 1.0
C      1  0.4386310000000  0.4746280000000  0.4618990000000 1.0
C      1  0.4215610000000  0.5169080000000  0.5742990000000 1.0
C      1  0.5229920000000  0.5872330000000  0.5223760000000 1.0
C      1  0.4144010000000  0.4802490000000  0.5187470000000 1.0
C      1  0.4409460000000  0.5438850000000  0.4637880000000 1.0
C      1  0.5022430000000  0.5265730000000  0.5349790000000 1.0
C      1  0.5358060000000  0.4018650000000  0.5527540000000 1.0
C      1  0.6016180000000  0.5648810000000  0.4747610000000 1.0
C      1  0.4321170000000  0.5017180000000  0.5230860000000 1.0
C      1  0.5549970000000  0.6029150000000  0.4612510000000 1.0
C      1  0.5722360000000  0.4937320000000  0.5816180000000 1.0
C      1  0.4574840000000  0.4814310000000  0.4792670000000 1.0
C      1  0.5078210000000  0.5585900000000  0.4132610000000 1.0
C      1  0.4487320000000  0.5158010000000  0.5834380000000 1.0
C      1  0.3774000000000  0.5112690000000  0.5041750000000 1.0
C      1  0.5633040000000  0.5959150000000  0.4871960000000 1.0
C      1  0.4631160000000  0.5314390000000  0.4160340000000 1.0
C      1  0.5129060000000  0.4563290000000  0.4316570000000 1.0
C      1  0.4829940000000  0.5505740000000  0.4794740000000 1.0
C      1  0.4956140000000  0.5756100000000  0.4817420000000 1.0
C      1  0.4598320000000  0.5043860000000  0.5216630000000 1.0
C      1  0.4628760000000  0.4904160000000  0.5849070000000 1.0
C      1  0.5556490000000  0.5708720000000  0.4245730000000 1.0
C      1  0.5005630000000  0.5145310000000  0.3918260000000 1.0
C      1  0.5527570000000  0.5978100000000  0.4336560000000 1.0
C      1  0.5198240000000  0.5278860000000  0.5568910000000 1.0
C      1  0.5895650000000  0.4241970000000  0.5066390000000 1.0
C      1  0.4810250000000  0.4904840000000  0.5624440000000 1.0
C      1  0.5170400000000  0.5010540000000  0.4918400000000 1.0
C      1  0.5441500000000  0.4470070000000  0.5698410000000 1.0
C      1  0.5434900000000  0.5652030000000  0.5639630000000 1.0
C      1  0.4933380000000  0.4265950000000  0.6047330000000 1.0
C      1  0.5456320000000  0.5960340000000  0.5088320000000 1.0
C      1  0.4253800000000  0.5529840000000  0.5302330000000 1.0
C      1  0.4489200000000  0.5099360000000  0.4042270000000 1.0
C      1  0.4917380000000  0.5739530000000  0.5531510000000 1.0
C      1  0.5208550000000  0.4118390000000  0.5295740000000 1.0
C      1  0.4640530000000  0.5326870000000  0.5653460000000 1.0
C      1  0.5528870000000  0.5008760000000  0.4392980000000 1.0
C      1  0.5489180000000  0.6182220000000  0.4158670000000 1.0
C      1  0.4136200000000  0.4283580000000  0.5267250000000 1.0
C      1  0.5440490000000  0.4189750000000  0.4835900000000 1.0
C      1  0.5532220000000  0.5164390000000  0.3795180000000 1.0
C      1  0.4328590000000  0.4117030000000  0.5422250000000 1.0
C      1  0.4188700000000  0.5383640000000  0.5548190000000 1.0
C      1  0.5643830000000  0.4583240000000  0.4605170000000 1.0
C      1  0.4911670000000  0.4683260000000  0.5138960000000 1.0
C      1  0.5313720000000  0.5033610000000  0.5652310000000 1.0
C      1  0.4605840000000  0.5348190000000  0.4439500000000 1.0
C      1  0.3913340000000  0.5522450000000  0.4457260000000 1.0
C      1  0.5847560000000  0.4722230000000  0.5215610000000 1.0
C      1  0.5019430000000  0.4639060000000  0.4573300000000 1.0
C      1  0.5969140000000  0.4958660000000  0.4554010000000 1.0
C      1  0.5205610000000  0.4137280000000  0.5001770000000 1.0
C      1  0.5474390000000  0.5415900000000  0.3870770000000 1.0
C      1  0.5782880000000  0.5565200000000  0.4336400000000 1.0
C      1  0.4788770000000  0.4430760000000  0.5262590000000 1.0
C      1  0.5547520000000  0.4213860000000  0.5621810000000 1.0
C      1  0.4549850000000  0.5510180000000  0.4889250000000 1.0
C      1  0.4761060000000  0.5741210000000  0.5278820000000 1.0
C      1  0.5228190000000  0.4922520000000  0.5909880000000 1.0
C      1  0.4764800000000  0.5153110000000  0.5440080000000 1.0
C      1  0.5150380000000  0.4484960000000  0.5630160000000 1.0
C      1  0.5955930000000  0.4485580000000  0.5158010000000 1.0
C      1  0.5630840000000  0.4864650000000  0.5275180000000 1.0
C      1  0.5465730000000  0.4360410000000  0.4598400000000 1.0
C      1  0.4143140000000  0.5479280000000  0.4572580000000 1.0
C      1  0.3831320000000  0.5374530000000  0.5053400000000 1.0
C      1  0.5380720000000  0.4895640000000  0.5391820000000 1.0
C      1  0.6056160000000  0.5211550000000  0.4539150000000 1.0
C      1  0.4532350000000  0.4016670000000  0.5234250000000 1.0
C      1  0.5127260000000  0.5208910000000  0.5095270000000 1.0
C      1  0.4175430000000  0.4667930000000  0.4487260000000 1.0
C      1  0.4995880000000  0.5775670000000  0.4327430000000 1.0
C      1  0.4866740000000  0.4542770000000  0.6054260000000 1.0
C      1  0.4023230000000  0.5544750000000  0.5133970000000 1.0
C      1  0.4975350000000  0.5836520000000  0.5087550000000 1.0
C      1  0.5411330000000  0.4924970000000  0.3832290000000 1.0
C      1  0.5350010000000  0.4148080000000  0.4168180000000 1.0
C      1  0.4079150000000  0.4921730000000  0.5782640000000 1.0
C      1  0.5309550000000  0.5162230000000  0.4384170000000 1.0
C      1  0.5717970000000  0.4839300000000  0.4515410000000 1.0
C      1  0.5067770000000  0.4901250000000  0.4677070000000 1.0
C      1  0.5689980000000  0.4117220000000  0.4949120000000 1.0
C      1  0.4938820000000  0.4195920000000  0.4895650000000 1.0
C      1  0.5608840000000  0.5458740000000  0.5729480000000 1.0
C      1  0.5025130000000  0.4685660000000  0.4079430000000 1.0
C      1  0.4962910000000  0.6182150000000  0.4586330000000 1.0
C      1  0.5130160000000  0.4778990000000  0.5304360000000 1.0
C      1  0.5014420000000  0.4727270000000  0.5570290000000 1.0
C      1  0.5969330000000  0.5477820000000  0.4529780000000 1.0
C      1  0.4862980000000  0.5325280000000  0.4575340000000 1.0
C      1  0.4725190000000  0.4181660000000  0.5093380000000 1.0
C      1  0.5149980000000  0.4899780000000  0.3934500000000 1.0
C      1  0.5041290000000  0.4045410000000  0.5934410000000 1.0
C      1  0.4540400000000  0.4837520000000  0.4005650000000 1.0
C      1  0.4522420000000  0.4515690000000  0.5383520000000 1.0
C      1  0.4255890000000  0.4549470000000  0.5237140000000 1.0
C      1  0.4438360000000  0.4334620000000  0.5603810000000 1.0
C      1  0.4609290000000  0.4639420000000  0.5958410000000 1.0
C      1  0.4384140000000  0.4495560000000  0.5839250000000 1.0
C      1  0.4919890000000  0.4412450000000  0.4712990000000 1.0
C      1  0.5882700000000  0.5831470000000  0.4890090000000 1.0
C      1  0.4514940000000  0.5601270000000  0.5170730000000 1.0
C      1  0.5191750000000  0.3923680000000  0.5743360000000 1.0
C      1  0.4715820000000  0.4861820000000  0.5030060000000 1.0
END
