TITL C-247200-3482-397 0.00733302831211995 125000 -732.151695904108 0 0 122 (C1) n - 1
REM
REM in /home/nfs/bkarasulu/CARBON/AIRSS/Generating-Clusters/LCBOP/Only-C1/SD-CG/FIRE-HFTN
REM
REM
REM
REM
REM
REM ./C.cell (11c1c37f851c82e70ff6c80c92926a4b)
REM AIRSS Version 0.9.1 bugfix July 2018 build 013d7b7c2542+ Fri, 06 Jul 2018 19:26:36 +0100
REM compiler GCC version 9.2.1 20190827 (Red Hat 9.2.1-1)
REM options -cpp -mtune=generic -march=x86-64 -g -O0 -fpre-include=/usr/include/finclude/math-vector-fortran.h
REM seed -181850757 1949146371 -1398242136 -850889598 -816243967 2103284507 346984003 -202043654 125636359 -1458681300 -1838268432 1765526371 -322450960 891916295 1225185715 1191665969 -55874087 549026186 -9788271 -1931520586 1432864799 1570431216 853698312 -1752968086 1868915224 -2047850501 1826251986 424717515 1790932932 -2036921191 1345867035 -1596549078 134959051
REM
CELL 1.54180   50.00000   50.00000   50.00000   90.00000   90.00000   90.00000
LATT -1
SFAC C  
C      1  0.4937760000000  0.5650740000000  0.5139050000000 1.0
C      1  0.5528900000000  0.5328380000000  0.5139390000000 1.0
C      1  0.4662460000000  0.4402910000000  0.5858320000000 1.0
C      1  0.5040550000000  0.5935790000000  0.4534640000000 1.0
C      1  0.4735390000000  0.4165410000000  0.4939630000000 1.0
C      1  0.5560690000000  0.4701660000000  0.5557500000000 1.0
C      1  0.5149250000000  0.4019320000000  0.4607780000000 1.0
C      1  0.4828680000000  0.4370190000000  0.4796370000000 1.0
C      1  0.4798700000000  0.6353970000000  0.4539870000000 1.0
C      1  0.4741600000000  0.5145240000000  0.5765010000000 1.0
C      1  0.5924350000000  0.5038960000000  0.4598020000000 1.0
C      1  0.4796150000000  0.6075570000000  0.4576480000000 1.0
C      1  0.5360640000000  0.6548070000000  0.5087520000000 1.0
C      1  0.5114950000000  0.4764040000000  0.4644740000000 1.0
C      1  0.5342400000000  0.4557950000000  0.5458100000000 1.0
C      1  0.4692100000000  0.6052050000000  0.5104860000000 1.0
C      1  0.4814120000000  0.5485890000000  0.4189000000000 1.0
C      1  0.5191230000000  0.4565750000000  0.4109280000000 1.0
C      1  0.5319850000000  0.4069990000000  0.5622290000000 1.0
C      1  0.5191080000000  0.4799650000000  0.3934520000000 1.0
C      1  0.4317060000000  0.5194280000000  0.5489750000000 1.0
C      1  0.4285190000000  0.5434960000000  0.4885620000000 1.0
C      1  0.5553540000000  0.4988600000000  0.5519980000000 1.0
C      1  0.4912740000000  0.5597360000000  0.5664330000000 1.0
C      1  0.4179350000000  0.4239410000000  0.5008680000000 1.0
C      1  0.4128920000000  0.5305400000000  0.5291280000000 1.0
C      1  0.4961630000000  0.5025310000000  0.5601650000000 1.0
C      1  0.5322460000000  0.6304400000000  0.5188410000000 1.0
C      1  0.4509690000000  0.4475490000000  0.5635950000000 1.0
C      1  0.5087270000000  0.5479840000000  0.5841320000000 1.0
C      1  0.4579840000000  0.5345290000000  0.4269190000000 1.0
C      1  0.4803190000000  0.4920990000000  0.5167200000000 1.0
C      1  0.4221330000000  0.5392240000000  0.4616550000000 1.0
C      1  0.4714950000000  0.5236510000000  0.4826110000000 1.0
C      1  0.5278350000000  0.5124090000000  0.5498320000000 1.0
C      1  0.5306960000000  0.4090110000000  0.5335790000000 1.0
C      1  0.4902860000000  0.5155560000000  0.5035930000000 1.0
C      1  0.5300020000000  0.4248380000000  0.5830470000000 1.0
C      1  0.5766080000000  0.4937740000000  0.5082990000000 1.0
C      1  0.5289050000000  0.5333760000000  0.5298290000000 1.0
C      1  0.3994140000000  0.5093640000000  0.5144930000000 1.0
C      1  0.5374360000000  0.5189520000000  0.4715370000000 1.0
C      1  0.4247220000000  0.5832370000000  0.5089240000000 1.0
C      1  0.5252920000000  0.4745120000000  0.6000360000000 1.0
C      1  0.5296760000000  0.4363420000000  0.5263790000000 1.0
C      1  0.5035450000000  0.4988980000000  0.4077680000000 1.0
C      1  0.5326430000000  0.4886670000000  0.5045100000000 1.0
C      1  0.4794500000000  0.4859910000000  0.4193080000000 1.0
C      1  0.4101210000000  0.4685060000000  0.4820050000000 1.0
C      1  0.5070320000000  0.5419450000000  0.4247030000000 1.0
C      1  0.4810610000000  0.4844820000000  0.5435250000000 1.0
C      1  0.4220060000000  0.4299910000000  0.5276270000000 1.0
C      1  0.4555570000000  0.4732690000000  0.5527240000000 1.0
C      1  0.4365150000000  0.4350810000000  0.4076930000000 1.0
C      1  0.4555720000000  0.5422700000000  0.4966830000000 1.0
C      1  0.4331200000000  0.4909020000000  0.5507620000000 1.0
C      1  0.4676740000000  0.5546860000000  0.5207440000000 1.0
C      1  0.5936690000000  0.4540110000000  0.5280710000000 1.0
C      1  0.6095320000000  0.5119730000000  0.4818010000000 1.0
C      1  0.5851900000000  0.4570920000000  0.4782190000000 1.0
C      1  0.5684940000000  0.5492600000000  0.4417710000000 1.0
C      1  0.5650990000000  0.4668260000000  0.4356440000000 1.0
C      1  0.5597300000000  0.4097920000000  0.4788020000000 1.0
C      1  0.5794340000000  0.5061540000000  0.5351630000000 1.0
C      1  0.5249270000000  0.3918990000000  0.5105660000000 1.0
C      1  0.4947900000000  0.5931800000000  0.5146760000000 1.0
C      1  0.4601300000000  0.4788590000000  0.5016800000000 1.0
C      1  0.4682660000000  0.5527050000000  0.5498290000000 1.0
C      1  0.5263240000000  0.4434430000000  0.4999210000000 1.0
C      1  0.5463820000000  0.5047480000000  0.6310390000000 1.0
C      1  0.4902290000000  0.4565470000000  0.4206970000000 1.0
C      1  0.5166910000000  0.4473150000000  0.5954400000000 1.0
C      1  0.6413830000000  0.5387850000000  0.5066500000000 1.0
C      1  0.4181930000000  0.3978700000000  0.4886470000000 1.0
C      1  0.4009970000000  0.4890230000000  0.4968590000000 1.0
C      1  0.5875860000000  0.4679840000000  0.5041810000000 1.0
C      1  0.4640100000000  0.5043670000000  0.4629040000000 1.0
C      1  0.4268080000000  0.3995340000000  0.4624900000000 1.0
C      1  0.5087260000000  0.6738610000000  0.4711240000000 1.0
C      1  0.4768090000000  0.3924940000000  0.5053060000000 1.0
C      1  0.4994730000000  0.3793810000000  0.5117650000000 1.0
C      1  0.4891090000000  0.4428290000000  0.5990860000000 1.0
C      1  0.5437270000000  0.4540590000000  0.4249120000000 1.0
C      1  0.5618400000000  0.5072730000000  0.6518680000000 1.0
C      1  0.5227900000000  0.5418820000000  0.4813210000000 1.0
C      1  0.4433030000000  0.5778460000000  0.4463710000000 1.0
C      1  0.4470850000000  0.5963960000000  0.4944090000000 1.0
C      1  0.4857740000000  0.4624070000000  0.4673340000000 1.0
C      1  0.4632480000000  0.5065250000000  0.4344500000000 1.0
C      1  0.4212880000000  0.4428490000000  0.4781540000000 1.0
C      1  0.5224440000000  0.5021290000000  0.4529100000000 1.0
C      1  0.5337230000000  0.3990080000000  0.4829810000000 1.0
C      1  0.4329890000000  0.4271540000000  0.4550460000000 1.0
C      1  0.4160530000000  0.5551560000000  0.5121310000000 1.0
C      1  0.4968720000000  0.4125910000000  0.4431210000000 1.0
C      1  0.5175050000000  0.6083330000000  0.5198470000000 1.0
C      1  0.5268650000000  0.6721170000000  0.4906360000000 1.0
C      1  0.4693030000000  0.5081470000000  0.6027230000000 1.0
C      1  0.4550230000000  0.5306300000000  0.5610750000000 1.0
C      1  0.5298420000000  0.5018600000000  0.6084190000000 1.0
C      1  0.5531130000000  0.5080860000000  0.4958670000000 1.0
C      1  0.4295320000000  0.4310250000000  0.5546150000000 1.0
C      1  0.4248260000000  0.4396320000000  0.3848510000000 1.0
C      1  0.6181580000000  0.5241420000000  0.5065250000000 1.0
C      1  0.5201290000000  0.5267500000000  0.5971350000000 1.0
C      1  0.5089360000000  0.5400050000000  0.5084990000000 1.0
C      1  0.5824940000000  0.4760970000000  0.4563820000000 1.0
C      1  0.4787420000000  0.4322650000000  0.4315150000000 1.0
C      1  0.5253620000000  0.4679620000000  0.4878920000000 1.0
C      1  0.5155710000000  0.5152110000000  0.4276840000000 1.0
C      1  0.6032390000000  0.5215450000000  0.5312470000000 1.0
C      1  0.5509210000000  0.5695780000000  0.4439520000000 1.0
C      1  0.5288840000000  0.5844230000000  0.4485130000000 1.0
C      1  0.5811830000000  0.4571090000000  0.5520270000000 1.0
C      1  0.5813180000000  0.5257760000000  0.4450980000000 1.0
C      1  0.5770300000000  0.4300830000000  0.4757330000000 1.0
C      1  0.4639840000000  0.4788000000000  0.4738780000000 1.0
C      1  0.4548590000000  0.5947230000000  0.4659040000000 1.0
C      1  0.4496580000000  0.4314580000000  0.4322940000000 1.0
C      1  0.4155800000000  0.4160270000000  0.5728640000000 1.0
C      1  0.4906050000000  0.6594240000000  0.4579290000000 1.0
C      1  0.4382540000000  0.5503630000000  0.4411160000000 1.0
END
