TITL C-247198-3593-192 -0.76461816567831 125000 -230.163239680362 0 0 39 (C1) n - 1
REM
REM in /home/nfs/bkarasulu/CARBON/AIRSS/Generating-Clusters/LCBOP/Only-C1/SD-CG/FIRE-HFTN
REM
REM
REM
REM
REM
REM ./C.cell (11c1c37f851c82e70ff6c80c92926a4b)
REM AIRSS Version 0.9.1 bugfix July 2018 build 013d7b7c2542+ Fri, 06 Jul 2018 19:26:36 +0100
REM compiler GCC version 9.2.1 20190827 (Red Hat 9.2.1-1)
REM options -cpp -mtune=generic -march=x86-64 -g -O0 -fpre-include=/usr/include/finclude/math-vector-fortran.h
REM seed -40925952 712748028 2006427 605751868 -267545850 -1590283710 713823384 2086615128 -2052864960 -1764580886 -167388974 840433393 -1681454910 -510524861 -39807379 368372611 1882663556 333652431 765332841 -1892808168 446299917 1811091723 -914249613 -817254648 -981015784 1294404091 116028814 -1432704079 170358983 -2131894158 2033290484 1187215033 -170890041
REM
CELL 1.54180   50.00000   50.00000   50.00000   90.00000   90.00000   90.00000
LATT -1
SFAC C  
C      1  0.4974670000000  0.4622660000000  0.5377210000000 1.0
C      1  0.4740620000000  0.3837590000000  0.4896610000000 1.0
C      1  0.4642880000000  0.3758810000000  0.4227090000000 1.0
C      1  0.5758470000000  0.6336350000000  0.4601200000000 1.0
C      1  0.4843090000000  0.3704500000000  0.4671860000000 1.0
C      1  0.4689540000000  0.3578290000000  0.5367620000000 1.0
C      1  0.4708530000000  0.5001890000000  0.5539790000000 1.0
C      1  0.5096150000000  0.5293490000000  0.5633390000000 1.0
C      1  0.5224740000000  0.6496050000000  0.4388400000000 1.0
C      1  0.5590010000000  0.6177510000000  0.4739760000000 1.0
C      1  0.5504000000000  0.5350720000000  0.5348660000000 1.0
C      1  0.5903970000000  0.5707000000000  0.5291310000000 1.0
C      1  0.5098680000000  0.5774290000000  0.5084700000000 1.0
C      1  0.4327970000000  0.4616890000000  0.5004890000000 1.0
C      1  0.5533030000000  0.5078130000000  0.5285710000000 1.0
C      1  0.5717130000000  0.5528490000000  0.5325200000000 1.0
C      1  0.4657900000000  0.4109970000000  0.4881240000000 1.0
C      1  0.4459150000000  0.3952360000000  0.4258110000000 1.0
C      1  0.4817710000000  0.5259690000000  0.5551090000000 1.0
C      1  0.4506270000000  0.4921820000000  0.5358180000000 1.0
C      1  0.4714980000000  0.3700140000000  0.5138670000000 1.0
C      1  0.4779440000000  0.4298620000000  0.5052080000000 1.0
C      1  0.5161450000000  0.6305720000000  0.4568910000000 1.0
C      1  0.4293970000000  0.4422630000000  0.4824070000000 1.0
C      1  0.5438880000000  0.4829480000000  0.5267010000000 1.0
C      1  0.4811070000000  0.3657130000000  0.4410460000000 1.0
C      1  0.4388130000000  0.4110130000000  0.4461840000000 1.0
C      1  0.4438650000000  0.4204700000000  0.4720060000000 1.0
C      1  0.5187090000000  0.5956890000000  0.4914590000000 1.0
C      1  0.5465450000000  0.6595620000000  0.4315670000000 1.0
C      1  0.5241360000000  0.4652530000000  0.5297350000000 1.0
C      1  0.4885990000000  0.4785140000000  0.5593530000000 1.0
C      1  0.5249890000000  0.5437340000000  0.5433810000000 1.0
C      1  0.4524610000000  0.4696090000000  0.5187760000000 1.0
C      1  0.5707770000000  0.6523120000000  0.4412280000000 1.0
C      1  0.5049650000000  0.5576900000000  0.5271590000000 1.0
C      1  0.5309030000000  0.6141140000000  0.4746160000000 1.0
C      1  0.4765410000000  0.4533450000000  0.5204010000000 1.0
C      1  0.4792650000000  0.5466740000000  0.5348130000000 1.0
END
