TITL C-247195-3186-417 -1.36456787498639e-07 125000 -433.261703806556 0 0 69 (C1) n - 1
REM
REM in /home/nfs/bkarasulu/CARBON/AIRSS/Generating-Clusters/LCBOP/Only-C1/SD-CG/FIRE-HFTN
REM
REM
REM
REM
REM
REM ./C.cell (11c1c37f851c82e70ff6c80c92926a4b)
REM AIRSS Version 0.9.1 bugfix July 2018 build 013d7b7c2542+ Fri, 06 Jul 2018 19:26:36 +0100
REM compiler GCC version 9.2.1 20190827 (Red Hat 9.2.1-1)
REM options -cpp -mtune=generic -march=x86-64 -g -O0 -fpre-include=/usr/include/finclude/math-vector-fortran.h
REM seed 1799516583 -735131376 1877367737 1746622259 -1691847759 -1255959867 724742029 1142929919 1982522130 -2009505188 -1034597471 -1319248484 1683192923 -1881539167 -1072296459 869633934 1920430950 1522921993 657153521 -829867185 -1385141256 -1271562253 1232926135 -670868806 -410399624 -890425528 -368650444 -5624645 458388056 1727696937 -1776097545 241256773 49592441
REM
CELL 1.54180   50.00000   50.00000   50.00000   90.00000   90.00000   90.00000
LATT -1
SFAC C  
C      1  0.4431940000000  0.4615820000000  0.4627590000000 1.0
C      1  0.4854450000000  0.4829980000000  0.5644920000000 1.0
C      1  0.4938320000000  0.4890910000000  0.4792690000000 1.0
C      1  0.4588220000000  0.4175880000000  0.4799850000000 1.0
C      1  0.5243410000000  0.5284800000000  0.4742600000000 1.0
C      1  0.5139690000000  0.4556070000000  0.4416080000000 1.0
C      1  0.5258440000000  0.4976060000000  0.5244180000000 1.0
C      1  0.5162130000000  0.4824690000000  0.4293710000000 1.0
C      1  0.5092640000000  0.4271980000000  0.4921890000000 1.0
C      1  0.5011750000000  0.5696600000000  0.5068370000000 1.0
C      1  0.5062060000000  0.5440090000000  0.5536970000000 1.0
C      1  0.4655200000000  0.4619870000000  0.4432760000000 1.0
C      1  0.5344970000000  0.4394900000000  0.4860720000000 1.0
C      1  0.5495120000000  0.4561100000000  0.5064490000000 1.0
C      1  0.4399710000000  0.4897450000000  0.4745000000000 1.0
C      1  0.4502040000000  0.5500850000000  0.5055840000000 1.0
C      1  0.4565890000000  0.5525310000000  0.4597490000000 1.0
C      1  0.5551660000000  0.4812500000000  0.4908970000000 1.0
C      1  0.4763460000000  0.5429740000000  0.5547720000000 1.0
C      1  0.4780770000000  0.4991230000000  0.5420520000000 1.0
C      1  0.5449930000000  0.5038140000000  0.5041910000000 1.0
C      1  0.4804360000000  0.4716600000000  0.4943360000000 1.0
C      1  0.5038030000000  0.4394150000000  0.5462740000000 1.0
C      1  0.4252510000000  0.4806580000000  0.5233710000000 1.0
C      1  0.5386640000000  0.4970230000000  0.4423900000000 1.0
C      1  0.4812310000000  0.4546640000000  0.5596540000000 1.0
C      1  0.4787230000000  0.5519920000000  0.5075990000000 1.0
C      1  0.5502170000000  0.4784220000000  0.4623220000000 1.0
C      1  0.5780290000000  0.5469810000000  0.5492640000000 1.0
C      1  0.5315280000000  0.4410190000000  0.5517210000000 1.0
C      1  0.4868880000000  0.4251740000000  0.4714840000000 1.0
C      1  0.4883720000000  0.4446130000000  0.4487980000000 1.0
C      1  0.5682430000000  0.5261650000000  0.5634210000000 1.0
C      1  0.4551920000000  0.5055740000000  0.4537720000000 1.0
C      1  0.5737700000000  0.5851770000000  0.5145860000000 1.0
C      1  0.5423550000000  0.4870140000000  0.5457850000000 1.0
C      1  0.4527280000000  0.4117040000000  0.5075410000000 1.0
C      1  0.4553220000000  0.4342920000000  0.5244490000000 1.0
C      1  0.4345470000000  0.4996960000000  0.5035460000000 1.0
C      1  0.5674410000000  0.5607990000000  0.5271780000000 1.0
C      1  0.4993040000000  0.4353160000000  0.5180200000000 1.0
C      1  0.5095950000000  0.5665560000000  0.4528910000000 1.0
C      1  0.5354950000000  0.5958340000000  0.4834170000000 1.0
C      1  0.4931780000000  0.4984860000000  0.4221830000000 1.0
C      1  0.4709660000000  0.5280960000000  0.4611060000000 1.0
C      1  0.4906560000000  0.5258980000000  0.5056190000000 1.0
C      1  0.4981350000000  0.5269060000000  0.4177750000000 1.0
C      1  0.4955660000000  0.5190270000000  0.4773940000000 1.0
C      1  0.5129080000000  0.5784490000000  0.4804390000000 1.0
C      1  0.4536100000000  0.4481250000000  0.5495700000000 1.0
C      1  0.5014640000000  0.5004310000000  0.5809720000000 1.0
C      1  0.4381010000000  0.4347190000000  0.4694390000000 1.0
C      1  0.5183300000000  0.5583320000000  0.5290160000000 1.0
C      1  0.5191020000000  0.5213170000000  0.5700120000000 1.0
C      1  0.5153720000000  0.5436600000000  0.4340270000000 1.0
C      1  0.4989130000000  0.5057270000000  0.5238460000000 1.0
C      1  0.4325100000000  0.4673190000000  0.5460670000000 1.0
C      1  0.5421540000000  0.5304180000000  0.4962040000000 1.0
C      1  0.5361300000000  0.4521850000000  0.4600010000000 1.0
C      1  0.4758540000000  0.4503550000000  0.5110290000000 1.0
C      1  0.4686560000000  0.4889590000000  0.4336460000000 1.0
C      1  0.4411980000000  0.5600330000000  0.4809060000000 1.0
C      1  0.5471450000000  0.4595260000000  0.5365720000000 1.0
C      1  0.4595060000000  0.5213970000000  0.5429670000000 1.0
C      1  0.4431980000000  0.5248470000000  0.5180830000000 1.0
C      1  0.5589810000000  0.5985290000000  0.4962920000000 1.0
C      1  0.5334650000000  0.5247730000000  0.4476840000000 1.0
C      1  0.5452920000000  0.5098370000000  0.5635600000000 1.0
C      1  0.5432900000000  0.5495010000000  0.5173490000000 1.0
END
