TITL C-247201-3759-56 1773.00993460838 125000 -809.115422427924 0 0 132 (C1) n - 1
REM
REM in /home/nfs/bkarasulu/CARBON/AIRSS/Generating-Clusters/LCBOP/Only-C1/SD-CG/FIRE-HFTN
REM
REM
REM
REM
REM
REM ./C.cell (11c1c37f851c82e70ff6c80c92926a4b)
REM AIRSS Version 0.9.1 bugfix July 2018 build 013d7b7c2542+ Fri, 06 Jul 2018 19:26:36 +0100
REM compiler GCC version 9.2.1 20190827 (Red Hat 9.2.1-1)
REM options -cpp -mtune=generic -march=x86-64 -g -O0 -fpre-include=/usr/include/finclude/math-vector-fortran.h
REM seed -264923621 -673349418 -1076802498 -1290494388 1965615298 1943911749 2019885182 -256001655 -231950275 -893199339 1993474731 477113163 614535244 -63880917 1656292233 142113097 -1856141346 1907990723 -223813614 -497829768 -951286150 -873784513 1068890873 -151891415 -1466576025 1070011735 661283101 -1356023729 -1819101051 1303385668 868539871 -926944144 -716464774
REM
CELL 1.54180   50.00000   50.00000   50.00000   90.00000   90.00000   90.00000
LATT -1
SFAC C  
C      1  0.5198960000000  0.5419850000000  0.5111000000000 1.0
C      1  0.5225800000000  0.5985100000000  0.5113450000000 1.0
C      1  0.4207010000000  0.4771040000000  0.5100340000000 1.0
C      1  0.4826520000000  0.5633890000000  0.4018020000000 1.0
C      1  0.4448560000000  0.4102010000000  0.5064900000000 1.0
C      1  0.5754210000000  0.5489220000000  0.5340990000000 1.0
C      1  0.4619410000000  0.4521630000000  0.3971030000000 1.0
C      1  0.4115250000000  0.5257640000000  0.4973730000000 1.0
C      1  0.4481060000000  0.5727780000000  0.5154600000000 1.0
C      1  0.5237860000000  0.4986920000000  0.5790990000000 1.0
C      1  0.4072450000000  0.5402100000000  0.5218660000000 1.0
C      1  0.4744590000000  0.5440140000000  0.5752720000000 1.0
C      1  0.4623810000000  0.4976760000000  0.3714170000000 1.0
C      1  0.4145780000000  0.5069370000000  0.5556950000000 1.0
C      1  0.5116200000000  0.5329340000000  0.4456170000000 1.0
C      1  0.5805870000000  0.5007320000000  0.5752770000000 1.0
C      1  0.4717120000000  0.4737520000000  0.5930780000000 1.0
C      1  0.4654920000000  0.5457520000000  0.4698080000000 1.0
C      1  0.5307290000000  0.4476010000000  0.4911350000000 1.0
C      1  0.4927660000000  0.4866140000000  0.4603740000000 1.0
C      1  0.4265890000000  0.5597430000000  0.5313060000000 1.0
C      1  0.4153690000000  0.4506240000000  0.5014300000000 1.0
C      1  0.4906940000000  0.4526060000000  0.5154570000000 1.0
C      1  0.5610640000000  0.3675670000000  0.4337480000000 1.0
C      1  0.5718750000000  0.4545920000000  0.5618600000000 1.0
C      1  0.5699200000000  0.4793460000000  0.4275600000000 1.0
C      1  0.3938450000000  0.5241710000000  0.4756360000000 1.0
C      1  0.4281490000000  0.5053340000000  0.4318750000000 1.0
C      1  0.4708130000000  0.5700060000000  0.4275570000000 1.0
C      1  0.5485550000000  0.4673950000000  0.4810720000000 1.0
C      1  0.5012140000000  0.5377720000000  0.6151250000000 1.0
C      1  0.4693470000000  0.5881080000000  0.5563850000000 1.0
C      1  0.4886370000000  0.5351110000000  0.5522740000000 1.0
C      1  0.4539630000000  0.5509600000000  0.4414000000000 1.0
C      1  0.6016470000000  0.4579950000000  0.5199340000000 1.0
C      1  0.5639480000000  0.4131280000000  0.4491540000000 1.0
C      1  0.4617450000000  0.4435020000000  0.4240870000000 1.0
C      1  0.5069440000000  0.5472660000000  0.5352610000000 1.0
C      1  0.3881190000000  0.5003990000000  0.4608230000000 1.0
C      1  0.3721720000000  0.4848870000000  0.5036690000000 1.0
C      1  0.5212830000000  0.3943110000000  0.4290470000000 1.0
C      1  0.4366770000000  0.5321530000000  0.4298300000000 1.0
C      1  0.4189920000000  0.4488010000000  0.4534810000000 1.0
C      1  0.4876540000000  0.4039960000000  0.5321990000000 1.0
C      1  0.5114820000000  0.4940830000000  0.5545320000000 1.0
C      1  0.4469860000000  0.4865750000000  0.4424860000000 1.0
C      1  0.5992880000000  0.4923560000000  0.5550230000000 1.0
C      1  0.4959570000000  0.4033870000000  0.4253390000000 1.0
C      1  0.4723750000000  0.5001230000000  0.5997230000000 1.0
C      1  0.5957250000000  0.4491500000000  0.4730580000000 1.0
C      1  0.5485090000000  0.4639380000000  0.4222090000000 1.0
C      1  0.5194980000000  0.5777880000000  0.4310920000000 1.0
C      1  0.4903780000000  0.5527040000000  0.6933690000000 1.0
C      1  0.5264250000000  0.5418160000000  0.6023910000000 1.0
C      1  0.5687140000000  0.4747500000000  0.5827340000000 1.0
C      1  0.4573080000000  0.5660810000000  0.5700940000000 1.0
C      1  0.4008230000000  0.4993580000000  0.4357620000000 1.0
C      1  0.5554570000000  0.4930660000000  0.4705980000000 1.0
C      1  0.5135310000000  0.5591780000000  0.4887520000000 1.0
C      1  0.3832190000000  0.4773510000000  0.4776150000000 1.0
C      1  0.5054940000000  0.4420180000000  0.4475070000000 1.0
C      1  0.4620690000000  0.4723550000000  0.3796780000000 1.0
C      1  0.4948330000000  0.5534740000000  0.4649030000000 1.0
C      1  0.5390450000000  0.5200300000000  0.5890810000000 1.0
C      1  0.5432010000000  0.5264200000000  0.5054570000000 1.0
C      1  0.4427550000000  0.4580040000000  0.4406450000000 1.0
C      1  0.5420520000000  0.5658640000000  0.4465870000000 1.0
C      1  0.4644710000000  0.5242250000000  0.3719400000000 1.0
C      1  0.6015240000000  0.4680120000000  0.4935980000000 1.0
C      1  0.5697430000000  0.5267130000000  0.5166670000000 1.0
C      1  0.5200600000000  0.4475240000000  0.5187580000000 1.0
C      1  0.4935490000000  0.5781250000000  0.4454340000000 1.0
C      1  0.5833040000000  0.5409560000000  0.4727030000000 1.0
C      1  0.4273340000000  0.4300290000000  0.5169290000000 1.0
C      1  0.5382660000000  0.6048570000000  0.5339130000000 1.0
C      1  0.4340880000000  0.4375920000000  0.5437570000000 1.0
C      1  0.4280450000000  0.5028730000000  0.5023840000000 1.0
C      1  0.5933620000000  0.4656620000000  0.5452230000000 1.0
C      1  0.5077480000000  0.4890840000000  0.4821240000000 1.0
C      1  0.5439930000000  0.5183250000000  0.4778940000000 1.0
C      1  0.5267790000000  0.4323830000000  0.5418690000000 1.0
C      1  0.5255870000000  0.4540760000000  0.4317450000000 1.0
C      1  0.5173520000000  0.4912890000000  0.5066400000000 1.0
C      1  0.5821520000000  0.4296690000000  0.4601980000000 1.0
C      1  0.5676160000000  0.5487830000000  0.5614220000000 1.0
C      1  0.5533680000000  0.5718080000000  0.5719780000000 1.0
C      1  0.5787880000000  0.5709270000000  0.5155800000000 1.0
C      1  0.4910780000000  0.4295510000000  0.5751540000000 1.0
C      1  0.4974680000000  0.5430470000000  0.6421900000000 1.0
C      1  0.6019040000000  0.4966480000000  0.4918370000000 1.0
C      1  0.5340820000000  0.5800630000000  0.4913330000000 1.0
C      1  0.5738230000000  0.4972670000000  0.4489660000000 1.0
C      1  0.4650520000000  0.4959630000000  0.5320290000000 1.0
C      1  0.5647950000000  0.5241010000000  0.5765540000000 1.0
C      1  0.4022350000000  0.4545110000000  0.4759540000000 1.0
C      1  0.4705290000000  0.5482430000000  0.3818170000000 1.0
C      1  0.4638210000000  0.5172840000000  0.4788440000000 1.0
C      1  0.4672990000000  0.4971520000000  0.4588690000000 1.0
C      1  0.4696830000000  0.5888830000000  0.5277380000000 1.0
C      1  0.5110720000000  0.5611990000000  0.4071600000000 1.0
C      1  0.5894200000000  0.5220950000000  0.4953440000000 1.0
C      1  0.4852300000000  0.4328960000000  0.4936920000000 1.0
C      1  0.5666430000000  0.5688740000000  0.4895030000000 1.0
C      1  0.5730270000000  0.3440850000000  0.4310190000000 1.0
C      1  0.4717910000000  0.4506060000000  0.5761970000000 1.0
C      1  0.3761500000000  0.5014170000000  0.5252320000000 1.0
C      1  0.5037770000000  0.4178930000000  0.5521620000000 1.0
C      1  0.5076660000000  0.4373640000000  0.4753420000000 1.0
C      1  0.5260270000000  0.4879560000000  0.5316880000000 1.0
C      1  0.4938920000000  0.5479290000000  0.6679820000000 1.0
C      1  0.5709810000000  0.5344540000000  0.4208440000000 1.0
C      1  0.5192660000000  0.5347190000000  0.4162510000000 1.0
C      1  0.5373460000000  0.5667920000000  0.5949140000000 1.0
C      1  0.4562330000000  0.5078370000000  0.5049140000000 1.0
C      1  0.5810860000000  0.5259510000000  0.4463210000000 1.0
C      1  0.4732660000000  0.4107160000000  0.5077350000000 1.0
C      1  0.5484190000000  0.3923590000000  0.4373890000000 1.0
C      1  0.5489950000000  0.5945660000000  0.5561540000000 1.0
C      1  0.4525590000000  0.5639390000000  0.4892400000000 1.0
C      1  0.5847730000000  0.3209440000000  0.4285320000000 1.0
C      1  0.4570570000000  0.4518410000000  0.5516990000000 1.0
C      1  0.4936920000000  0.5984690000000  0.5150430000000 1.0
C      1  0.4403120000000  0.5003780000000  0.5510420000000 1.0
C      1  0.4874160000000  0.5075200000000  0.5479440000000 1.0
C      1  0.5377740000000  0.5378600000000  0.4577600000000 1.0
C      1  0.4708740000000  0.4661510000000  0.5306900000000 1.0
C      1  0.3950600000000  0.5189150000000  0.5387490000000 1.0
C      1  0.5515140000000  0.4369130000000  0.5544090000000 1.0
C      1  0.5466110000000  0.5290140000000  0.4096000000000 1.0
C      1  0.4313910000000  0.5608850000000  0.5595690000000 1.0
C      1  0.4846660000000  0.4284850000000  0.4329160000000 1.0
C      1  0.4797380000000  0.5279820000000  0.5986730000000 1.0
END
