TITL C-247195-3186-104 -2.00047474968659e-07 125000 -946.249853308018 0 0 156 (C1) n - 1
REM
REM in /home/nfs/bkarasulu/CARBON/AIRSS/Generating-Clusters/LCBOP/Only-C1/SD-CG/FIRE-HFTN
REM
REM
REM
REM
REM
REM ./C.cell (11c1c37f851c82e70ff6c80c92926a4b)
REM AIRSS Version 0.9.1 bugfix July 2018 build 013d7b7c2542+ Fri, 06 Jul 2018 19:26:36 +0100
REM compiler GCC version 9.2.1 20190827 (Red Hat 9.2.1-1)
REM options -cpp -mtune=generic -march=x86-64 -g -O0 -fpre-include=/usr/include/finclude/math-vector-fortran.h
REM seed 1908399845 779104867 -684188512 -869958653 -550906252 464326307 1888589500 583114273 -1718478944 1163064752 -1266928674 1717585410 -730367595 1495189760 -1761178752 918010515 -1265849978 -626982095 -1523708881 1842412441 1716388188 -961876916 -386750744 -1921911639 731809542 664695874 -387310409 -619744341 1677519160 -526860352 -1113129732 -758188684 -2025637925
REM
CELL 1.54180   50.00000   50.00000   50.00000   90.00000   90.00000   90.00000
LATT -1
SFAC C  
C      1  0.4265390000000  0.4409260000000  0.4380790000000 1.0
C      1  0.5232830000000  0.4170830000000  0.4239550000000 1.0
C      1  0.5233260000000  0.4900060000000  0.4020860000000 1.0
C      1  0.4969510000000  0.4140740000000  0.4383540000000 1.0
C      1  0.5134940000000  0.5824530000000  0.4906690000000 1.0
C      1  0.5934970000000  0.5109320000000  0.4614360000000 1.0
C      1  0.5756740000000  0.5645950000000  0.4503950000000 1.0
C      1  0.4758460000000  0.5315550000000  0.5303690000000 1.0
C      1  0.6097600000000  0.5280730000000  0.5078540000000 1.0
C      1  0.4952970000000  0.3911840000000  0.5138950000000 1.0
C      1  0.5644900000000  0.4847960000000  0.5156440000000 1.0
C      1  0.4340180000000  0.4206260000000  0.5782900000000 1.0
C      1  0.4327830000000  0.5795900000000  0.5229410000000 1.0
C      1  0.3767330000000  0.4723760000000  0.5245110000000 1.0
C      1  0.4118720000000  0.4446830000000  0.4831350000000 1.0
C      1  0.4889210000000  0.5106230000000  0.4602090000000 1.0
C      1  0.5583160000000  0.5893360000000  0.5560980000000 1.0
C      1  0.5196910000000  0.4502370000000  0.5171740000000 1.0
C      1  0.4770680000000  0.4948570000000  0.3941810000000 1.0
C      1  0.5084200000000  0.3904550000000  0.5396470000000 1.0
C      1  0.5030150000000  0.5810440000000  0.5872030000000 1.0
C      1  0.5086100000000  0.5543950000000  0.4784160000000 1.0
C      1  0.3909090000000  0.5170340000000  0.5638830000000 1.0
C      1  0.4484540000000  0.4296400000000  0.4261300000000 1.0
C      1  0.5700580000000  0.5809840000000  0.5044030000000 1.0
C      1  0.4581630000000  0.4796790000000  0.5283510000000 1.0
C      1  0.4520000000000  0.4522920000000  0.5128140000000 1.0
C      1  0.4229050000000  0.4068560000000  0.5577580000000 1.0
C      1  0.4011490000000  0.5284260000000  0.5414040000000 1.0
C      1  0.4758770000000  0.5037540000000  0.5217150000000 1.0
C      1  0.4839800000000  0.5398570000000  0.4170800000000 1.0
C      1  0.5287880000000  0.5414020000000  0.4596850000000 1.0
C      1  0.3965270000000  0.5020120000000  0.4507700000000 1.0
C      1  0.5810610000000  0.5455570000000  0.5475040000000 1.0
C      1  0.4767360000000  0.5020210000000  0.6073860000000 1.0
C      1  0.5122270000000  0.4876800000000  0.4925930000000 1.0
C      1  0.4643020000000  0.4177500000000  0.4751750000000 1.0
C      1  0.4630960000000  0.5255630000000  0.5980900000000 1.0
C      1  0.3589580000000  0.5185620000000  0.5077410000000 1.0
C      1  0.5725350000000  0.5473540000000  0.5767730000000 1.0
C      1  0.5022850000000  0.4094240000000  0.5601280000000 1.0
C      1  0.5586650000000  0.5565940000000  0.4939640000000 1.0
C      1  0.4508510000000  0.5254670000000  0.5726080000000 1.0
C      1  0.4692270000000  0.5520380000000  0.6064820000000 1.0
C      1  0.5439120000000  0.4403360000000  0.5092640000000 1.0
C      1  0.4313270000000  0.5231910000000  0.4969650000000 1.0
C      1  0.4549460000000  0.5863190000000  0.5049470000000 1.0
C      1  0.5172070000000  0.4672690000000  0.5978500000000 1.0
C      1  0.4768590000000  0.4306370000000  0.4220180000000 1.0
C      1  0.5654280000000  0.5097090000000  0.5009320000000 1.0
C      1  0.3859880000000  0.5625020000000  0.5042740000000 1.0
C      1  0.5205450000000  0.6033820000000  0.4729580000000 1.0
C      1  0.4937640000000  0.6017050000000  0.4251390000000 1.0
C      1  0.5477040000000  0.5331090000000  0.5098130000000 1.0
C      1  0.4655850000000  0.4968780000000  0.4704440000000 1.0
C      1  0.5728680000000  0.4392350000000  0.5598240000000 1.0
C      1  0.6044270000000  0.5453920000000  0.5309790000000 1.0
C      1  0.5014590000000  0.4920350000000  0.5970500000000 1.0
C      1  0.5549360000000  0.5522900000000  0.4652250000000 1.0
C      1  0.5530580000000  0.5699750000000  0.5764990000000 1.0
C      1  0.4167380000000  0.4582990000000  0.4590670000000 1.0
C      1  0.5678010000000  0.5016660000000  0.4181300000000 1.0
C      1  0.4777870000000  0.5956120000000  0.5182220000000 1.0
C      1  0.5106290000000  0.5423750000000  0.4078520000000 1.0
C      1  0.5469030000000  0.4325730000000  0.4354270000000 1.0
C      1  0.4427820000000  0.5672170000000  0.5470180000000 1.0
C      1  0.4931110000000  0.4472860000000  0.4022740000000 1.0
C      1  0.4755180000000  0.5589090000000  0.4367880000000 1.0
C      1  0.4564260000000  0.5655300000000  0.4832930000000 1.0
C      1  0.5029450000000  0.4414240000000  0.5993210000000 1.0
C      1  0.5081770000000  0.3956080000000  0.4879280000000 1.0
C      1  0.4016230000000  0.4947990000000  0.5752670000000 1.0
C      1  0.5168510000000  0.5377550000000  0.5053230000000 1.0
C      1  0.4660760000000  0.4259680000000  0.5293340000000 1.0
C      1  0.5279960000000  0.5656810000000  0.4105390000000 1.0
C      1  0.4317200000000  0.4921390000000  0.5372430000000 1.0
C      1  0.5527350000000  0.4529800000000  0.4131960000000 1.0
C      1  0.5263560000000  0.5188390000000  0.4029080000000 1.0
C      1  0.5880020000000  0.4954470000000  0.4380160000000 1.0
C      1  0.4709070000000  0.5847620000000  0.4252110000000 1.0
C      1  0.4241400000000  0.4822080000000  0.5640300000000 1.0
C      1  0.4690240000000  0.4017110000000  0.5157100000000 1.0
C      1  0.4461100000000  0.4669580000000  0.5741040000000 1.0
C      1  0.5109810000000  0.4464400000000  0.4706620000000 1.0
C      1  0.4377160000000  0.5031160000000  0.4773510000000 1.0
C      1  0.4619880000000  0.4469930000000  0.4816060000000 1.0
C      1  0.5060890000000  0.4605160000000  0.4950500000000 1.0
C      1  0.5551550000000  0.5261280000000  0.4083980000000 1.0
C      1  0.5638340000000  0.4612560000000  0.4974380000000 1.0
C      1  0.5202890000000  0.5890960000000  0.4248870000000 1.0
C      1  0.5635630000000  0.5184740000000  0.5819630000000 1.0
C      1  0.4492170000000  0.5374580000000  0.5446620000000 1.0
C      1  0.5905230000000  0.5169720000000  0.4891650000000 1.0
C      1  0.4420800000000  0.4787980000000  0.4161400000000 1.0
C      1  0.4273970000000  0.5207200000000  0.5277500000000 1.0
C      1  0.5320310000000  0.4938430000000  0.4722830000000 1.0
C      1  0.5026260000000  0.6248240000000  0.4670830000000 1.0
C      1  0.4467180000000  0.5921890000000  0.4150700000000 1.0
C      1  0.5584000000000  0.4966830000000  0.5997400000000 1.0
C      1  0.5596470000000  0.4844500000000  0.5441650000000 1.0
C      1  0.4980750000000  0.4761280000000  0.3984920000000 1.0
C      1  0.4503990000000  0.4003610000000  0.4941470000000 1.0
C      1  0.6241630000000  0.5636040000000  0.5374990000000 1.0
C      1  0.3626830000000  0.4933590000000  0.5157920000000 1.0
C      1  0.3667950000000  0.5438340000000  0.5038630000000 1.0
C      1  0.5749370000000  0.4241460000000  0.4413070000000 1.0
C      1  0.5822050000000  0.4185960000000  0.5139690000000 1.0
C      1  0.4180450000000  0.3979900000000  0.5325850000000 1.0
C      1  0.4586450000000  0.4709390000000  0.4350650000000 1.0
C      1  0.5953930000000  0.4423330000000  0.4407860000000 1.0
C      1  0.4490220000000  0.4426360000000  0.5888240000000 1.0
C      1  0.4917290000000  0.6249400000000  0.4419470000000 1.0
C      1  0.5139800000000  0.4615810000000  0.5418880000000 1.0
C      1  0.4975090000000  0.5495940000000  0.5240080000000 1.0
C      1  0.5368000000000  0.3971670000000  0.4903600000000 1.0
C      1  0.3988740000000  0.4573020000000  0.5260400000000 1.0
C      1  0.4699970000000  0.5188780000000  0.4045260000000 1.0
C      1  0.4905020000000  0.4068150000000  0.4657900000000 1.0
C      1  0.5912260000000  0.5844710000000  0.4606380000000 1.0
C      1  0.4833160000000  0.4287780000000  0.5507680000000 1.0
C      1  0.5362940000000  0.4487130000000  0.4581280000000 1.0
C      1  0.5002930000000  0.5790160000000  0.5168090000000 1.0
C      1  0.6361250000000  0.5207410000000  0.5038400000000 1.0
C      1  0.5551400000000  0.5104510000000  0.5546350000000 1.0
C      1  0.5551740000000  0.5551040000000  0.4057660000000 1.0
C      1  0.5637000000000  0.5914700000000  0.5297890000000 1.0
C      1  0.4753280000000  0.5743430000000  0.5894480000000 1.0
C      1  0.5882330000000  0.5932470000000  0.4862440000000 1.0
C      1  0.5887310000000  0.4434370000000  0.4987790000000 1.0
C      1  0.4561330000000  0.5798940000000  0.5689860000000 1.0
C      1  0.4134700000000  0.5669130000000  0.5050760000000 1.0
C      1  0.5493400000000  0.4800660000000  0.4095860000000 1.0
C      1  0.4651430000000  0.4687690000000  0.4627200000000 1.0
C      1  0.5542500000000  0.4136850000000  0.5053320000000 1.0
C      1  0.5843860000000  0.4220360000000  0.5422830000000 1.0
C      1  0.5125440000000  0.5120740000000  0.5805880000000 1.0
C      1  0.5586000000000  0.4632740000000  0.5645250000000 1.0
C      1  0.4740110000000  0.4406270000000  0.6033270000000 1.0
C      1  0.4202110000000  0.4493560000000  0.5095810000000 1.0
C      1  0.5566990000000  0.5331900000000  0.5374340000000 1.0
C      1  0.5502480000000  0.4705400000000  0.4708690000000 1.0
C      1  0.5989040000000  0.4689640000000  0.4379120000000 1.0
C      1  0.5153780000000  0.4288750000000  0.3981740000000 1.0
C      1  0.4314590000000  0.5505140000000  0.4882730000000 1.0
C      1  0.5253650000000  0.5643390000000  0.5819240000000 1.0
C      1  0.5345150000000  0.5959360000000  0.4488950000000 1.0
C      1  0.4683240000000  0.4716320000000  0.5560790000000 1.0
C      1  0.4251100000000  0.3951070000000  0.5062770000000 1.0
C      1  0.4171840000000  0.4876970000000  0.4622790000000 1.0
C      1  0.5758950000000  0.5698050000000  0.3959000000000 1.0
C      1  0.5458900000000  0.4718200000000  0.5900080000000 1.0
C      1  0.5183980000000  0.5143240000000  0.4575710000000 1.0
C      1  0.4789370000000  0.5579150000000  0.4661930000000 1.0
C      1  0.5178850000000  0.5377050000000  0.5773470000000 1.0
C      1  0.5128600000000  0.4179490000000  0.5852840000000 1.0
C      1  0.4905660000000  0.4555030000000  0.5550710000000 1.0
END
