TITL C-247196-3112-329 -1.86315553004631e-06 125000 -1103.42053587165 0 0 180 (C1) n - 1
REM
REM in /home/nfs/bkarasulu/CARBON/AIRSS/Generating-Clusters/LCBOP/Only-C1/SD-CG/FIRE-HFTN
REM
REM
REM
REM
REM
REM ./C.cell (11c1c37f851c82e70ff6c80c92926a4b)
REM AIRSS Version 0.9.1 bugfix July 2018 build 013d7b7c2542+ Fri, 06 Jul 2018 19:26:36 +0100
REM compiler GCC version 9.2.1 20190827 (Red Hat 9.2.1-1)
REM options -cpp -mtune=generic -march=x86-64 -g -O0 -fpre-include=/usr/include/finclude/math-vector-fortran.h
REM seed 881830386 -579930441 2068156820 -444004283 329036480 1347177717 -375651234 1398505705 -548340146 74637836 -1998374867 -809759849 194027201 1912959319 1511750493 1154399635 -1296400896 1084764726 -1901712930 1131117857 -1638788644 -310099569 766047627 -1211942724 600037786 1692524166 -1993864117 -1532247061 -1469759127 -916720102 394373451 -1516967142 -2062876826
REM
CELL 1.54180   50.00000   50.00000   50.00000   90.00000   90.00000   90.00000
LATT -1
SFAC C  
C      1  0.5160720000000  0.4962880000000  0.4941290000000 1.0
C      1  0.5416770000000  0.5831860000000  0.4302170000000 1.0
C      1  0.5387040000000  0.6024230000000  0.4753340000000 1.0
C      1  0.5454900000000  0.4412160000000  0.6068410000000 1.0
C      1  0.5856790000000  0.5598960000000  0.5050690000000 1.0
C      1  0.5159150000000  0.5461480000000  0.4756500000000 1.0
C      1  0.4806710000000  0.4429300000000  0.4430480000000 1.0
C      1  0.4741370000000  0.5549140000000  0.5417110000000 1.0
C      1  0.3890610000000  0.4791900000000  0.4246690000000 1.0
C      1  0.4251820000000  0.5577990000000  0.4577290000000 1.0
C      1  0.5601130000000  0.4672790000000  0.5658260000000 1.0
C      1  0.5076830000000  0.4483890000000  0.5276580000000 1.0
C      1  0.5549710000000  0.5977270000000  0.4516040000000 1.0
C      1  0.4297180000000  0.4781160000000  0.5603480000000 1.0
C      1  0.5270300000000  0.3916870000000  0.4580250000000 1.0
C      1  0.4464540000000  0.4144950000000  0.5074100000000 1.0
C      1  0.4240890000000  0.5292480000000  0.5192690000000 1.0
C      1  0.4951320000000  0.5794100000000  0.4078510000000 1.0
C      1  0.6000050000000  0.5968620000000  0.4328510000000 1.0
C      1  0.5410100000000  0.4425420000000  0.4896010000000 1.0
C      1  0.5852380000000  0.5215600000000  0.3895060000000 1.0
C      1  0.6418800000000  0.5107880000000  0.4204000000000 1.0
C      1  0.5464330000000  0.5467410000000  0.4744360000000 1.0
C      1  0.4310320000000  0.5355000000000  0.4165300000000 1.0
C      1  0.5402660000000  0.4383050000000  0.4038700000000 1.0
C      1  0.5533350000000  0.5585290000000  0.4222480000000 1.0
C      1  0.6084260000000  0.5521980000000  0.4906940000000 1.0
C      1  0.5312310000000  0.4168440000000  0.4465750000000 1.0
C      1  0.4527610000000  0.4455570000000  0.3915040000000 1.0
C      1  0.4110580000000  0.5008270000000  0.4811890000000 1.0
C      1  0.4456940000000  0.4861370000000  0.4477770000000 1.0
C      1  0.5809440000000  0.4225830000000  0.5769310000000 1.0
C      1  0.4740910000000  0.4187210000000  0.5106380000000 1.0
C      1  0.6406970000000  0.5357790000000  0.4114540000000 1.0
C      1  0.6131370000000  0.4639370000000  0.4748950000000 1.0
C      1  0.4740650000000  0.5208050000000  0.4742650000000 1.0
C      1  0.4194270000000  0.4219430000000  0.5581530000000 1.0
C      1  0.4830690000000  0.4564970000000  0.4752340000000 1.0
C      1  0.5630450000000  0.4853860000000  0.4112780000000 1.0
C      1  0.5089080000000  0.3640140000000  0.4942370000000 1.0
C      1  0.3919360000000  0.5097300000000  0.5535650000000 1.0
C      1  0.4110550000000  0.5650590000000  0.4816270000000 1.0
C      1  0.4506080000000  0.5587290000000  0.5807720000000 1.0
C      1  0.4597580000000  0.4639620000000  0.5172960000000 1.0
C      1  0.4094890000000  0.4499010000000  0.4984360000000 1.0
C      1  0.5805930000000  0.6094210000000  0.4485960000000 1.0
C      1  0.5385510000000  0.3960160000000  0.5506460000000 1.0
C      1  0.5142850000000  0.3816050000000  0.5441090000000 1.0
C      1  0.5232580000000  0.5775670000000  0.5199230000000 1.0
C      1  0.4327900000000  0.3869420000000  0.4671360000000 1.0
C      1  0.5137280000000  0.6024630000000  0.5325200000000 1.0
C      1  0.6260660000000  0.5331590000000  0.4847230000000 1.0
C      1  0.5140280000000  0.4678900000000  0.5464550000000 1.0
C      1  0.4519770000000  0.6005720000000  0.5529590000000 1.0
C      1  0.5760170000000  0.5144310000000  0.5843880000000 1.0
C      1  0.4175850000000  0.5345350000000  0.4418840000000 1.0
C      1  0.3650140000000  0.4904690000000  0.4815690000000 1.0
C      1  0.5615390000000  0.4895130000000  0.5882440000000 1.0
C      1  0.5309010000000  0.5313500000000  0.6299000000000 1.0
C      1  0.4034260000000  0.5120780000000  0.4547600000000 1.0
C      1  0.5863670000000  0.6332060000000  0.4608830000000 1.0
C      1  0.6053260000000  0.4677510000000  0.5026580000000 1.0
C      1  0.4626740000000  0.4724510000000  0.4895980000000 1.0
C      1  0.4127610000000  0.4060810000000  0.4745190000000 1.0
C      1  0.6279190000000  0.4865700000000  0.4645220000000 1.0
C      1  0.4499460000000  0.5206320000000  0.5210900000000 1.0
C      1  0.4570770000000  0.3972490000000  0.4556170000000 1.0
C      1  0.4063080000000  0.5212840000000  0.4995640000000 1.0
C      1  0.6240950000000  0.5175760000000  0.6090100000000 1.0
C      1  0.5053220000000  0.6139550000000  0.4414530000000 1.0
C      1  0.4935100000000  0.4849220000000  0.5869940000000 1.0
C      1  0.4953950000000  0.6196780000000  0.5412100000000 1.0
C      1  0.5096670000000  0.4813920000000  0.4367710000000 1.0
C      1  0.5702780000000  0.5128480000000  0.4108870000000 1.0
C      1  0.4592030000000  0.4953810000000  0.4709130000000 1.0
C      1  0.6319280000000  0.5608350000000  0.4120200000000 1.0
C      1  0.5113690000000  0.5081690000000  0.4437860000000 1.0
C      1  0.5004420000000  0.5537850000000  0.4494010000000 1.0
C      1  0.5004370000000  0.4119950000000  0.5008560000000 1.0
C      1  0.3653100000000  0.4647430000000  0.4947860000000 1.0
C      1  0.5110240000000  0.3662610000000  0.5209340000000 1.0
C      1  0.5853550000000  0.4003680000000  0.5621110000000 1.0
C      1  0.5838680000000  0.5583140000000  0.5605050000000 1.0
C      1  0.5666880000000  0.5369510000000  0.5683160000000 1.0
C      1  0.4538360000000  0.5729730000000  0.5558930000000 1.0
C      1  0.5423690000000  0.5344850000000  0.5531780000000 1.0
C      1  0.4556830000000  0.4254600000000  0.4473940000000 1.0
C      1  0.5488240000000  0.4311410000000  0.3790270000000 1.0
C      1  0.6174960000000  0.5815910000000  0.4200670000000 1.0
C      1  0.5008680000000  0.4601690000000  0.5992180000000 1.0
C      1  0.5567180000000  0.4642450000000  0.5003540000000 1.0
C      1  0.5620760000000  0.5324060000000  0.4303730000000 1.0
C      1  0.4799560000000  0.5509250000000  0.5873100000000 1.0
C      1  0.5607250000000  0.5636110000000  0.4923950000000 1.0
C      1  0.6298980000000  0.5057070000000  0.4866370000000 1.0
C      1  0.4985060000000  0.5070690000000  0.5170800000000 1.0
C      1  0.3722010000000  0.5135220000000  0.5313840000000 1.0
C      1  0.5484720000000  0.4622460000000  0.4177410000000 1.0
C      1  0.4745010000000  0.4295280000000  0.3964710000000 1.0
C      1  0.4280530000000  0.4651570000000  0.4559060000000 1.0
C      1  0.5229160000000  0.5552580000000  0.5489270000000 1.0
C      1  0.4446830000000  0.4349640000000  0.5559760000000 1.0
C      1  0.5954040000000  0.5752480000000  0.5793850000000 1.0
C      1  0.4158060000000  0.4719170000000  0.4805920000000 1.0
C      1  0.4972340000000  0.5551400000000  0.5624710000000 1.0
C      1  0.4426460000000  0.4611390000000  0.5400150000000 1.0
C      1  0.4931580000000  0.4265530000000  0.4186000000000 1.0
C      1  0.3631700000000  0.5089660000000  0.5052530000000 1.0
C      1  0.5060120000000  0.4696640000000  0.4836670000000 1.0
C      1  0.4189220000000  0.5565890000000  0.5275150000000 1.0
C      1  0.5550850000000  0.4381670000000  0.5785070000000 1.0
C      1  0.4940960000000  0.3939130000000  0.5610360000000 1.0
C      1  0.4551050000000  0.5781860000000  0.5011200000000 1.0
C      1  0.3855460000000  0.4558800000000  0.5130650000000 1.0
C      1  0.4476440000000  0.5193860000000  0.6028600000000 1.0
C      1  0.4209970000000  0.4227360000000  0.4970300000000 1.0
C      1  0.5398900000000  0.5080860000000  0.5434080000000 1.0
C      1  0.5653830000000  0.3880860000000  0.5486390000000 1.0
C      1  0.5215410000000  0.4224530000000  0.4197250000000 1.0
C      1  0.5443030000000  0.5860190000000  0.4990040000000 1.0
C      1  0.5029030000000  0.4183990000000  0.5743120000000 1.0
C      1  0.5622780000000  0.5033970000000  0.4725800000000 1.0
C      1  0.4437710000000  0.4692670000000  0.5849870000000 1.0
C      1  0.5069820000000  0.5155850000000  0.4733620000000 1.0
C      1  0.5229490000000  0.5104430000000  0.6143780000000 1.0
C      1  0.4073750000000  0.4222550000000  0.4517460000000 1.0
C      1  0.6207190000000  0.4913460000000  0.5099880000000 1.0
C      1  0.4841420000000  0.4703410000000  0.4293850000000 1.0
C      1  0.5468200000000  0.4904800000000  0.4925640000000 1.0
C      1  0.4760410000000  0.5264430000000  0.6025890000000 1.0
C      1  0.5595540000000  0.5272440000000  0.4584200000000 1.0
C      1  0.4298290000000  0.4388340000000  0.4462920000000 1.0
C      1  0.5810520000000  0.4628100000000  0.5442040000000 1.0
C      1  0.5047140000000  0.5615140000000  0.5012070000000 1.0
C      1  0.4798280000000  0.4442310000000  0.5229690000000 1.0
C      1  0.5320800000000  0.4200210000000  0.5668420000000 1.0
C      1  0.4047150000000  0.5569960000000  0.5516670000000 1.0
C      1  0.4111670000000  0.4727130000000  0.4088740000000 1.0
C      1  0.4877960000000  0.5059100000000  0.5421210000000 1.0
C      1  0.4945680000000  0.4848750000000  0.5588530000000 1.0
C      1  0.5213990000000  0.4314480000000  0.5074630000000 1.0
C      1  0.4729870000000  0.5649400000000  0.4018330000000 1.0
C      1  0.4400820000000  0.4680830000000  0.4041380000000 1.0
C      1  0.6365790000000  0.4924800000000  0.4389210000000 1.0
C      1  0.4803810000000  0.3818350000000  0.4581880000000 1.0
C      1  0.3952430000000  0.4340400000000  0.5548970000000 1.0
C      1  0.5059180000000  0.3764640000000  0.4689940000000 1.0
C      1  0.4763860000000  0.5580620000000  0.5111090000000 1.0
C      1  0.5272100000000  0.4621270000000  0.6109420000000 1.0
C      1  0.4070440000000  0.5327210000000  0.5676340000000 1.0
C      1  0.4021430000000  0.4826650000000  0.5542420000000 1.0
C      1  0.4866210000000  0.4380850000000  0.5872980000000 1.0
C      1  0.4581680000000  0.4811310000000  0.4230800000000 1.0
C      1  0.3925610000000  0.5445030000000  0.4889170000000 1.0
C      1  0.4266460000000  0.5732690000000  0.5056150000000 1.0
C      1  0.5096370000000  0.5333930000000  0.4303150000000 1.0
C      1  0.4526480000000  0.5657530000000  0.4564600000000 1.0
C      1  0.5029010000000  0.6341240000000  0.4858700000000 1.0
C      1  0.4968710000000  0.5080020000000  0.6030230000000 1.0
C      1  0.5877580000000  0.5624820000000  0.5329910000000 1.0
C      1  0.5145830000000  0.5922770000000  0.4245500000000 1.0
C      1  0.5388430000000  0.4801740000000  0.5486970000000 1.0
C      1  0.6060400000000  0.5906250000000  0.5975380000000 1.0
C      1  0.4879710000000  0.6325620000000  0.4311240000000 1.0
C      1  0.4513800000000  0.5487260000000  0.4041880000000 1.0
C      1  0.5366900000000  0.4415760000000  0.4606380000000 1.0
C      1  0.5327860000000  0.4645160000000  0.4418850000000 1.0
C      1  0.4706510000000  0.5288070000000  0.5016350000000 1.0
C      1  0.4593330000000  0.5867020000000  0.4743380000000 1.0
C      1  0.4588160000000  0.4438380000000  0.5804330000000 1.0
C      1  0.5147980000000  0.6165670000000  0.4686410000000 1.0
C      1  0.6009350000000  0.5165720000000  0.5971030000000 1.0
C      1  0.5398310000000  0.4882380000000  0.6080230000000 1.0
C      1  0.4657730000000  0.5235580000000  0.5446410000000 1.0
C      1  0.5810230000000  0.4623870000000  0.5156880000000 1.0
C      1  0.4311160000000  0.5360250000000  0.5856110000000 1.0
C      1  0.3812840000000  0.4945620000000  0.4483440000000 1.0
C      1  0.4696490000000  0.6201430000000  0.5483780000000 1.0
C      1  0.3892420000000  0.4588500000000  0.5416980000000 1.0
C      1  0.4726630000000  0.5458160000000  0.4557930000000 1.0
END
