TITL C-247196-3112-404 1.14587552741834 125000 -764.523204068014 0 0 126 (C1) n - 1
REM
REM in /home/nfs/bkarasulu/CARBON/AIRSS/Generating-Clusters/LCBOP/Only-C1/SD-CG/FIRE-HFTN
REM
REM
REM
REM
REM
REM ./C.cell (11c1c37f851c82e70ff6c80c92926a4b)
REM AIRSS Version 0.9.1 bugfix July 2018 build 013d7b7c2542+ Fri, 06 Jul 2018 19:26:36 +0100
REM compiler GCC version 9.2.1 20190827 (Red Hat 9.2.1-1)
REM options -cpp -mtune=generic -march=x86-64 -g -O0 -fpre-include=/usr/include/finclude/math-vector-fortran.h
REM seed -450033718 1904862512 269740692 217122784 -1460856489 1551036055 855766124 -929796789 1069468227 -2083102046 1250235468 1622525488 1190342684 835303296 957554624 -872358356 -1090858355 1443023771 1257422708 1131897904 1978199431 1872632408 -1215129453 -709707628 1932617903 -1453004554 -1762741725 2097999878 442159841 -133206197 81000060 267809068 -2020453791
REM
CELL 1.54180   50.00000   50.00000   50.00000   90.00000   90.00000   90.00000
LATT -1
SFAC C  
C      1  0.5112940000000  0.5864720000000  0.5178460000000 1.0
C      1  0.4281740000000  0.4631990000000  0.4342950000000 1.0
C      1  0.5373160000000  0.5988510000000  0.4457810000000 1.0
C      1  0.5320200000000  0.4429640000000  0.4800700000000 1.0
C      1  0.4030290000000  0.5577010000000  0.4855260000000 1.0
C      1  0.3722860000000  0.4941550000000  0.4792390000000 1.0
C      1  0.4911800000000  0.5378910000000  0.5092450000000 1.0
C      1  0.4669800000000  0.5192510000000  0.4419640000000 1.0
C      1  0.4362870000000  0.4291160000000  0.4727570000000 1.0
C      1  0.4330300000000  0.4881590000000  0.5758560000000 1.0
C      1  0.4961930000000  0.4940960000000  0.4887040000000 1.0
C      1  0.4522400000000  0.4067860000000  0.4811790000000 1.0
C      1  0.5222220000000  0.5462150000000  0.4796920000000 1.0
C      1  0.5556300000000  0.5796340000000  0.4863040000000 1.0
C      1  0.4848690000000  0.4709910000000  0.4412970000000 1.0
C      1  0.4051020000000  0.4629100000000  0.4897140000000 1.0
C      1  0.4387940000000  0.5153970000000  0.4365110000000 1.0
C      1  0.5419890000000  0.4509580000000  0.3923270000000 1.0
C      1  0.5803410000000  0.4602790000000  0.4855480000000 1.0
C      1  0.5350770000000  0.4777810000000  0.3968430000000 1.0
C      1  0.5715910000000  0.4865580000000  0.4258910000000 1.0
C      1  0.4830260000000  0.4977860000000  0.4325880000000 1.0
C      1  0.5167310000000  0.4110510000000  0.5695990000000 1.0
C      1  0.3968600000000  0.5092850000000  0.4791270000000 1.0
C      1  0.5027230000000  0.4658450000000  0.5384310000000 1.0
C      1  0.5204910000000  0.4734160000000  0.5829610000000 1.0
C      1  0.4659090000000  0.4648270000000  0.4615920000000 1.0
C      1  0.5521940000000  0.4629720000000  0.4832070000000 1.0
C      1  0.3957850000000  0.5560180000000  0.5127950000000 1.0
C      1  0.5530150000000  0.5526280000000  0.4402660000000 1.0
C      1  0.4672940000000  0.6234690000000  0.4655830000000 1.0
C      1  0.5020920000000  0.5414000000000  0.5696110000000 1.0
C      1  0.5336930000000  0.5906470000000  0.5010260000000 1.0
C      1  0.4416080000000  0.4452370000000  0.5166450000000 1.0
C      1  0.5335470000000  0.5238410000000  0.3758750000000 1.0
C      1  0.6055470000000  0.5283260000000  0.5042070000000 1.0
C      1  0.4232370000000  0.4421280000000  0.4948520000000 1.0
C      1  0.4915510000000  0.5342400000000  0.5946350000000 1.0
C      1  0.4818670000000  0.5129580000000  0.6075810000000 1.0
C      1  0.5496580000000  0.5252450000000  0.4489850000000 1.0
C      1  0.5029980000000  0.6089100000000  0.5335180000000 1.0
C      1  0.5375420000000  0.3622490000000  0.5808200000000 1.0
C      1  0.4292680000000  0.4896930000000  0.4282880000000 1.0
C      1  0.5047540000000  0.4515100000000  0.4377750000000 1.0
C      1  0.5471580000000  0.3385710000000  0.5859680000000 1.0
C      1  0.5233960000000  0.5259410000000  0.5591160000000 1.0
C      1  0.5144820000000  0.4370080000000  0.5014150000000 1.0
C      1  0.6067010000000  0.5018510000000  0.4988010000000 1.0
C      1  0.4702920000000  0.5666760000000  0.4471920000000 1.0
C      1  0.4895010000000  0.5604870000000  0.5531350000000 1.0
C      1  0.4174020000000  0.4898050000000  0.4867690000000 1.0
C      1  0.5755140000000  0.4811710000000  0.5286730000000 1.0
C      1  0.4867570000000  0.6075720000000  0.5552050000000 1.0
C      1  0.5460940000000  0.5168680000000  0.5752140000000 1.0
C      1  0.5930320000000  0.4441370000000  0.4666270000000 1.0
C      1  0.4436110000000  0.4489290000000  0.4534120000000 1.0
C      1  0.5946100000000  0.4292830000000  0.4427020000000 1.0
C      1  0.3770970000000  0.4675100000000  0.4851500000000 1.0
C      1  0.4681560000000  0.4543800000000  0.5087860000000 1.0
C      1  0.4423920000000  0.4940050000000  0.4996740000000 1.0
C      1  0.4699030000000  0.4065430000000  0.5544970000000 1.0
C      1  0.4737820000000  0.5830070000000  0.5612790000000 1.0
C      1  0.5023570000000  0.5095720000000  0.5163080000000 1.0
C      1  0.5572810000000  0.4287270000000  0.4006540000000 1.0
C      1  0.5440110000000  0.4897930000000  0.4811110000000 1.0
C      1  0.4822860000000  0.4397990000000  0.5903990000000 1.0
C      1  0.5742890000000  0.4305540000000  0.4231430000000 1.0
C      1  0.4266480000000  0.5852560000000  0.5395250000000 1.0
C      1  0.5316830000000  0.4326920000000  0.5594320000000 1.0
C      1  0.5277090000000  0.3862790000000  0.5755520000000 1.0
C      1  0.4384900000000  0.5004200000000  0.5273290000000 1.0
C      1  0.4319040000000  0.6025740000000  0.5177270000000 1.0
C      1  0.5221410000000  0.4388080000000  0.4538940000000 1.0
C      1  0.5843220000000  0.4662340000000  0.5509530000000 1.0
C      1  0.4681850000000  0.4783210000000  0.4889480000000 1.0
C      1  0.5872800000000  0.5466940000000  0.5162460000000 1.0
C      1  0.4899740000000  0.4913040000000  0.5369270000000 1.0
C      1  0.4964720000000  0.4659900000000  0.5967280000000 1.0
C      1  0.5435580000000  0.4880390000000  0.4218930000000 1.0
C      1  0.6231850000000  0.4964670000000  0.4272510000000 1.0
C      1  0.5573080000000  0.5030200000000  0.5334760000000 1.0
C      1  0.4891170000000  0.4172340000000  0.5733570000000 1.0
C      1  0.5668520000000  0.4778530000000  0.5953680000000 1.0
C      1  0.5514720000000  0.5557260000000  0.4121050000000 1.0
C      1  0.5976810000000  0.4912860000000  0.4258000000000 1.0
C      1  0.5662200000000  0.5564190000000  0.4995890000000 1.0
C      1  0.4974720000000  0.5612710000000  0.5253830000000 1.0
C      1  0.4406360000000  0.6245030000000  0.4742280000000 1.0
C      1  0.4152540000000  0.5820330000000  0.4778990000000 1.0
C      1  0.5292680000000  0.5044120000000  0.4410190000000 1.0
C      1  0.3965960000000  0.5056960000000  0.5503400000000 1.0
C      1  0.5907530000000  0.4791390000000  0.5043450000000 1.0
C      1  0.4913590000000  0.6220130000000  0.4543880000000 1.0
C      1  0.4296060000000  0.6033740000000  0.4896030000000 1.0
C      1  0.4945620000000  0.4482050000000  0.5178840000000 1.0
C      1  0.5834980000000  0.4659680000000  0.5777770000000 1.0
C      1  0.4736810000000  0.5020900000000  0.5554510000000 1.0
C      1  0.5555630000000  0.4051520000000  0.3868430000000 1.0
C      1  0.5291200000000  0.5138100000000  0.5314660000000 1.0
C      1  0.4042450000000  0.5345750000000  0.4693970000000 1.0
C      1  0.5153550000000  0.6139380000000  0.4462110000000 1.0
C      1  0.4458280000000  0.5822580000000  0.5597050000000 1.0
C      1  0.4743150000000  0.3957630000000  0.5282380000000 1.0
C      1  0.4337220000000  0.4359230000000  0.5417210000000 1.0
C      1  0.5566780000000  0.5153090000000  0.4760070000000 1.0
C      1  0.4199510000000  0.5338840000000  0.4460650000000 1.0
C      1  0.4770820000000  0.5418840000000  0.4573730000000 1.0
C      1  0.4230440000000  0.4983410000000  0.5512840000000 1.0
C      1  0.4499600000000  0.4756660000000  0.5944340000000 1.0
C      1  0.5678500000000  0.5206370000000  0.5555110000000 1.0
C      1  0.4543050000000  0.4470990000000  0.5946540000000 1.0
C      1  0.4435980000000  0.4165340000000  0.5573900000000 1.0
C      1  0.5471220000000  0.5369230000000  0.4912690000000 1.0
C      1  0.4941650000000  0.5423810000000  0.4806260000000 1.0
C      1  0.5426990000000  0.4912950000000  0.5888440000000 1.0
C      1  0.4657140000000  0.3963550000000  0.5024150000000 1.0
C      1  0.4056960000000  0.5669090000000  0.5353100000000 1.0
C      1  0.5518410000000  0.5771710000000  0.4569850000000 1.0
C      1  0.4250640000000  0.6461100000000  0.4678210000000 1.0
C      1  0.5429650000000  0.5451320000000  0.3890680000000 1.0
C      1  0.5220440000000  0.4591930000000  0.5579480000000 1.0
C      1  0.6164260000000  0.4133010000000  0.4382930000000 1.0
C      1  0.5290580000000  0.4974220000000  0.3776770000000 1.0
C      1  0.5824570000000  0.5422770000000  0.5443340000000 1.0
C      1  0.4760360000000  0.4861170000000  0.6028820000000 1.0
C      1  0.5180760000000  0.4940850000000  0.4680250000000 1.0
END
