TITL C-247195-3186-250 0.265991527199323 125000 -331.861689663657 0 0 56 (C1) n - 1
REM
REM in /home/nfs/bkarasulu/CARBON/AIRSS/Generating-Clusters/LCBOP/Only-C1/SD-CG/FIRE-HFTN
REM
REM
REM
REM
REM
REM ./C.cell (11c1c37f851c82e70ff6c80c92926a4b)
REM AIRSS Version 0.9.1 bugfix July 2018 build 013d7b7c2542+ Fri, 06 Jul 2018 19:26:36 +0100
REM compiler GCC version 9.2.1 20190827 (Red Hat 9.2.1-1)
REM options -cpp -mtune=generic -march=x86-64 -g -O0 -fpre-include=/usr/include/finclude/math-vector-fortran.h
REM seed -1967090914 1638313392 -899399659 -466675271 825481006 -991339724 1522973618 -285938928 -1709565162 -612469552 1178914814 1420567242 -1062028977 -943068284 758632896 -281209075 -1282791630 -1023108593 -1343834675 -1225971923 -822661173 1721273063 -162354379 1752987510 -1468527433 -1200619622 2016279257 -527574147 -896674804 -346405867 -1994775529 -1754138067 -28522058
REM
CELL 1.54180   50.00000   50.00000   50.00000   90.00000   90.00000   90.00000
LATT -1
SFAC C  
C      1  0.5194640000000  0.4617320000000  0.4055180000000 1.0
C      1  0.4436700000000  0.5771900000000  0.4570750000000 1.0
C      1  0.5261710000000  0.5659650000000  0.5118220000000 1.0
C      1  0.5332930000000  0.5321050000000  0.5818720000000 1.0
C      1  0.5085040000000  0.5501120000000  0.4199920000000 1.0
C      1  0.5168420000000  0.5815360000000  0.5352620000000 1.0
C      1  0.5361910000000  0.4398750000000  0.4693170000000 1.0
C      1  0.5044190000000  0.4834580000000  0.4093530000000 1.0
C      1  0.5064340000000  0.4188690000000  0.5050670000000 1.0
C      1  0.4907820000000  0.5768920000000  0.5439320000000 1.0
C      1  0.4272140000000  0.5198160000000  0.4774930000000 1.0
C      1  0.5342580000000  0.4684770000000  0.5501440000000 1.0
C      1  0.4738430000000  0.5563080000000  0.5417120000000 1.0
C      1  0.5265630000000  0.5144350000000  0.5633030000000 1.0
C      1  0.5403260000000  0.5198720000000  0.4407860000000 1.0
C      1  0.5099180000000  0.5638850000000  0.4893000000000 1.0
C      1  0.5623610000000  0.5302070000000  0.5117880000000 1.0
C      1  0.4536260000000  0.4523620000000  0.4902510000000 1.0
C      1  0.4900450000000  0.4886090000000  0.5435490000000 1.0
C      1  0.4245010000000  0.4948870000000  0.4888780000000 1.0
C      1  0.4822050000000  0.4203130000000  0.5170890000000 1.0
C      1  0.5122250000000  0.4280730000000  0.4790190000000 1.0
C      1  0.4473090000000  0.4793580000000  0.4965570000000 1.0
C      1  0.4784420000000  0.5058190000000  0.5240400000000 1.0
C      1  0.5084440000000  0.4346850000000  0.5702540000000 1.0
C      1  0.4868310000000  0.5647330000000  0.4760380000000 1.0
C      1  0.4212310000000  0.4827130000000  0.5654470000000 1.0
C      1  0.5348400000000  0.4437320000000  0.4178750000000 1.0
C      1  0.5530060000000  0.5556000000000  0.5178190000000 1.0
C      1  0.4526850000000  0.5311230000000  0.4707800000000 1.0
C      1  0.4888620000000  0.4313760000000  0.4631590000000 1.0
C      1  0.4707270000000  0.4967920000000  0.4982930000000 1.0
C      1  0.5389610000000  0.5473970000000  0.6022120000000 1.0
C      1  0.4464830000000  0.4766770000000  0.5631930000000 1.0
C      1  0.4595250000000  0.4333110000000  0.5102650000000 1.0
C      1  0.4274640000000  0.5948870000000  0.4469100000000 1.0
C      1  0.4707670000000  0.5314670000000  0.5326550000000 1.0
C      1  0.5176080000000  0.4911710000000  0.5507240000000 1.0
C      1  0.4668670000000  0.4488930000000  0.4647180000000 1.0
C      1  0.4734280000000  0.5110640000000  0.4730020000000 1.0
C      1  0.5410320000000  0.5872150000000  0.5498820000000 1.0
C      1  0.5553150000000  0.4256430000000  0.5601530000000 1.0
C      1  0.4977270000000  0.5032560000000  0.4283320000000 1.0
C      1  0.5621730000000  0.5052580000000  0.5024570000000 1.0
C      1  0.5484610000000  0.4619980000000  0.4817660000000 1.0
C      1  0.5423190000000  0.4353420000000  0.4421340000000 1.0
C      1  0.5559800000000  0.4890450000000  0.4804780000000 1.0
C      1  0.5620240000000  0.5722050000000  0.5398450000000 1.0
C      1  0.4607430000000  0.5580020000000  0.4678570000000 1.0
C      1  0.5538370000000  0.5028290000000  0.4560880000000 1.0
C      1  0.4672620000000  0.4710350000000  0.4474310000000 1.0
C      1  0.5151980000000  0.5255870000000  0.4297860000000 1.0
C      1  0.4733660000000  0.4707800000000  0.5586730000000 1.0
C      1  0.5337070000000  0.4421670000000  0.5602240000000 1.0
C      1  0.4796750000000  0.4964550000000  0.4491220000000 1.0
C      1  0.4848470000000  0.4474040000000  0.5693100000000 1.0
END
