TITL C-247195-3186-594 7.05040893322608 125000 -818.6441089259 0 0 135 (C1) n - 1
REM
REM in /home/nfs/bkarasulu/CARBON/AIRSS/Generating-Clusters/LCBOP/Only-C1/SD-CG/FIRE-HFTN
REM
REM
REM
REM
REM
REM ./C.cell (11c1c37f851c82e70ff6c80c92926a4b)
REM AIRSS Version 0.9.1 bugfix July 2018 build 013d7b7c2542+ Fri, 06 Jul 2018 19:26:36 +0100
REM compiler GCC version 9.2.1 20190827 (Red Hat 9.2.1-1)
REM options -cpp -mtune=generic -march=x86-64 -g -O0 -fpre-include=/usr/include/finclude/math-vector-fortran.h
REM seed 465000015 -441922715 1869256309 -1414977422 -705501655 144421686 -1565886431 986961770 521384030 498695151 -605396027 1480829095 964337475 -2140385462 38271419 -1655940123 -1750347601 -1522874820 1313466915 -999105740 580835992 -93737497 2004558663 -286600977 122568221 2037328376 68152225 1392995291 608444379 2141962440 -756152342 -1052435921 -397862639
REM
CELL 1.54180   50.00000   50.00000   50.00000   90.00000   90.00000   90.00000
LATT -1
SFAC C  
C      1  0.5444210000000  0.4832090000000  0.3656670000000 1.0
C      1  0.5341380000000  0.5222750000000  0.4379860000000 1.0
C      1  0.4644290000000  0.4697240000000  0.5926330000000 1.0
C      1  0.5581560000000  0.3918740000000  0.5558700000000 1.0
C      1  0.4530210000000  0.4181670000000  0.5166900000000 1.0
C      1  0.4301480000000  0.5023040000000  0.5376710000000 1.0
C      1  0.5016070000000  0.4334490000000  0.4371580000000 1.0
C      1  0.5298510000000  0.4222220000000  0.5177280000000 1.0
C      1  0.5820680000000  0.5182810000000  0.5630800000000 1.0
C      1  0.4458430000000  0.5462670000000  0.4759920000000 1.0
C      1  0.6579350000000  0.4591570000000  0.5730680000000 1.0
C      1  0.5386260000000  0.4307760000000  0.5435070000000 1.0
C      1  0.4468440000000  0.5029330000000  0.5618660000000 1.0
C      1  0.5218220000000  0.4702400000000  0.5681920000000 1.0
C      1  0.5233900000000  0.5979010000000  0.5341680000000 1.0
C      1  0.5719120000000  0.5036930000000  0.5173250000000 1.0
C      1  0.5452490000000  0.4173330000000  0.4400920000000 1.0
C      1  0.4868600000000  0.5255850000000  0.4605770000000 1.0
C      1  0.5178520000000  0.4842100000000  0.4110070000000 1.0
C      1  0.4704000000000  0.4421680000000  0.5838040000000 1.0
C      1  0.5341950000000  0.4079090000000  0.5615650000000 1.0
C      1  0.4497630000000  0.4917610000000  0.5187760000000 1.0
C      1  0.5817310000000  0.4297310000000  0.4938320000000 1.0
C      1  0.4585380000000  0.4238850000000  0.3980500000000 1.0
C      1  0.5069540000000  0.4086590000000  0.5702050000000 1.0
C      1  0.4625450000000  0.5671400000000  0.3249810000000 1.0
C      1  0.5714570000000  0.5671770000000  0.4296740000000 1.0
C      1  0.4174440000000  0.4820720000000  0.5944720000000 1.0
C      1  0.4253020000000  0.5463110000000  0.4572730000000 1.0
C      1  0.5309690000000  0.4839250000000  0.3879830000000 1.0
C      1  0.4407740000000  0.4444080000000  0.5184180000000 1.0
C      1  0.4028880000000  0.5212450000000  0.4255370000000 1.0
C      1  0.5259920000000  0.4295380000000  0.4223550000000 1.0
C      1  0.5370640000000  0.3895450000000  0.4812720000000 1.0
C      1  0.5105770000000  0.5820490000000  0.4674950000000 1.0
C      1  0.5888960000000  0.5654370000000  0.4103890000000 1.0
C      1  0.4952690000000  0.4603310000000  0.4755780000000 1.0
C      1  0.5731160000000  0.4073350000000  0.5100050000000 1.0
C      1  0.4490960000000  0.4686800000000  0.4255550000000 1.0
C      1  0.4843670000000  0.5743990000000  0.4764800000000 1.0
C      1  0.5197540000000  0.5178470000000  0.5574110000000 1.0
C      1  0.5059780000000  0.5986790000000  0.5112710000000 1.0
C      1  0.4601270000000  0.4961570000000  0.4208310000000 1.0
C      1  0.4792840000000  0.4052670000000  0.4739050000000 1.0
C      1  0.4440670000000  0.5433340000000  0.5033000000000 1.0
C      1  0.4586760000000  0.5463450000000  0.5247260000000 1.0
C      1  0.5242110000000  0.5323280000000  0.5328350000000 1.0
C      1  0.5015210000000  0.4834280000000  0.4337350000000 1.0
C      1  0.5850380000000  0.5440930000000  0.5738700000000 1.0
C      1  0.6025710000000  0.5480880000000  0.5016930000000 1.0
C      1  0.4067690000000  0.5551620000000  0.5895410000000 1.0
C      1  0.4059060000000  0.4990850000000  0.4688150000000 1.0
C      1  0.4188050000000  0.4497130000000  0.4757270000000 1.0
C      1  0.5527260000000  0.5678980000000  0.4504190000000 1.0
C      1  0.4809990000000  0.5732640000000  0.4176030000000 1.0
C      1  0.5527530000000  0.4694770000000  0.4792430000000 1.0
C      1  0.4305840000000  0.5595640000000  0.4315870000000 1.0
C      1  0.5167560000000  0.4542310000000  0.5917570000000 1.0
C      1  0.5032380000000  0.4639740000000  0.5477320000000 1.0
C      1  0.4595590000000  0.4648180000000  0.5213240000000 1.0
C      1  0.4143380000000  0.4964570000000  0.4153830000000 1.0
C      1  0.5355760000000  0.4955480000000  0.5670200000000 1.0
C      1  0.5618330000000  0.5644640000000  0.4783310000000 1.0
C      1  0.4961440000000  0.6095120000000  0.5774900000000 1.0
C      1  0.5624730000000  0.5007340000000  0.5730560000000 1.0
C      1  0.4300940000000  0.5860640000000  0.5576970000000 1.0
C      1  0.4104360000000  0.5703890000000  0.5197020000000 1.0
C      1  0.4542700000000  0.4274910000000  0.5652400000000 1.0
C      1  0.6084830000000  0.5337520000000  0.5240970000000 1.0
C      1  0.4632640000000  0.4107390000000  0.5429660000000 1.0
C      1  0.5500800000000  0.5829110000000  0.4974160000000 1.0
C      1  0.5682710000000  0.4455920000000  0.4736080000000 1.0
C      1  0.5215260000000  0.5368990000000  0.5058150000000 1.0
C      1  0.4546070000000  0.5954660000000  0.5138490000000 1.0
C      1  0.4731310000000  0.5120220000000  0.5516890000000 1.0
C      1  0.4098090000000  0.5217790000000  0.5357410000000 1.0
C      1  0.5453870000000  0.4027420000000  0.5041280000000 1.0
C      1  0.4137410000000  0.5630150000000  0.5644500000000 1.0
C      1  0.4528010000000  0.5553430000000  0.3460880000000 1.0
C      1  0.4357790000000  0.4266160000000  0.4707240000000 1.0
C      1  0.5787510000000  0.5425550000000  0.4869430000000 1.0
C      1  0.5556680000000  0.4981550000000  0.4727510000000 1.0
C      1  0.4460850000000  0.6001920000000  0.5754240000000 1.0
C      1  0.4978000000000  0.4592040000000  0.4480260000000 1.0
C      1  0.5888890000000  0.4360020000000  0.4306460000000 1.0
C      1  0.5695000000000  0.5832030000000  0.5452200000000 1.0
C      1  0.5803130000000  0.5688460000000  0.5648790000000 1.0
C      1  0.4068180000000  0.5238530000000  0.4544770000000 1.0
C      1  0.5043300000000  0.4720650000000  0.5006760000000 1.0
C      1  0.4170980000000  0.4508490000000  0.5042580000000 1.0
C      1  0.5076930000000  0.5718560000000  0.4221610000000 1.0
C      1  0.5711050000000  0.5145790000000  0.4903450000000 1.0
C      1  0.5677200000000  0.4328940000000  0.4477480000000 1.0
C      1  0.5349880000000  0.4708750000000  0.5030410000000 1.0
C      1  0.4884900000000  0.4616400000000  0.5240790000000 1.0
C      1  0.4984130000000  0.4321750000000  0.5858520000000 1.0
C      1  0.5791460000000  0.4042690000000  0.5385480000000 1.0
C      1  0.4056580000000  0.5494810000000  0.5396700000000 1.0
C      1  0.4431190000000  0.5435810000000  0.3677620000000 1.0
C      1  0.4556780000000  0.4129690000000  0.4874580000000 1.0
C      1  0.4943460000000  0.5007800000000  0.5012140000000 1.0
C      1  0.4568390000000  0.4451030000000  0.4131160000000 1.0
C      1  0.4548140000000  0.5722990000000  0.4241230000000 1.0
C      1  0.4400340000000  0.5068940000000  0.4027100000000 1.0
C      1  0.6353810000000  0.4482680000000  0.5658320000000 1.0
C      1  0.4312290000000  0.5891730000000  0.5284350000000 1.0
C      1  0.4849650000000  0.4858700000000  0.6057130000000 1.0
C      1  0.4725370000000  0.5498730000000  0.4674970000000 1.0
C      1  0.4167760000000  0.5439340000000  0.4115410000000 1.0
C      1  0.5247440000000  0.5737580000000  0.4447850000000 1.0
C      1  0.4795860000000  0.5898640000000  0.5018200000000 1.0
C      1  0.4421480000000  0.4848000000000  0.5831320000000 1.0
C      1  0.4938920000000  0.5180650000000  0.5694410000000 1.0
C      1  0.5498260000000  0.5881630000000  0.5262280000000 1.0
C      1  0.5002040000000  0.4106000000000  0.4559410000000 1.0
C      1  0.4702160000000  0.6081320000000  0.5831920000000 1.0
C      1  0.4819560000000  0.5048460000000  0.4383820000000 1.0
C      1  0.4884200000000  0.5337750000000  0.6154650000000 1.0
C      1  0.4891690000000  0.5132120000000  0.5974600000000 1.0
C      1  0.5094910000000  0.5196560000000  0.4827090000000 1.0
C      1  0.5077250000000  0.4705510000000  0.6131610000000 1.0
C      1  0.5512730000000  0.4847620000000  0.5222890000000 1.0
C      1  0.4345060000000  0.5326040000000  0.3914900000000 1.0
C      1  0.5245860000000  0.5937910000000  0.4887640000000 1.0
C      1  0.4211790000000  0.4735580000000  0.4321880000000 1.0
C      1  0.6121910000000  0.4378880000000  0.5583220000000 1.0
C      1  0.4750040000000  0.5072700000000  0.5221370000000 1.0
C      1  0.5872410000000  0.4299000000000  0.5498310000000 1.0
C      1  0.4874020000000  0.3981350000000  0.5515850000000 1.0
C      1  0.5327600000000  0.5120420000000  0.4633270000000 1.0
C      1  0.5900380000000  0.5154750000000  0.5358750000000 1.0
C      1  0.4132770000000  0.4727090000000  0.4595520000000 1.0
C      1  0.5628080000000  0.4448810000000  0.5495070000000 1.0
C      1  0.5153520000000  0.6052180000000  0.5596570000000 1.0
C      1  0.5279490000000  0.4013190000000  0.4578260000000 1.0
END
