TITL C-247198-3593-595 0.00210427051950382 125000 -1199.61900328856 0 0 196 (C1) n - 1
REM
REM in /home/nfs/bkarasulu/CARBON/AIRSS/Generating-Clusters/LCBOP/Only-C1/SD-CG/FIRE-HFTN
REM
REM
REM
REM
REM
REM ./C.cell (11c1c37f851c82e70ff6c80c92926a4b)
REM AIRSS Version 0.9.1 bugfix July 2018 build 013d7b7c2542+ Fri, 06 Jul 2018 19:26:36 +0100
REM compiler GCC version 9.2.1 20190827 (Red Hat 9.2.1-1)
REM options -cpp -mtune=generic -march=x86-64 -g -O0 -fpre-include=/usr/include/finclude/math-vector-fortran.h
REM seed -1688563513 -1207378007 160904784 1760606986 282739618 518124316 1440714304 -1350688274 -778839923 -288169925 499669768 -315942767 1355685977 -1999092012 -1208040764 677665680 945677870 173184387 -1742526074 -644497142 -1952008109 182534963 1296767366 1551351934 20081263 1693567416 -772671812 -94414410 -961379044 -1350181450 1889499437 -909083114 -333823242
REM
CELL 1.54180   50.00000   50.00000   50.00000   90.00000   90.00000   90.00000
LATT -1
SFAC C  
C      1  0.5815110000000  0.4763420000000  0.6116090000000 1.0
C      1  0.4675170000000  0.5418970000000  0.3884970000000 1.0
C      1  0.4142610000000  0.4775340000000  0.4753950000000 1.0
C      1  0.5966250000000  0.5443210000000  0.5449010000000 1.0
C      1  0.4837380000000  0.4517340000000  0.4676710000000 1.0
C      1  0.4833650000000  0.6113820000000  0.4693280000000 1.0
C      1  0.5812810000000  0.5374810000000  0.6688310000000 1.0
C      1  0.3543320000000  0.5785820000000  0.5130150000000 1.0
C      1  0.5564230000000  0.5088220000000  0.4648240000000 1.0
C      1  0.5749480000000  0.5325620000000  0.5028940000000 1.0
C      1  0.4368870000000  0.4660760000000  0.5195330000000 1.0
C      1  0.4838240000000  0.5464420000000  0.4731720000000 1.0
C      1  0.5344430000000  0.5585450000000  0.5378620000000 1.0
C      1  0.5241000000000  0.5647930000000  0.5123210000000 1.0
C      1  0.5228480000000  0.4711390000000  0.5872220000000 1.0
C      1  0.5193420000000  0.5757430000000  0.4546450000000 1.0
C      1  0.5438810000000  0.6084480000000  0.4835770000000 1.0
C      1  0.4500520000000  0.3886200000000  0.4593070000000 1.0
C      1  0.5370410000000  0.5312150000000  0.5500640000000 1.0
C      1  0.4379520000000  0.5412460000000  0.6261030000000 1.0
C      1  0.5781440000000  0.5384210000000  0.6429680000000 1.0
C      1  0.5397840000000  0.5555210000000  0.3862850000000 1.0
C      1  0.4422550000000  0.4512290000000  0.4475950000000 1.0
C      1  0.5556570000000  0.4030280000000  0.4731110000000 1.0
C      1  0.4393560000000  0.5599330000000  0.5004270000000 1.0
C      1  0.6056230000000  0.4461320000000  0.5666770000000 1.0
C      1  0.5281300000000  0.4081190000000  0.5516770000000 1.0
C      1  0.5501670000000  0.3775690000000  0.5244310000000 1.0
C      1  0.6191290000000  0.4324280000000  0.4885150000000 1.0
C      1  0.5956900000000  0.5276910000000  0.5221880000000 1.0
C      1  0.3783510000000  0.4852600000000  0.5045120000000 1.0
C      1  0.5219310000000  0.5063760000000  0.5442190000000 1.0
C      1  0.4399950000000  0.5028950000000  0.4448630000000 1.0
C      1  0.6402850000000  0.4427110000000  0.5042290000000 1.0
C      1  0.5129470000000  0.5628490000000  0.3825960000000 1.0
C      1  0.4852980000000  0.5648110000000  0.3882600000000 1.0
C      1  0.4911830000000  0.4169640000000  0.5190110000000 1.0
C      1  0.5729700000000  0.4506480000000  0.6122380000000 1.0
C      1  0.5518310000000  0.4564860000000  0.5249730000000 1.0
C      1  0.5050020000000  0.4086280000000  0.4683650000000 1.0
C      1  0.4546440000000  0.4958630000000  0.3750320000000 1.0
C      1  0.5626730000000  0.4383420000000  0.5887000000000 1.0
C      1  0.5180360000000  0.4260990000000  0.5713270000000 1.0
C      1  0.5459320000000  0.4695250000000  0.4398510000000 1.0
C      1  0.4572390000000  0.5664190000000  0.5743610000000 1.0
C      1  0.5364630000000  0.5788480000000  0.5586140000000 1.0
C      1  0.5739060000000  0.5633500000000  0.4289980000000 1.0
C      1  0.4848960000000  0.4822400000000  0.5166900000000 1.0
C      1  0.5284770000000  0.3951860000000  0.4809480000000 1.0
C      1  0.5436380000000  0.5391360000000  0.5787560000000 1.0
C      1  0.4471990000000  0.5773160000000  0.4568610000000 1.0
C      1  0.6395760000000  0.5651330000000  0.4774390000000 1.0
C      1  0.4576790000000  0.4422420000000  0.4703910000000 1.0
C      1  0.3548730000000  0.4581010000000  0.6048060000000 1.0
C      1  0.3755250000000  0.5941900000000  0.5027740000000 1.0
C      1  0.5266200000000  0.4535590000000  0.4851300000000 1.0
C      1  0.4238190000000  0.4816390000000  0.6038340000000 1.0
C      1  0.4856980000000  0.5302790000000  0.5205040000000 1.0
C      1  0.6312850000000  0.5440420000000  0.4636130000000 1.0
C      1  0.5724620000000  0.4884120000000  0.5638440000000 1.0
C      1  0.5902340000000  0.5459130000000  0.5707210000000 1.0
C      1  0.4775990000000  0.5896460000000  0.3993720000000 1.0
C      1  0.4140990000000  0.4822380000000  0.3986340000000 1.0
C      1  0.5663130000000  0.5808180000000  0.4498040000000 1.0
C      1  0.4509230000000  0.4251240000000  0.4920400000000 1.0
C      1  0.4877130000000  0.4168690000000  0.6074060000000 1.0
C      1  0.4868880000000  0.4161210000000  0.4031670000000 1.0
C      1  0.4975790000000  0.5043350000000  0.3939430000000 1.0
C      1  0.3767570000000  0.4708160000000  0.5969950000000 1.0
C      1  0.4467550000000  0.5219530000000  0.6101930000000 1.0
C      1  0.4446480000000  0.5411960000000  0.4056480000000 1.0
C      1  0.4297370000000  0.4825820000000  0.4983300000000 1.0
C      1  0.5475750000000  0.5309690000000  0.3752250000000 1.0
C      1  0.3315050000000  0.5894340000000  0.5231370000000 1.0
C      1  0.5093440000000  0.6244470000000  0.5327270000000 1.0
C      1  0.4747950000000  0.5152360000000  0.3808650000000 1.0
C      1  0.4509540000000  0.4386660000000  0.4237700000000 1.0
C      1  0.5260780000000  0.5413670000000  0.4947540000000 1.0
C      1  0.5428270000000  0.5893750000000  0.4627550000000 1.0
C      1  0.4494370000000  0.4198210000000  0.5618400000000 1.0
C      1  0.4393200000000  0.5538710000000  0.5289780000000 1.0
C      1  0.3915490000000  0.5298040000000  0.4553550000000 1.0
C      1  0.4403380000000  0.4754530000000  0.3891030000000 1.0
C      1  0.4493140000000  0.4077680000000  0.5377740000000 1.0
C      1  0.5010820000000  0.4901470000000  0.5863820000000 1.0
C      1  0.3990000000000  0.4993500000000  0.5644290000000 1.0
C      1  0.4085270000000  0.4247760000000  0.5110150000000 1.0
C      1  0.4634140000000  0.4658110000000  0.5587920000000 1.0
C      1  0.4792820000000  0.6086990000000  0.4180450000000 1.0
C      1  0.4286520000000  0.5597220000000  0.6419690000000 1.0
C      1  0.3872910000000  0.4708920000000  0.4813680000000 1.0
C      1  0.5933880000000  0.4862080000000  0.4069470000000 1.0
C      1  0.4049450000000  0.5130850000000  0.5400130000000 1.0
C      1  0.5014340000000  0.5540520000000  0.4513190000000 1.0
C      1  0.5574810000000  0.5100970000000  0.3883230000000 1.0
C      1  0.4992950000000  0.5076010000000  0.5631750000000 1.0
C      1  0.4789990000000  0.5212180000000  0.5469050000000 1.0
C      1  0.5651580000000  0.3967800000000  0.4481820000000 1.0
C      1  0.4633280000000  0.4686460000000  0.5303020000000 1.0
C      1  0.5517110000000  0.5296660000000  0.4853080000000 1.0
C      1  0.4808790000000  0.4913390000000  0.4901790000000 1.0
C      1  0.5093940000000  0.4821140000000  0.3820050000000 1.0
C      1  0.5276250000000  0.3865430000000  0.5083830000000 1.0
C      1  0.3769920000000  0.4483220000000  0.4678180000000 1.0
C      1  0.5016730000000  0.5843800000000  0.5086610000000 1.0
C      1  0.4628220000000  0.5672870000000  0.4808020000000 1.0
C      1  0.4923680000000  0.6022120000000  0.5295430000000 1.0
C      1  0.5051800000000  0.5357680000000  0.4307430000000 1.0
C      1  0.5845520000000  0.4800890000000  0.4950890000000 1.0
C      1  0.4683090000000  0.4395500000000  0.5697760000000 1.0
C      1  0.3998110000000  0.4840130000000  0.5883900000000 1.0
C      1  0.5580860000000  0.5653120000000  0.4055100000000 1.0
C      1  0.6050080000000  0.6257900000000  0.5051040000000 1.0
C      1  0.4300970000000  0.5639280000000  0.4126550000000 1.0
C      1  0.4295530000000  0.4766570000000  0.4514060000000 1.0
C      1  0.5128220000000  0.4848690000000  0.5247380000000 1.0
C      1  0.5152700000000  0.4136300000000  0.4037210000000 1.0
C      1  0.4820370000000  0.6173280000000  0.4432140000000 1.0
C      1  0.5643490000000  0.4733640000000  0.5433390000000 1.0
C      1  0.5133040000000  0.4032820000000  0.5272570000000 1.0
C      1  0.3994830000000  0.5877320000000  0.4923910000000 1.0
C      1  0.6179970000000  0.4673110000000  0.5558830000000 1.0
C      1  0.3826760000000  0.4249320000000  0.4555460000000 1.0
C      1  0.4943420000000  0.4911090000000  0.4414900000000 1.0
C      1  0.4779850000000  0.5667040000000  0.5913310000000 1.0
C      1  0.6143320000000  0.4487630000000  0.4655050000000 1.0
C      1  0.5429200000000  0.4517070000000  0.4187330000000 1.0
C      1  0.4803100000000  0.4878190000000  0.6068050000000 1.0
C      1  0.4510520000000  0.4944370000000  0.5990580000000 1.0
C      1  0.5063080000000  0.4370130000000  0.4739150000000 1.0
C      1  0.3329730000000  0.4453740000000  0.6126160000000 1.0
C      1  0.5997510000000  0.4062540000000  0.5287740000000 1.0
C      1  0.4524540000000  0.5135420000000  0.5528510000000 1.0
C      1  0.4519670000000  0.5728030000000  0.5473500000000 1.0
C      1  0.5463560000000  0.4636290000000  0.4677210000000 1.0
C      1  0.5548220000000  0.3952090000000  0.5474700000000 1.0
C      1  0.5065580000000  0.4547810000000  0.3855990000000 1.0
C      1  0.3955380000000  0.5411410000000  0.4811650000000 1.0
C      1  0.4702850000000  0.4159790000000  0.4263820000000 1.0
C      1  0.6000000000000  0.4144050000000  0.5006770000000 1.0
C      1  0.5285180000000  0.4651280000000  0.5119540000000 1.0
C      1  0.4752590000000  0.4006910000000  0.4504960000000 1.0
C      1  0.5044250000000  0.5671210000000  0.5950860000000 1.0
C      1  0.6432600000000  0.4665440000000  0.5163590000000 1.0
C      1  0.6161070000000  0.4736670000000  0.4550540000000 1.0
C      1  0.6151720000000  0.5002910000000  0.4506510000000 1.0
C      1  0.4641330000000  0.4161840000000  0.5151470000000 1.0
C      1  0.6258120000000  0.6104730000000  0.4989020000000 1.0
C      1  0.5807440000000  0.4912920000000  0.5891960000000 1.0
C      1  0.3114340000000  0.4328560000000  0.6202970000000 1.0
C      1  0.4412980000000  0.5176260000000  0.4210210000000 1.0
C      1  0.3788240000000  0.5329670000000  0.5031510000000 1.0
C      1  0.5790150000000  0.6306320000000  0.5078120000000 1.0
C      1  0.4320870000000  0.5783430000000  0.4350450000000 1.0
C      1  0.5934570000000  0.5433810000000  0.4342020000000 1.0
C      1  0.5700700000000  0.5398100000000  0.5892740000000 1.0
C      1  0.6128010000000  0.4729340000000  0.3956480000000 1.0
C      1  0.4805600000000  0.4417760000000  0.3884810000000 1.0
C      1  0.5829230000000  0.4292300000000  0.5698170000000 1.0
C      1  0.5272400000000  0.4393560000000  0.3994080000000 1.0
C      1  0.5005690000000  0.5098570000000  0.4216650000000 1.0
C      1  0.5614780000000  0.4337940000000  0.5122490000000 1.0
C      1  0.5292460000000  0.5645920000000  0.5827670000000 1.0
C      1  0.4914160000000  0.4278100000000  0.5823450000000 1.0
C      1  0.6135350000000  0.5054110000000  0.5237040000000 1.0
C      1  0.3865510000000  0.5096700000000  0.5174750000000 1.0
C      1  0.5693720000000  0.5000660000000  0.4114300000000 1.0
C      1  0.4128220000000  0.5630140000000  0.4885650000000 1.0
C      1  0.5552530000000  0.4975450000000  0.4362310000000 1.0
C      1  0.6131090000000  0.5286190000000  0.4486910000000 1.0
C      1  0.5632280000000  0.4839380000000  0.4791080000000 1.0
C      1  0.4666920000000  0.5955590000000  0.5388290000000 1.0
C      1  0.5748930000000  0.5387230000000  0.6166770000000 1.0
C      1  0.3968280000000  0.4969190000000  0.4136050000000 1.0
C      1  0.5802600000000  0.4079860000000  0.5506360000000 1.0
C      1  0.3588810000000  0.5507410000000  0.5118480000000 1.0
C      1  0.6262040000000  0.4816730000000  0.5329630000000 1.0
C      1  0.5375140000000  0.6210530000000  0.5316800000000 1.0
C      1  0.4526250000000  0.4903880000000  0.5694940000000 1.0
C      1  0.3999840000000  0.4042090000000  0.4524530000000 1.0
C      1  0.3896730000000  0.5141250000000  0.4333480000000 1.0
C      1  0.4860530000000  0.4802590000000  0.6324870000000 1.0
C      1  0.5524150000000  0.6217330000000  0.5071930000000 1.0
C      1  0.5722830000000  0.4168070000000  0.4922140000000 1.0
C      1  0.4233170000000  0.3977920000000  0.4672250000000 1.0
C      1  0.4978630000000  0.5335960000000  0.4946030000000 1.0
C      1  0.4308150000000  0.5274290000000  0.5396310000000 1.0
C      1  0.4823260000000  0.5897440000000  0.4875190000000 1.0
C      1  0.4552340000000  0.4527250000000  0.3983590000000 1.0
C      1  0.5355450000000  0.4458100000000  0.5821200000000 1.0
C      1  0.4863980000000  0.4796260000000  0.4654810000000 1.0
C      1  0.4248190000000  0.4138070000000  0.4906940000000 1.0
C      1  0.5465130000000  0.6041100000000  0.5525380000000 1.0
C      1  0.6378160000000  0.5887260000000  0.4894980000000 1.0
C      1  0.4171970000000  0.4462250000000  0.5256140000000 1.0
C      1  0.4458890000000  0.5180810000000  0.4670690000000 1.0
END
