TITL C-247196-3112-516 113865.879725175 125000 -1187.68166784396 0 0 193 (C1) n - 1
REM
REM in /home/nfs/bkarasulu/CARBON/AIRSS/Generating-Clusters/LCBOP/Only-C1/SD-CG/FIRE-HFTN
REM
REM
REM
REM
REM
REM ./C.cell (11c1c37f851c82e70ff6c80c92926a4b)
REM AIRSS Version 0.9.1 bugfix July 2018 build 013d7b7c2542+ Fri, 06 Jul 2018 19:26:36 +0100
REM compiler GCC version 9.2.1 20190827 (Red Hat 9.2.1-1)
REM options -cpp -mtune=generic -march=x86-64 -g -O0 -fpre-include=/usr/include/finclude/math-vector-fortran.h
REM seed -82585550 618806466 1427335891 2132173772 195593403 70402697 417576122 -1523894553 1922958583 1356204035 -1364937119 -1579480557 600233925 139883020 -724923044 -888757387 -1830565975 -2108708847 -1537841618 49417437 1874526178 747883543 1316379173 1000640884 1991599415 -635230078 1164666990 -1347833623 -1407952806 1737498030 478904638 1350138415 -1151993314
REM
CELL 1.54180   50.00000   50.00000   50.00000   90.00000   90.00000   90.00000
LATT -1
SFAC C  
C      1  0.5202250000000  0.5784590000000  0.6030730000000 1.0
C      1  0.5340100000000  0.4343940000000  0.5793500000000 1.0
C      1  0.5182480000000  0.4798530000000  0.4315420000000 1.0
C      1  0.5641790000000  0.4206300000000  0.4484970000000 1.0
C      1  0.4474540000000  0.5903320000000  0.4383610000000 1.0
C      1  0.5014220000000  0.3916230000000  0.4554070000000 1.0
C      1  0.6126870000000  0.4545280000000  0.5104440000000 1.0
C      1  0.4923150000000  0.4078230000000  0.5745670000000 1.0
C      1  0.4313190000000  0.4554180000000  0.5778110000000 1.0
C      1  0.4704980000000  0.5932880000000  0.4223090000000 1.0
C      1  0.4707580000000  0.5086250000000  0.4956990000000 1.0
C      1  0.4538380000000  0.4900840000000  0.3834510000000 1.0
C      1  0.5326780000000  0.4936880000000  0.6448450000000 1.0
C      1  0.5177030000000  0.5057820000000  0.5574830000000 1.0
C      1  0.5237310000000  0.4481000000000  0.6249380000000 1.0
C      1  0.4774760000000  0.3704150000000  0.5428070000000 1.0
C      1  0.5499520000000  0.5973020000000  0.5139960000000 1.0
C      1  0.4964500000000  0.5827930000000  0.4213440000000 1.0
C      1  0.5807840000000  0.5652370000000  0.4930240000000 1.0
C      1  0.5645480000000  0.4720660000000  0.4053450000000 1.0
C      1  0.5675600000000  0.4200600000000  0.5474390000000 1.0
C      1  0.4746890000000  0.3724020000000  0.5162090000000 1.0
C      1  0.4399000000000  0.5873900000000  0.5383150000000 1.0
C      1  0.4224540000000  0.5688890000000  0.5498670000000 1.0
C      1  0.4788570000000  0.5587070000000  0.5721360000000 1.0
C      1  0.4571940000000  0.4903720000000  0.5541590000000 1.0
C      1  0.5695550000000  0.5118120000000  0.5355520000000 1.0
C      1  0.4588220000000  0.5215430000000  0.4434080000000 1.0
C      1  0.6132900000000  0.5267590000000  0.4972110000000 1.0
C      1  0.6235720000000  0.5213120000000  0.4696100000000 1.0
C      1  0.4667390000000  0.5817970000000  0.5328030000000 1.0
C      1  0.4537570000000  0.4381970000000  0.5012070000000 1.0
C      1  0.4259610000000  0.4952380000000  0.4697400000000 1.0
C      1  0.5310770000000  0.5575040000000  0.5403480000000 1.0
C      1  0.6110060000000  0.4676200000000  0.5809750000000 1.0
C      1  0.5079400000000  0.6005410000000  0.5560210000000 1.0
C      1  0.4746070000000  0.3910100000000  0.4689970000000 1.0
C      1  0.3835370000000  0.4962640000000  0.5759060000000 1.0
C      1  0.5245970000000  0.5891770000000  0.5305270000000 1.0
C      1  0.3990260000000  0.5424210000000  0.4672510000000 1.0
C      1  0.4757320000000  0.4199810000000  0.5102920000000 1.0
C      1  0.5176810000000  0.5007270000000  0.4831270000000 1.0
C      1  0.5610550000000  0.3759430000000  0.5202820000000 1.0
C      1  0.5053060000000  0.4411400000000  0.4526170000000 1.0
C      1  0.4357820000000  0.5518130000000  0.5670250000000 1.0
C      1  0.4393390000000  0.6076970000000  0.4902040000000 1.0
C      1  0.4948600000000  0.5684520000000  0.6139250000000 1.0
C      1  0.4364150000000  0.5478620000000  0.5953370000000 1.0
C      1  0.4491310000000  0.5267750000000  0.4979350000000 1.0
C      1  0.6003620000000  0.4774500000000  0.4999380000000 1.0
C      1  0.4188820000000  0.4119830000000  0.5893790000000 1.0
C      1  0.4984860000000  0.4163540000000  0.4409970000000 1.0
C      1  0.4162380000000  0.5914110000000  0.4999360000000 1.0
C      1  0.4588270000000  0.4756560000000  0.5302690000000 1.0
C      1  0.5297640000000  0.4546430000000  0.4446310000000 1.0
C      1  0.3974510000000  0.4640630000000  0.4412640000000 1.0
C      1  0.4799470000000  0.4967140000000  0.3947430000000 1.0
C      1  0.4831940000000  0.3848070000000  0.5645930000000 1.0
C      1  0.5740060000000  0.5535460000000  0.4674670000000 1.0
C      1  0.4346970000000  0.5648670000000  0.4367700000000 1.0
C      1  0.4931480000000  0.5206980000000  0.3870820000000 1.0
C      1  0.4307890000000  0.5048000000000  0.3892750000000 1.0
C      1  0.5982230000000  0.5497890000000  0.5101130000000 1.0
C      1  0.5583770000000  0.4562580000000  0.4944690000000 1.0
C      1  0.4702110000000  0.5153610000000  0.5524940000000 1.0
C      1  0.5693560000000  0.5962860000000  0.4342390000000 1.0
C      1  0.5797970000000  0.5543580000000  0.5628320000000 1.0
C      1  0.5440640000000  0.4648860000000  0.5422980000000 1.0
C      1  0.5612250000000  0.4408470000000  0.4047020000000 1.0
C      1  0.6078970000000  0.4512700000000  0.6035450000000 1.0
C      1  0.5937880000000  0.5536060000000  0.5389800000000 1.0
C      1  0.6192990000000  0.4667010000000  0.4559070000000 1.0
C      1  0.5902970000000  0.5059120000000  0.6027280000000 1.0
C      1  0.3983710000000  0.4842560000000  0.4201180000000 1.0
C      1  0.4658790000000  0.4718210000000  0.4390970000000 1.0
C      1  0.5101470000000  0.5801320000000  0.4458150000000 1.0
C      1  0.5209150000000  0.4704230000000  0.6392300000000 1.0
C      1  0.5950250000000  0.4538430000000  0.4498660000000 1.0
C      1  0.5495250000000  0.5183620000000  0.5166440000000 1.0
C      1  0.4581340000000  0.6263200000000  0.5049810000000 1.0
C      1  0.5558150000000  0.4106200000000  0.4733940000000 1.0
C      1  0.5556130000000  0.5493500000000  0.5787070000000 1.0
C      1  0.4338750000000  0.4996600000000  0.5970150000000 1.0
C      1  0.4985750000000  0.5470170000000  0.4772590000000 1.0
C      1  0.4500530000000  0.4953110000000  0.4519340000000 1.0
C      1  0.3826120000000  0.4861930000000  0.4875490000000 1.0
C      1  0.4001710000000  0.5582760000000  0.5357950000000 1.0
C      1  0.5371760000000  0.4959140000000  0.5039100000000 1.0
C      1  0.4519780000000  0.5492300000000  0.4808280000000 1.0
C      1  0.5276700000000  0.3812490000000  0.4506030000000 1.0
C      1  0.4724870000000  0.4297930000000  0.4034940000000 1.0
C      1  0.5389700000000  0.4877830000000  0.4104170000000 1.0
C      1  0.4115200000000  0.4809680000000  0.4928270000000 1.0
C      1  0.4211460000000  0.4453740000000  0.4417720000000 1.0
C      1  0.4899890000000  0.4767890000000  0.4171080000000 1.0
C      1  0.3981380000000  0.5691170000000  0.5083040000000 1.0
C      1  0.5509250000000  0.3693720000000  0.4962440000000 1.0
C      1  0.5228790000000  0.4986430000000  0.4558070000000 1.0
C      1  0.4954390000000  0.6262600000000  0.5432220000000 1.0
C      1  0.5762990000000  0.5504280000000  0.4079040000000 1.0
C      1  0.5839860000000  0.5004690000000  0.5551110000000 1.0
C      1  0.4607840000000  0.5402580000000  0.5593360000000 1.0
C      1  0.3642500000000  0.5335530000000  0.4955680000000 1.0
C      1  0.5720250000000  0.5222750000000  0.4079580000000 1.0
C      1  0.3982410000000  0.4642430000000  0.5406270000000 1.0
C      1  0.5010860000000  0.5975920000000  0.5081570000000 1.0
C      1  0.5522290000000  0.4413850000000  0.5575200000000 1.0
C      1  0.4860210000000  0.6224310000000  0.5154730000000 1.0
C      1  0.4972150000000  0.5203900000000  0.4909150000000 1.0
C      1  0.4149370000000  0.4654480000000  0.5171240000000 1.0
C      1  0.5538140000000  0.5088580000000  0.6390710000000 1.0
C      1  0.4425620000000  0.4812830000000  0.5771870000000 1.0
C      1  0.5559850000000  0.4145570000000  0.4208460000000 1.0
C      1  0.5014130000000  0.5463110000000  0.3881510000000 1.0
C      1  0.5106220000000  0.5704200000000  0.3998670000000 1.0
C      1  0.5184190000000  0.4753510000000  0.5523360000000 1.0
C      1  0.4463670000000  0.5450110000000  0.4533950000000 1.0
C      1  0.5472940000000  0.4300600000000  0.4925760000000 1.0
C      1  0.5462120000000  0.5520960000000  0.4627040000000 1.0
C      1  0.4435650000000  0.6055590000000  0.4618870000000 1.0
C      1  0.5013770000000  0.4493450000000  0.5480960000000 1.0
C      1  0.3789100000000  0.4709530000000  0.4629080000000 1.0
C      1  0.6185140000000  0.4958220000000  0.4547490000000 1.0
C      1  0.5685930000000  0.3954470000000  0.5369980000000 1.0
C      1  0.4713110000000  0.5590750000000  0.6001230000000 1.0
C      1  0.4710270000000  0.4824480000000  0.5048670000000 1.0
C      1  0.5753490000000  0.5122090000000  0.6237930000000 1.0
C      1  0.4709560000000  0.4597750000000  0.4869430000000 1.0
C      1  0.5665840000000  0.5907710000000  0.4916400000000 1.0
C      1  0.4835370000000  0.5254090000000  0.4327230000000 1.0
C      1  0.3800620000000  0.5094470000000  0.5324170000000 1.0
C      1  0.5960110000000  0.4918900000000  0.5790880000000 1.0
C      1  0.4408550000000  0.4552730000000  0.5220790000000 1.0
C      1  0.4992990000000  0.4329780000000  0.5222820000000 1.0
C      1  0.3844390000000  0.5525930000000  0.4889420000000 1.0
C      1  0.5446890000000  0.5633970000000  0.6011240000000 1.0
C      1  0.5622490000000  0.5749780000000  0.4145810000000 1.0
C      1  0.4297430000000  0.5236560000000  0.5163940000000 1.0
C      1  0.5959440000000  0.5539550000000  0.4498370000000 1.0
C      1  0.4427730000000  0.4556800000000  0.4257490000000 1.0
C      1  0.4369930000000  0.4323880000000  0.5946070000000 1.0
C      1  0.5859480000000  0.4955880000000  0.4121110000000 1.0
C      1  0.5069090000000  0.4312960000000  0.5705320000000 1.0
C      1  0.5471010000000  0.5147660000000  0.4199130000000 1.0
C      1  0.3901740000000  0.5333720000000  0.5479450000000 1.0
C      1  0.4747400000000  0.3937010000000  0.4978750000000 1.0
C      1  0.4077450000000  0.4471390000000  0.5611120000000 1.0
C      1  0.4083130000000  0.5072090000000  0.4061620000000 1.0
C      1  0.4192930000000  0.5242280000000  0.5964690000000 1.0
C      1  0.5485150000000  0.5095340000000  0.4490220000000 1.0
C      1  0.4476310000000  0.6517380000000  0.5095520000000 1.0
C      1  0.5457950000000  0.4713640000000  0.5146800000000 1.0
C      1  0.5190660000000  0.5593010000000  0.4623740000000 1.0
C      1  0.6239130000000  0.4483750000000  0.5338580000000 1.0
C      1  0.4798390000000  0.5787190000000  0.5077870000000 1.0
C      1  0.3823450000000  0.4859770000000  0.5489530000000 1.0
C      1  0.4484270000000  0.4446170000000  0.3996670000000 1.0
C      1  0.5186510000000  0.5996150000000  0.5836310000000 1.0
C      1  0.4960020000000  0.5156970000000  0.5418970000000 1.0
C      1  0.6098560000000  0.5017990000000  0.5097930000000 1.0
C      1  0.5403550000000  0.4345500000000  0.6068430000000 1.0
C      1  0.5936260000000  0.4982620000000  0.4404410000000 1.0
C      1  0.4137060000000  0.5566720000000  0.4199480000000 1.0
C      1  0.4482040000000  0.4627640000000  0.3782540000000 1.0
C      1  0.5453720000000  0.3840980000000  0.4730960000000 1.0
C      1  0.4327060000000  0.4257520000000  0.4848890000000 1.0
C      1  0.6207950000000  0.5439520000000  0.4527020000000 1.0
C      1  0.4733090000000  0.4142290000000  0.4268160000000 1.0
C      1  0.4015580000000  0.5340550000000  0.4118090000000 1.0
C      1  0.4761770000000  0.5625340000000  0.4859310000000 1.0
C      1  0.5380300000000  0.5775430000000  0.3997290000000 1.0
C      1  0.5641280000000  0.5992520000000  0.4632390000000 1.0
C      1  0.4936190000000  0.4495940000000  0.4014420000000 1.0
C      1  0.6245710000000  0.4568520000000  0.5590600000000 1.0
C      1  0.3961880000000  0.5229930000000  0.5771190000000 1.0
C      1  0.5344670000000  0.5377960000000  0.5629310000000 1.0
C      1  0.5654670000000  0.4488050000000  0.4483720000000 1.0
C      1  0.5045290000000  0.5284320000000  0.5184490000000 1.0
C      1  0.5236290000000  0.4265820000000  0.5082650000000 1.0
C      1  0.5912300000000  0.4343500000000  0.6155660000000 1.0
C      1  0.4549260000000  0.4051810000000  0.4486820000000 1.0
C      1  0.5837070000000  0.6174290000000  0.4231880000000 1.0
C      1  0.5307420000000  0.5393610000000  0.5190160000000 1.0
C      1  0.5657470000000  0.4266290000000  0.6155270000000 1.0
C      1  0.5716540000000  0.4960080000000  0.4598010000000 1.0
C      1  0.5768360000000  0.4762880000000  0.4829570000000 1.0
C      1  0.3718680000000  0.5076860000000  0.5049310000000 1.0
C      1  0.4842710000000  0.5806540000000  0.5556890000000 1.0
C      1  0.5397470000000  0.3903160000000  0.4246660000000 1.0
C      1  0.4322030000000  0.4222310000000  0.4569620000000 1.0
C      1  0.4819260000000  0.4569610000000  0.4611640000000 1.0
C      1  0.4096350000000  0.5182670000000  0.4625980000000 1.0
C      1  0.4012000000000  0.4202400000000  0.5696280000000 1.0
END
