TITL C-247200-3482-36 -2.12949757134929e-07 125000 -313.919180609945 0 0 51 (C1) n - 1
REM
REM in /home/nfs/bkarasulu/CARBON/AIRSS/Generating-Clusters/LCBOP/Only-C1/SD-CG/FIRE-HFTN
REM
REM
REM
REM
REM
REM ./C.cell (11c1c37f851c82e70ff6c80c92926a4b)
REM AIRSS Version 0.9.1 bugfix July 2018 build 013d7b7c2542+ Fri, 06 Jul 2018 19:26:36 +0100
REM compiler GCC version 9.2.1 20190827 (Red Hat 9.2.1-1)
REM options -cpp -mtune=generic -march=x86-64 -g -O0 -fpre-include=/usr/include/finclude/math-vector-fortran.h
REM seed 2124827227 2071873240 1977284351 -329139621 -642919938 164779023 -1460765390 -1311685038 -1403645347 1162186823 -686428836 871531763 -1626152716 -2015709813 -921704586 665537389 -1869274159 340158171 610460297 1336042214 -821102118 3386653 1814637593 -898695955 299328564 -959293872 240455599 814502393 1509480643 1462262496 -1670335663 924592449 246642845
REM
CELL 1.54180   50.00000   50.00000   50.00000   90.00000   90.00000   90.00000
LATT -1
SFAC C  
C      1  0.5149370000000  0.4910170000000  0.5049700000000 1.0
C      1  0.5520130000000  0.5772970000000  0.5513350000000 1.0
C      1  0.4988560000000  0.4422220000000  0.4798630000000 1.0
C      1  0.4497750000000  0.5193550000000  0.4776430000000 1.0
C      1  0.5436160000000  0.4591130000000  0.4854560000000 1.0
C      1  0.5800300000000  0.5138830000000  0.4937860000000 1.0
C      1  0.5613590000000  0.5342650000000  0.4881460000000 1.0
C      1  0.4978460000000  0.4540200000000  0.4526510000000 1.0
C      1  0.5711590000000  0.4634390000000  0.4902460000000 1.0
C      1  0.4691550000000  0.4940710000000  0.5535050000000 1.0
C      1  0.4743500000000  0.4722160000000  0.4521170000000 1.0
C      1  0.5364790000000  0.5018520000000  0.4622360000000 1.0
C      1  0.5230420000000  0.5599070000000  0.4972550000000 1.0
C      1  0.5180340000000  0.5452130000000  0.4714650000000 1.0
C      1  0.5249170000000  0.4379740000000  0.4914240000000 1.0
C      1  0.4294140000000  0.4543230000000  0.4648940000000 1.0
C      1  0.4724600000000  0.5213650000000  0.4606370000000 1.0
C      1  0.5148410000000  0.4575120000000  0.4303200000000 1.0
C      1  0.5075400000000  0.4804990000000  0.5296910000000 1.0
C      1  0.4038060000000  0.4502280000000  0.4594780000000 1.0
C      1  0.5280180000000  0.5823010000000  0.5622210000000 1.0
C      1  0.4272300000000  0.4937970000000  0.5121890000000 1.0
C      1  0.5372820000000  0.4307600000000  0.5399980000000 1.0
C      1  0.4802520000000  0.4754030000000  0.5351020000000 1.0
C      1  0.4365340000000  0.4691610000000  0.5182490000000 1.0
C      1  0.4724800000000  0.4495850000000  0.4925320000000 1.0
C      1  0.4398420000000  0.5177320000000  0.5040130000000 1.0
C      1  0.4789990000000  0.5630570000000  0.4859800000000 1.0
C      1  0.4787720000000  0.4992990000000  0.4435610000000 1.0
C      1  0.4971290000000  0.5670020000000  0.5082900000000 1.0
C      1  0.5379460000000  0.4533270000000  0.5546690000000 1.0
C      1  0.3784630000000  0.4465590000000  0.4545940000000 1.0
C      1  0.4890260000000  0.5630550000000  0.5352060000000 1.0
C      1  0.4963270000000  0.5006270000000  0.4210880000000 1.0
C      1  0.5299770000000  0.4236330000000  0.5150890000000 1.0
C      1  0.5257120000000  0.4784280000000  0.5518060000000 1.0
C      1  0.4560340000000  0.4597400000000  0.4701130000000 1.0
C      1  0.4717550000000  0.5409850000000  0.5410700000000 1.0
C      1  0.5245750000000  0.5003270000000  0.5696170000000 1.0
C      1  0.5133600000000  0.4801170000000  0.4150310000000 1.0
C      1  0.5050800000000  0.5190640000000  0.5720250000000 1.0
C      1  0.4637230000000  0.4603930000000  0.5175990000000 1.0
C      1  0.4894590000000  0.5435260000000  0.4666470000000 1.0
C      1  0.5026350000000  0.5770080000000  0.5554250000000 1.0
C      1  0.4799900000000  0.5199900000000  0.5587730000000 1.0
C      1  0.4500420000000  0.5351720000000  0.5237890000000 1.0
C      1  0.5838630000000  0.4871500000000  0.4940140000000 1.0
C      1  0.5501770000000  0.5545130000000  0.5055830000000 1.0
C      1  0.5298600000000  0.4838620000000  0.4824420000000 1.0
C      1  0.5411470000000  0.5288240000000  0.4674340000000 1.0
C      1  0.5606800000000  0.5658310000000  0.5287310000000 1.0
END
