TITL C-247197-3123-97 -0.0884127150100089 125000 -950.22263660596 0 0 156 (C1) n - 1
REM
REM in /home/nfs/bkarasulu/CARBON/AIRSS/Generating-Clusters/LCBOP/Only-C1/SD-CG/FIRE-HFTN
REM
REM
REM
REM
REM
REM ./C.cell (11c1c37f851c82e70ff6c80c92926a4b)
REM AIRSS Version 0.9.1 bugfix July 2018 build 013d7b7c2542+ Fri, 06 Jul 2018 19:26:36 +0100
REM compiler GCC version 9.2.1 20190827 (Red Hat 9.2.1-1)
REM options -cpp -mtune=generic -march=x86-64 -g -O0 -fpre-include=/usr/include/finclude/math-vector-fortran.h
REM seed -72839613 974499174 -1338284721 4831476 287656969 131552815 1106711964 1047856135 -1268217388 -39661225 96830063 -2049818005 -340176777 -1558681437 484014768 1684626355 881701314 1249514051 744139579 1569097895 1884827987 1019361790 -1194970896 584635890 -1905738486 169175540 -29575515 551078565 2137274767 1436615847 2098615469 -457456690 855029468
REM
CELL 1.54180   50.00000   50.00000   50.00000   90.00000   90.00000   90.00000
LATT -1
SFAC C  
C      1  0.4412700000000  0.4730640000000  0.4165860000000 1.0
C      1  0.5644040000000  0.5219940000000  0.5213980000000 1.0
C      1  0.4806100000000  0.6252930000000  0.5074300000000 1.0
C      1  0.4856410000000  0.4912630000000  0.5203530000000 1.0
C      1  0.5214550000000  0.4792100000000  0.4680840000000 1.0
C      1  0.4299490000000  0.5634650000000  0.4438190000000 1.0
C      1  0.5440670000000  0.5772440000000  0.4706050000000 1.0
C      1  0.5011020000000  0.5561890000000  0.4863680000000 1.0
C      1  0.5944140000000  0.4689030000000  0.5702320000000 1.0
C      1  0.4363630000000  0.4611810000000  0.5883280000000 1.0
C      1  0.4395450000000  0.4123460000000  0.5355470000000 1.0
C      1  0.5269080000000  0.4398090000000  0.5428660000000 1.0
C      1  0.4397990000000  0.5420400000000  0.5772140000000 1.0
C      1  0.3879060000000  0.4752650000000  0.4929020000000 1.0
C      1  0.4522890000000  0.5349790000000  0.5294420000000 1.0
C      1  0.5784560000000  0.5349000000000  0.4312560000000 1.0
C      1  0.5057090000000  0.5768560000000  0.5980200000000 1.0
C      1  0.5915380000000  0.4280960000000  0.5365260000000 1.0
C      1  0.6130420000000  0.5759130000000  0.5019530000000 1.0
C      1  0.5051970000000  0.5773270000000  0.6257700000000 1.0
C      1  0.4836480000000  0.3904320000000  0.5401230000000 1.0
C      1  0.5804290000000  0.4214470000000  0.4917070000000 1.0
C      1  0.4026450000000  0.4139580000000  0.4996680000000 1.0
C      1  0.4047380000000  0.4443830000000  0.4328770000000 1.0
C      1  0.5358060000000  0.4595760000000  0.4494900000000 1.0
C      1  0.4835390000000  0.4152360000000  0.4248950000000 1.0
C      1  0.6160210000000  0.5453730000000  0.5584300000000 1.0
C      1  0.5418400000000  0.5292590000000  0.3937210000000 1.0
C      1  0.5769710000000  0.5190140000000  0.5674660000000 1.0
C      1  0.3982770000000  0.5228130000000  0.5534830000000 1.0
C      1  0.4698880000000  0.5343310000000  0.4002300000000 1.0
C      1  0.4887830000000  0.5171340000000  0.5092210000000 1.0
C      1  0.5803670000000  0.5073620000000  0.4413070000000 1.0
C      1  0.5534390000000  0.4993340000000  0.4433000000000 1.0
C      1  0.4710840000000  0.4293040000000  0.3809110000000 1.0
C      1  0.4497480000000  0.4584150000000  0.5348170000000 1.0
C      1  0.5651300000000  0.5293980000000  0.4946680000000 1.0
C      1  0.4907720000000  0.5020360000000  0.4399470000000 1.0
C      1  0.6277010000000  0.5437480000000  0.5343440000000 1.0
C      1  0.4394140000000  0.5708930000000  0.4677440000000 1.0
C      1  0.5911040000000  0.4649010000000  0.4659680000000 1.0
C      1  0.4446640000000  0.5248980000000  0.4119690000000 1.0
C      1  0.4916310000000  0.5264760000000  0.3836560000000 1.0
C      1  0.5434120000000  0.4172230000000  0.5496550000000 1.0
C      1  0.4707360000000  0.5353360000000  0.6123670000000 1.0
C      1  0.5757220000000  0.4407510000000  0.4706760000000 1.0
C      1  0.5985350000000  0.4922980000000  0.4591790000000 1.0
C      1  0.4424190000000  0.5076640000000  0.5362820000000 1.0
C      1  0.4187350000000  0.5862270000000  0.5824930000000 1.0
C      1  0.5168820000000  0.4420140000000  0.5908560000000 1.0
C      1  0.5139800000000  0.4428750000000  0.5168220000000 1.0
C      1  0.3833400000000  0.5176210000000  0.5291550000000 1.0
C      1  0.5669810000000  0.4136900000000  0.5353040000000 1.0
C      1  0.4370090000000  0.5541390000000  0.5141020000000 1.0
C      1  0.5563230000000  0.5446310000000  0.4141800000000 1.0
C      1  0.4556130000000  0.4455120000000  0.4854100000000 1.0
C      1  0.3916220000000  0.4404650000000  0.4572950000000 1.0
C      1  0.5451810000000  0.5696600000000  0.4226580000000 1.0
C      1  0.6448450000000  0.4949390000000  0.4762640000000 1.0
C      1  0.5037050000000  0.5310840000000  0.5510110000000 1.0
C      1  0.4671870000000  0.4499430000000  0.5116970000000 1.0
C      1  0.4181250000000  0.4572020000000  0.4116770000000 1.0
C      1  0.4085960000000  0.4547550000000  0.3861140000000 1.0
C      1  0.5773950000000  0.5649080000000  0.5829990000000 1.0
C      1  0.5493370000000  0.5025970000000  0.3879790000000 1.0
C      1  0.4209170000000  0.4545920000000  0.5227290000000 1.0
C      1  0.4785300000000  0.3979940000000  0.5682030000000 1.0
C      1  0.4174310000000  0.4251950000000  0.5206690000000 1.0
C      1  0.5164420000000  0.5931390000000  0.5569530000000 1.0
C      1  0.4313380000000  0.4958260000000  0.5037060000000 1.0
C      1  0.4811510000000  0.5760100000000  0.4989060000000 1.0
C      1  0.4791910000000  0.5558690000000  0.4167070000000 1.0
C      1  0.5472450000000  0.4790180000000  0.4007340000000 1.0
C      1  0.6025790000000  0.4280900000000  0.5099660000000 1.0
C      1  0.6128200000000  0.5299890000000  0.4883760000000 1.0
C      1  0.5216510000000  0.3974690000000  0.4566830000000 1.0
C      1  0.4862970000000  0.6041400000000  0.4900850000000 1.0
C      1  0.3896590000000  0.5368830000000  0.5100260000000 1.0
C      1  0.4942260000000  0.4654190000000  0.5093150000000 1.0
C      1  0.4879920000000  0.5250320000000  0.4557000000000 1.0
C      1  0.4905800000000  0.5806400000000  0.5532560000000 1.0
C      1  0.4739680000000  0.4354540000000  0.4075380000000 1.0
C      1  0.6196290000000  0.5054950000000  0.4749120000000 1.0
C      1  0.5199540000000  0.4548830000000  0.5658150000000 1.0
C      1  0.5107030000000  0.4254620000000  0.4929500000000 1.0
C      1  0.4301920000000  0.5029980000000  0.4539160000000 1.0
C      1  0.4054010000000  0.5144900000000  0.4576680000000 1.0
C      1  0.4956320000000  0.4290090000000  0.6011670000000 1.0
C      1  0.5230670000000  0.5785240000000  0.3445790000000 1.0
C      1  0.5863850000000  0.5504370000000  0.4538070000000 1.0
C      1  0.4604290000000  0.3959440000000  0.5233120000000 1.0
C      1  0.4092750000000  0.5555100000000  0.5210070000000 1.0
C      1  0.5444250000000  0.4112490000000  0.4468570000000 1.0
C      1  0.5178990000000  0.5378310000000  0.3798240000000 1.0
C      1  0.6227410000000  0.5493820000000  0.5072690000000 1.0
C      1  0.4872880000000  0.4802410000000  0.4248290000000 1.0
C      1  0.5058470000000  0.5787480000000  0.6517840000000 1.0
C      1  0.4294280000000  0.5470360000000  0.4224680000000 1.0
C      1  0.4847320000000  0.5682430000000  0.5285320000000 1.0
C      1  0.6285580000000  0.4319320000000  0.5030950000000 1.0
C      1  0.4988760000000  0.4396820000000  0.4713400000000 1.0
C      1  0.5872070000000  0.5388560000000  0.4798190000000 1.0
C      1  0.5455020000000  0.4763400000000  0.4282620000000 1.0
C      1  0.5358550000000  0.5048210000000  0.4659070000000 1.0
C      1  0.4747680000000  0.6433450000000  0.5259190000000 1.0
C      1  0.4390850000000  0.5000730000000  0.4263150000000 1.0
C      1  0.5407250000000  0.5290030000000  0.4804830000000 1.0
C      1  0.4535900000000  0.4181520000000  0.4788860000000 1.0
C      1  0.4735820000000  0.4912980000000  0.5939470000000 1.0
C      1  0.4692070000000  0.6599810000000  0.5452030000000 1.0
C      1  0.4111770000000  0.4765430000000  0.5083170000000 1.0
C      1  0.4830220000000  0.5697680000000  0.5801940000000 1.0
C      1  0.5552350000000  0.5795710000000  0.5859990000000 1.0
C      1  0.4963520000000  0.6088960000000  0.4640960000000 1.0
C      1  0.5292490000000  0.3933710000000  0.5547650000000 1.0
C      1  0.5915720000000  0.5431270000000  0.5722090000000 1.0
C      1  0.5657160000000  0.5887480000000  0.4845430000000 1.0
C      1  0.4823790000000  0.5378250000000  0.5307680000000 1.0
C      1  0.4903850000000  0.5291350000000  0.4836840000000 1.0
C      1  0.5562360000000  0.5212520000000  0.5481490000000 1.0
C      1  0.4640790000000  0.5499680000000  0.5891310000000 1.0
C      1  0.5284150000000  0.5861060000000  0.5821990000000 1.0
C      1  0.4630290000000  0.4860840000000  0.5418480000000 1.0
C      1  0.5204730000000  0.5585250000000  0.3610840000000 1.0
C      1  0.4514550000000  0.4377280000000  0.5801000000000 1.0
C      1  0.5196260000000  0.3999100000000  0.4852470000000 1.0
C      1  0.3954380000000  0.4181050000000  0.4741030000000 1.0
C      1  0.5362660000000  0.5855930000000  0.4442510000000 1.0
C      1  0.4736680000000  0.5087740000000  0.6140690000000 1.0
C      1  0.4989320000000  0.3989430000000  0.4397590000000 1.0
C      1  0.5863090000000  0.4937900000000  0.5750240000000 1.0
C      1  0.5286870000000  0.5553760000000  0.4802850000000 1.0
C      1  0.4254190000000  0.5109750000000  0.5626140000000 1.0
C      1  0.4677570000000  0.4620510000000  0.4159670000000 1.0
C      1  0.5143340000000  0.6032820000000  0.4448860000000 1.0
C      1  0.5521910000000  0.4370710000000  0.4550000000000 1.0
C      1  0.5121740000000  0.3855260000000  0.5336600000000 1.0
C      1  0.4635880000000  0.4714110000000  0.4729800000000 1.0
C      1  0.4730120000000  0.4192920000000  0.5874250000000 1.0
C      1  0.4491840000000  0.4340970000000  0.5522690000000 1.0
C      1  0.3802400000000  0.4626530000000  0.4705160000000 1.0
C      1  0.5976290000000  0.4462490000000  0.5566520000000 1.0
C      1  0.5065640000000  0.4788520000000  0.5631230000000 1.0
C      1  0.5295610000000  0.5259360000000  0.5551070000000 1.0
C      1  0.4042760000000  0.5524910000000  0.5502620000000 1.0
C      1  0.4796260000000  0.4860450000000  0.5672170000000 1.0
C      1  0.4442090000000  0.4929000000000  0.4771070000000 1.0
C      1  0.4210070000000  0.5618620000000  0.5707390000000 1.0
C      1  0.4949990000000  0.4690280000000  0.4778450000000 1.0
C      1  0.4511870000000  0.5681770000000  0.4932150000000 1.0
C      1  0.4264160000000  0.4857890000000  0.5802510000000 1.0
C      1  0.5352380000000  0.3897460000000  0.5058590000000 1.0
C      1  0.4595210000000  0.3968750000000  0.4949120000000 1.0
C      1  0.5905300000000  0.5889460000000  0.4948560000000 1.0
C      1  0.5613240000000  0.4037820000000  0.5081060000000 1.0
C      1  0.4873400000000  0.5495080000000  0.4413640000000 1.0
END
