TITL C-247200-3482-166 0.00012502641504203 125000 -271.557517358536 0 0 45 (C1) n - 1
REM
REM in /home/nfs/bkarasulu/CARBON/AIRSS/Generating-Clusters/LCBOP/Only-C1/SD-CG/FIRE-HFTN
REM
REM
REM
REM
REM
REM ./C.cell (11c1c37f851c82e70ff6c80c92926a4b)
REM AIRSS Version 0.9.1 bugfix July 2018 build 013d7b7c2542+ Fri, 06 Jul 2018 19:26:36 +0100
REM compiler GCC version 9.2.1 20190827 (Red Hat 9.2.1-1)
REM options -cpp -mtune=generic -march=x86-64 -g -O0 -fpre-include=/usr/include/finclude/math-vector-fortran.h
REM seed 1907964661 -1504020074 1753059006 905566058 -1593398611 -933381386 -1620346162 1793532406 -1962469621 -1104136824 -1571521672 600552417 690610741 -1651518501 360875493 -324844720 261633220 -1581575034 1486126159 603263330 880548864 -1119637242 -320113320 1041818332 -1964661790 -1655525312 -841935786 410746072 -2095357992 35764296 -2133581910 308288088 363883207
REM
CELL 1.54180   50.00000   50.00000   50.00000   90.00000   90.00000   90.00000
LATT -1
SFAC C  
C      1  0.4683700000000  0.5190690000000  0.4258800000000 1.0
C      1  0.5042410000000  0.5930800000000  0.4551420000000 1.0
C      1  0.4610850000000  0.5585050000000  0.4740840000000 1.0
C      1  0.5100640000000  0.4849260000000  0.4646740000000 1.0
C      1  0.4614720000000  0.4564590000000  0.4607070000000 1.0
C      1  0.4713020000000  0.3750980000000  0.4954760000000 1.0
C      1  0.4770020000000  0.4252750000000  0.4950830000000 1.0
C      1  0.5563880000000  0.5442170000000  0.3907760000000 1.0
C      1  0.4632370000000  0.5478790000000  0.4263710000000 1.0
C      1  0.5180200000000  0.4647220000000  0.5073380000000 1.0
C      1  0.4715640000000  0.3680590000000  0.5215220000000 1.0
C      1  0.4808930000000  0.4483630000000  0.4792840000000 1.0
C      1  0.4524790000000  0.4967080000000  0.4300320000000 1.0
C      1  0.5038760000000  0.4648320000000  0.4832130000000 1.0
C      1  0.5013640000000  0.5313260000000  0.4759580000000 1.0
C      1  0.5795340000000  0.5462530000000  0.3789540000000 1.0
C      1  0.4743990000000  0.3833620000000  0.5435480000000 1.0
C      1  0.5328880000000  0.5421930000000  0.4028380000000 1.0
C      1  0.5157480000000  0.4874850000000  0.6002100000000 1.0
C      1  0.5374120000000  0.5680830000000  0.5476470000000 1.0
C      1  0.4736620000000  0.3994390000000  0.4841070000000 1.0
C      1  0.4975240000000  0.5176820000000  0.4299220000000 1.0
C      1  0.4498600000000  0.5573640000000  0.4494390000000 1.0
C      1  0.5055130000000  0.5111540000000  0.4564780000000 1.0
C      1  0.5166500000000  0.5055650000000  0.6228930000000 1.0
C      1  0.4962400000000  0.5859580000000  0.4303840000000 1.0
C      1  0.5299730000000  0.4890940000000  0.5521820000000 1.0
C      1  0.5261590000000  0.5011910000000  0.5768000000000 1.0
C      1  0.5380660000000  0.5496510000000  0.5667260000000 1.0
C      1  0.5195970000000  0.5868160000000  0.5023060000000 1.0
C      1  0.5086870000000  0.5405700000000  0.4159970000000 1.0
C      1  0.4508960000000  0.4736500000000  0.4433380000000 1.0
C      1  0.5271510000000  0.4745310000000  0.5302200000000 1.0
C      1  0.4782340000000  0.4111570000000  0.5469650000000 1.0
C      1  0.5042500000000  0.5799320000000  0.4801380000000 1.0
C      1  0.5264990000000  0.5304470000000  0.6121110000000 1.0
C      1  0.4770600000000  0.4265570000000  0.5233140000000 1.0
C      1  0.5310140000000  0.5816470000000  0.5257320000000 1.0
C      1  0.5047700000000  0.4620390000000  0.5994520000000 1.0
C      1  0.5318290000000  0.5288330000000  0.5837960000000 1.0
C      1  0.4844240000000  0.4228280000000  0.5714520000000 1.0
C      1  0.4884170000000  0.5614930000000  0.4188570000000 1.0
C      1  0.4938050000000  0.4401500000000  0.5892240000000 1.0
C      1  0.4885420000000  0.5559890000000  0.4808430000000 1.0
C      1  0.5098390000000  0.5003680000000  0.6485900000000 1.0
END
