TITL C-247199-3331-334 -2.47585056042364e-06 125000 -669.300144897743 0 0 110 (C1) n - 1
REM
REM in /home/nfs/bkarasulu/CARBON/AIRSS/Generating-Clusters/LCBOP/Only-C1/SD-CG/FIRE-HFTN
REM
REM
REM
REM
REM
REM ./C.cell (11c1c37f851c82e70ff6c80c92926a4b)
REM AIRSS Version 0.9.1 bugfix July 2018 build 013d7b7c2542+ Fri, 06 Jul 2018 19:26:36 +0100
REM compiler GCC version 9.2.1 20190827 (Red Hat 9.2.1-1)
REM options -cpp -mtune=generic -march=x86-64 -g -O0 -fpre-include=/usr/include/finclude/math-vector-fortran.h
REM seed -37761082 1594807961 1597201893 -188873204 1981383460 -106796484 1552449199 -1330631843 973380759 -247373710 -1955960839 -1494822803 -1291794545 1075992603 -1683744891 2048982369 726718064 1658187224 -2045518116 432728749 34313886 416240925 870386317 1627874510 1866642424 -1017700745 727532276 890760423 2133916846 -807545107 388963307 -836678300 -319605484
REM
CELL 1.54180   50.00000   50.00000   50.00000   90.00000   90.00000   90.00000
LATT -1
SFAC C  
C      1  0.5397530000000  0.5392290000000  0.5752310000000 1.0
C      1  0.5266910000000  0.3830250000000  0.5354510000000 1.0
C      1  0.5277800000000  0.5229070000000  0.3877400000000 1.0
C      1  0.4224510000000  0.4540650000000  0.4860880000000 1.0
C      1  0.4533300000000  0.4470330000000  0.4228910000000 1.0
C      1  0.5503620000000  0.4796300000000  0.6084920000000 1.0
C      1  0.5534580000000  0.5346060000000  0.4417710000000 1.0
C      1  0.4999400000000  0.3817390000000  0.5393990000000 1.0
C      1  0.4814350000000  0.5101720000000  0.6044150000000 1.0
C      1  0.5858930000000  0.5559150000000  0.4114410000000 1.0
C      1  0.5234770000000  0.5343620000000  0.4931760000000 1.0
C      1  0.5499520000000  0.5003380000000  0.5049770000000 1.0
C      1  0.4421100000000  0.5376110000000  0.5353140000000 1.0
C      1  0.4208480000000  0.4655190000000  0.5371610000000 1.0
C      1  0.6010690000000  0.4603430000000  0.5305010000000 1.0
C      1  0.5276630000000  0.4866980000000  0.5168920000000 1.0
C      1  0.4822360000000  0.5315620000000  0.4727220000000 1.0
C      1  0.4227560000000  0.4860160000000  0.4189330000000 1.0
C      1  0.5013810000000  0.4734610000000  0.4681820000000 1.0
C      1  0.4420070000000  0.5100950000000  0.5425590000000 1.0
C      1  0.4662780000000  0.4272860000000  0.5731360000000 1.0
C      1  0.4841240000000  0.5383610000000  0.6042970000000 1.0
C      1  0.5669210000000  0.5186260000000  0.4609640000000 1.0
C      1  0.4174620000000  0.4278170000000  0.4816840000000 1.0
C      1  0.4419430000000  0.4716000000000  0.4328980000000 1.0
C      1  0.5327040000000  0.5015510000000  0.6057980000000 1.0
C      1  0.5530240000000  0.5535000000000  0.5289560000000 1.0
C      1  0.5543920000000  0.4575430000000  0.5936290000000 1.0
C      1  0.4432550000000  0.5593570000000  0.5173210000000 1.0
C      1  0.5609730000000  0.5440150000000  0.4156360000000 1.0
C      1  0.4626020000000  0.4121950000000  0.4839370000000 1.0
C      1  0.5698690000000  0.5682660000000  0.5134260000000 1.0
C      1  0.5268740000000  0.4593370000000  0.5080490000000 1.0
C      1  0.6015680000000  0.5758800000000  0.4197670000000 1.0
C      1  0.4584730000000  0.5014640000000  0.5894580000000 1.0
C      1  0.5387900000000  0.3895200000000  0.5106950000000 1.0
C      1  0.5030820000000  0.4785510000000  0.5749970000000 1.0
C      1  0.5217640000000  0.4278110000000  0.4397310000000 1.0
C      1  0.5387350000000  0.5470950000000  0.3972140000000 1.0
C      1  0.5819950000000  0.4483370000000  0.5447920000000 1.0
C      1  0.5485840000000  0.4156470000000  0.5055930000000 1.0
C      1  0.4520830000000  0.4798300000000  0.4585120000000 1.0
C      1  0.5268950000000  0.3767690000000  0.4880410000000 1.0
C      1  0.4656820000000  0.5766260000000  0.5149700000000 1.0
C      1  0.4044800000000  0.5003870000000  0.4071620000000 1.0
C      1  0.5530210000000  0.4218990000000  0.4781370000000 1.0
C      1  0.4801840000000  0.3859930000000  0.5214960000000 1.0
C      1  0.5112200000000  0.5265300000000  0.4667990000000 1.0
C      1  0.4294750000000  0.4386350000000  0.5436310000000 1.0
C      1  0.5129660000000  0.5402960000000  0.5646610000000 1.0
C      1  0.6014190000000  0.5963510000000  0.4369800000000 1.0
C      1  0.5543200000000  0.4432500000000  0.5465620000000 1.0
C      1  0.4941570000000  0.6128260000000  0.4976970000000 1.0
C      1  0.5598340000000  0.6049880000000  0.4638570000000 1.0
C      1  0.5953470000000  0.4933590000000  0.4922820000000 1.0
C      1  0.5335920000000  0.4365090000000  0.4638100000000 1.0
C      1  0.5705130000000  0.5048120000000  0.4856010000000 1.0
C      1  0.4677560000000  0.5136140000000  0.4887050000000 1.0
C      1  0.4219020000000  0.5006000000000  0.4980510000000 1.0
C      1  0.5276520000000  0.5443290000000  0.4496000000000 1.0
C      1  0.4257280000000  0.4920680000000  0.5264720000000 1.0
C      1  0.5122620000000  0.4518300000000  0.5722870000000 1.0
C      1  0.4576470000000  0.5929420000000  0.4703570000000 1.0
C      1  0.4023500000000  0.5456710000000  0.4929580000000 1.0
C      1  0.5285630000000  0.5422060000000  0.5192020000000 1.0
C      1  0.5023230000000  0.5015940000000  0.5295420000000 1.0
C      1  0.4646730000000  0.6038690000000  0.4450050000000 1.0
C      1  0.4738990000000  0.5941600000000  0.4940820000000 1.0
C      1  0.5404630000000  0.4478810000000  0.5709400000000 1.0
C      1  0.4838140000000  0.5919960000000  0.4280480000000 1.0
C      1  0.5173110000000  0.5024660000000  0.4015730000000 1.0
C      1  0.5371810000000  0.5911150000000  0.4615660000000 1.0
C      1  0.4880690000000  0.4905620000000  0.5540950000000 1.0
C      1  0.4936540000000  0.5507200000000  0.5821740000000 1.0
C      1  0.5437470000000  0.5274940000000  0.6007960000000 1.0
C      1  0.4522480000000  0.6275540000000  0.4367580000000 1.0
C      1  0.5206840000000  0.4564580000000  0.4799570000000 1.0
C      1  0.5015090000000  0.3805730000000  0.4793290000000 1.0
C      1  0.4332200000000  0.4175990000000  0.5244120000000 1.0
C      1  0.5847360000000  0.6076450000000  0.4545730000000 1.0
C      1  0.4241840000000  0.5629190000000  0.4957920000000 1.0
C      1  0.5209780000000  0.5693400000000  0.4003410000000 1.0
C      1  0.5105120000000  0.6322460000000  0.5035900000000 1.0
C      1  0.4716040000000  0.4293790000000  0.4360930000000 1.0
C      1  0.5096870000000  0.4976220000000  0.4547670000000 1.0
C      1  0.4671740000000  0.4718550000000  0.5110440000000 1.0
C      1  0.4800930000000  0.3921610000000  0.4936870000000 1.0
C      1  0.4747720000000  0.4627660000000  0.4667860000000 1.0
C      1  0.4442380000000  0.5002560000000  0.4783570000000 1.0
C      1  0.5586800000000  0.5481140000000  0.5563310000000 1.0
C      1  0.5225870000000  0.5720670000000  0.4472450000000 1.0
C      1  0.4329580000000  0.5796520000000  0.4746770000000 1.0
C      1  0.5109860000000  0.5298460000000  0.5381330000000 1.0
C      1  0.4009980000000  0.5188610000000  0.4928770000000 1.0
C      1  0.5084140000000  0.5794710000000  0.4236960000000 1.0
C      1  0.5573800000000  0.5408380000000  0.6203990000000 1.0
C      1  0.4979550000000  0.4235250000000  0.4276850000000 1.0
C      1  0.4389870000000  0.4330770000000  0.5699660000000 1.0
C      1  0.4801380000000  0.4975110000000  0.5089360000000 1.0
C      1  0.5413220000000  0.4384210000000  0.5216680000000 1.0
C      1  0.5056840000000  0.4951050000000  0.5985370000000 1.0
C      1  0.5123580000000  0.4951730000000  0.4267030000000 1.0
C      1  0.4611340000000  0.4993640000000  0.5610860000000 1.0
C      1  0.4362340000000  0.4124200000000  0.4963390000000 1.0
C      1  0.4924570000000  0.4321400000000  0.5726470000000 1.0
C      1  0.4700840000000  0.4332240000000  0.4650270000000 1.0
C      1  0.6063240000000  0.4767700000000  0.5101290000000 1.0
C      1  0.4219770000000  0.4333280000000  0.5913540000000 1.0
C      1  0.4449480000000  0.4607270000000  0.5004960000000 1.0
C      1  0.4405740000000  0.6497310000000  0.4296140000000 1.0
END
