TITL C-247202-1916-377 2.93389163524064e-07 125000 -232.520000674856 0 0 40 (C1) n - 1
REM
REM in /home/nfs/bkarasulu/CARBON/AIRSS/Generating-Clusters/LCBOP/Only-C1/SD-CG/FIRE-HFTN
REM
REM
REM
REM
REM
REM ./C.cell (11c1c37f851c82e70ff6c80c92926a4b)
REM AIRSS Version 0.9.1 bugfix July 2018 build 013d7b7c2542+ Fri, 06 Jul 2018 19:26:36 +0100
REM compiler GCC version 9.2.1 20190827 (Red Hat 9.2.1-1)
REM options -cpp -mtune=generic -march=x86-64 -g -O0 -fpre-include=/usr/include/finclude/math-vector-fortran.h
REM seed -1154124333 1910359633 866935290 -346382353 -428850329 1398883627 -231489591 544562879 -1892694659 -858256022 -1301133203 1989906420 102820823 674184708 -548928274 -1515100874 -1010822619 -858606534 1473926795 -1158750943 279162805 1846334864 -710988264 1403448710 -1159482350 -813789946 -1161566202 1479081080 2007934779 -2130165005 -186752501 -309256058 -613955307
REM
CELL 1.54180   50.00000   50.00000   50.00000   90.00000   90.00000   90.00000
LATT -1
SFAC C  
C      1  0.4601110000000  0.5017970000000  0.6135820000000 1.0
C      1  0.4397800000000  0.4912950000000  0.5713180000000 1.0
C      1  0.5392500000000  0.4603750000000  0.4703990000000 1.0
C      1  0.4960130000000  0.5209490000000  0.5191130000000 1.0
C      1  0.6039800000000  0.4437920000000  0.4428460000000 1.0
C      1  0.4981010000000  0.4579210000000  0.5943360000000 1.0
C      1  0.5671480000000  0.5128400000000  0.5048130000000 1.0
C      1  0.4718670000000  0.5163900000000  0.5057690000000 1.0
C      1  0.4556280000000  0.4904600000000  0.4555010000000 1.0
C      1  0.4858880000000  0.4789370000000  0.5796270000000 1.0
C      1  0.4644340000000  0.5034970000000  0.4323660000000 1.0
C      1  0.4991440000000  0.5136430000000  0.5464930000000 1.0
C      1  0.5321530000000  0.5064350000000  0.4209140000000 1.0
C      1  0.5137060000000  0.5588600000000  0.4935980000000 1.0
C      1  0.5187740000000  0.4643290000000  0.5143620000000 1.0
C      1  0.5807210000000  0.4551850000000  0.4457540000000 1.0
C      1  0.5268850000000  0.4467860000000  0.5591020000000 1.0
C      1  0.4846880000000  0.5152010000000  0.4197160000000 1.0
C      1  0.4992530000000  0.4864480000000  0.5549200000000 1.0
C      1  0.5141330000000  0.5786460000000  0.4737740000000 1.0
C      1  0.5180600000000  0.4425290000000  0.5843740000000 1.0
C      1  0.4374170000000  0.5030170000000  0.4733340000000 1.0
C      1  0.5159660000000  0.5701450000000  0.4471510000000 1.0
C      1  0.5128130000000  0.6051560000000  0.4801620000000 1.0
C      1  0.5166860000000  0.4598970000000  0.4868790000000 1.0
C      1  0.4617600000000  0.4907720000000  0.5886070000000 1.0
C      1  0.4913600000000  0.4574870000000  0.4752490000000 1.0
C      1  0.4125890000000  0.5108380000000  0.4649810000000 1.0
C      1  0.5472320000000  0.4870990000000  0.4310720000000 1.0
C      1  0.5026880000000  0.5335290000000  0.5650880000000 1.0
C      1  0.4297840000000  0.5002290000000  0.5218120000000 1.0
C      1  0.5156890000000  0.4664760000000  0.5419240000000 1.0
C      1  0.5175180000000  0.5340060000000  0.5058200000000 1.0
C      1  0.4696010000000  0.4677290000000  0.4640050000000 1.0
C      1  0.5558810000000  0.4674530000000  0.4490360000000 1.0
C      1  0.4281230000000  0.4945480000000  0.5477030000000 1.0
C      1  0.5154130000000  0.5513030000000  0.4284460000000 1.0
C      1  0.5427740000000  0.5220640000000  0.5049850000000 1.0
C      1  0.4459890000000  0.5072010000000  0.5001100000000 1.0
C      1  0.5109950000000  0.5247330000000  0.4209540000000 1.0
END
