TITL C-247198-3593-375 -1.71781942638439 125000 -904.466336486446 0 0 148 (C1) n - 1
REM
REM in /home/nfs/bkarasulu/CARBON/AIRSS/Generating-Clusters/LCBOP/Only-C1/SD-CG/FIRE-HFTN
REM
REM
REM
REM
REM
REM ./C.cell (11c1c37f851c82e70ff6c80c92926a4b)
REM AIRSS Version 0.9.1 bugfix July 2018 build 013d7b7c2542+ Fri, 06 Jul 2018 19:26:36 +0100
REM compiler GCC version 9.2.1 20190827 (Red Hat 9.2.1-1)
REM options -cpp -mtune=generic -march=x86-64 -g -O0 -fpre-include=/usr/include/finclude/math-vector-fortran.h
REM seed -2108922606 -1840670829 -1103977179 708004953 1785839053 2107817395 142644872 -2019909756 -1024643553 124071208 -951642679 -47476300 1726343300 -419381569 932142322 -1846346784 -715751640 -871561800 1484078727 -1442815514 -12010458 -1268542721 1418617316 -1487961509 -1889026735 -917130382 -1335260908 84062673 1497202475 292850969 1977841594 -1195293928 591171802
REM
CELL 1.54180   50.00000   50.00000   50.00000   90.00000   90.00000   90.00000
LATT -1
SFAC C  
C      1  0.5306980000000  0.4870080000000  0.4751660000000 1.0
C      1  0.5088870000000  0.4686680000000  0.4754810000000 1.0
C      1  0.5261390000000  0.5081140000000  0.4545130000000 1.0
C      1  0.5444260000000  0.5301580000000  0.4530780000000 1.0
C      1  0.4215540000000  0.5010070000000  0.5476020000000 1.0
C      1  0.5236950000000  0.5414560000000  0.5812080000000 1.0
C      1  0.4140890000000  0.4843160000000  0.4346390000000 1.0
C      1  0.5608080000000  0.5357190000000  0.4093710000000 1.0
C      1  0.4918110000000  0.4057760000000  0.5659860000000 1.0
C      1  0.5819940000000  0.4531990000000  0.5071860000000 1.0
C      1  0.5712260000000  0.5233130000000  0.5092520000000 1.0
C      1  0.4003250000000  0.5005200000000  0.4550220000000 1.0
C      1  0.5760060000000  0.4917470000000  0.4296350000000 1.0
C      1  0.5422210000000  0.5071380000000  0.5474850000000 1.0
C      1  0.5503380000000  0.5472810000000  0.4334550000000 1.0
C      1  0.5933620000000  0.4911130000000  0.4802650000000 1.0
C      1  0.5377210000000  0.4301480000000  0.4133090000000 1.0
C      1  0.5821800000000  0.5187000000000  0.4210640000000 1.0
C      1  0.4169180000000  0.5020910000000  0.5753160000000 1.0
C      1  0.5135590000000  0.4992230000000  0.4219800000000 1.0
C      1  0.5148740000000  0.5513540000000  0.3971070000000 1.0
C      1  0.5730990000000  0.5666500000000  0.4687310000000 1.0
C      1  0.3893420000000  0.4946720000000  0.4821510000000 1.0
C      1  0.4211810000000  0.5859580000000  0.4649760000000 1.0
C      1  0.5674260000000  0.4495630000000  0.4524850000000 1.0
C      1  0.5887180000000  0.5416820000000  0.4665490000000 1.0
C      1  0.4974150000000  0.5129470000000  0.5231780000000 1.0
C      1  0.5638060000000  0.4071340000000  0.5498020000000 1.0
C      1  0.4915940000000  0.5588390000000  0.5211200000000 1.0
C      1  0.5538280000000  0.5874820000000  0.4605360000000 1.0
C      1  0.4616670000000  0.5146150000000  0.6070250000000 1.0
C      1  0.5977440000000  0.5335600000000  0.4404030000000 1.0
C      1  0.5493780000000  0.4755170000000  0.6018780000000 1.0
C      1  0.5037900000000  0.4508790000000  0.4557730000000 1.0
C      1  0.4089410000000  0.5281400000000  0.4574580000000 1.0
C      1  0.5011460000000  0.5226220000000  0.4648460000000 1.0
C      1  0.3944520000000  0.5053290000000  0.5094680000000 1.0
C      1  0.4569460000000  0.4672050000000  0.4339090000000 1.0
C      1  0.5962300000000  0.5441010000000  0.5736870000000 1.0
C      1  0.4100410000000  0.5308270000000  0.5771350000000 1.0
C      1  0.5545330000000  0.4574820000000  0.5059840000000 1.0
C      1  0.4841440000000  0.6027800000000  0.5213720000000 1.0
C      1  0.5546900000000  0.4309060000000  0.4704920000000 1.0
C      1  0.4290290000000  0.4597740000000  0.4425080000000 1.0
C      1  0.4830970000000  0.4954910000000  0.5067030000000 1.0
C      1  0.5868980000000  0.5197470000000  0.4856200000000 1.0
C      1  0.5305890000000  0.4848750000000  0.4054210000000 1.0
C      1  0.4635650000000  0.4681500000000  0.5931610000000 1.0
C      1  0.4586970000000  0.5283590000000  0.5839850000000 1.0
C      1  0.5703550000000  0.5425470000000  0.5677100000000 1.0
C      1  0.5644320000000  0.6101250000000  0.4477580000000 1.0
C      1  0.4335270000000  0.5675870000000  0.4471260000000 1.0
C      1  0.4570010000000  0.4558080000000  0.5191370000000 1.0
C      1  0.4568960000000  0.5006950000000  0.4954620000000 1.0
C      1  0.4571750000000  0.4139360000000  0.5330360000000 1.0
C      1  0.5314200000000  0.4315180000000  0.5766530000000 1.0
C      1  0.4807080000000  0.6113670000000  0.4649140000000 1.0
C      1  0.5037660000000  0.4003760000000  0.4408980000000 1.0
C      1  0.5166840000000  0.4289210000000  0.5100290000000 1.0
C      1  0.5056700000000  0.4533790000000  0.5203140000000 1.0
C      1  0.4178720000000  0.5532570000000  0.5582290000000 1.0
C      1  0.5281830000000  0.4845960000000  0.5594900000000 1.0
C      1  0.6249960000000  0.4633340000000  0.5738380000000 1.0
C      1  0.4337390000000  0.4712080000000  0.5823820000000 1.0
C      1  0.5037960000000  0.5835740000000  0.5117870000000 1.0
C      1  0.5558510000000  0.4763830000000  0.4158460000000 1.0
C      1  0.4490150000000  0.4783280000000  0.4799030000000 1.0
C      1  0.5056140000000  0.4973970000000  0.6012900000000 1.0
C      1  0.4574930000000  0.6122100000000  0.4791220000000 1.0
C      1  0.5452890000000  0.4844710000000  0.5006440000000 1.0
C      1  0.5511610000000  0.3878320000000  0.5360770000000 1.0
C      1  0.4233080000000  0.4498810000000  0.5590450000000 1.0
C      1  0.5259220000000  0.4826610000000  0.5882070000000 1.0
C      1  0.5063190000000  0.5361190000000  0.5120310000000 1.0
C      1  0.5025520000000  0.4281910000000  0.5796900000000 1.0
C      1  0.4586570000000  0.4755860000000  0.5363730000000 1.0
C      1  0.4133240000000  0.5417250000000  0.4102690000000 1.0
C      1  0.6090040000000  0.4795760000000  0.5312500000000 1.0
C      1  0.3988760000000  0.4444640000000  0.5132930000000 1.0
C      1  0.4135560000000  0.3751210000000  0.4492270000000 1.0
C      1  0.5133520000000  0.5248340000000  0.6018230000000 1.0
C      1  0.4339260000000  0.3898390000000  0.4561230000000 1.0
C      1  0.6377530000000  0.4867720000000  0.5797090000000 1.0
C      1  0.4488950000000  0.4285060000000  0.4811400000000 1.0
C      1  0.4988790000000  0.5932060000000  0.4519140000000 1.0
C      1  0.4675540000000  0.5585130000000  0.5061260000000 1.0
C      1  0.4956130000000  0.4706750000000  0.5002670000000 1.0
C      1  0.4199680000000  0.5323990000000  0.4835150000000 1.0
C      1  0.5205410000000  0.4666600000000  0.3860280000000 1.0
C      1  0.5407020000000  0.4344890000000  0.4953160000000 1.0
C      1  0.6249940000000  0.5022760000000  0.5373640000000 1.0
C      1  0.4032200000000  0.4883340000000  0.5311290000000 1.0
C      1  0.5995370000000  0.4749820000000  0.5044530000000 1.0
C      1  0.4590400000000  0.4884830000000  0.4131820000000 1.0
C      1  0.4548160000000  0.4067970000000  0.4638460000000 1.0
C      1  0.5269570000000  0.3847520000000  0.5246020000000 1.0
C      1  0.6323860000000  0.5097520000000  0.5638270000000 1.0
C      1  0.4206660000000  0.5188780000000  0.3981670000000 1.0
C      1  0.5248990000000  0.5867400000000  0.4644930000000 1.0
C      1  0.4553770000000  0.4295960000000  0.5089550000000 1.0
C      1  0.4386010000000  0.4250710000000  0.5532890000000 1.0
C      1  0.5097640000000  0.5655970000000  0.5772870000000 1.0
C      1  0.5557970000000  0.4488190000000  0.4255530000000 1.0
C      1  0.4066520000000  0.4479330000000  0.4876690000000 1.0
C      1  0.4800150000000  0.5071060000000  0.4511680000000 1.0
C      1  0.5517810000000  0.5054670000000  0.5198050000000 1.0
C      1  0.5395300000000  0.5408990000000  0.3908580000000 1.0
C      1  0.5448850000000  0.5311280000000  0.5642550000000 1.0
C      1  0.4305610000000  0.4965390000000  0.4118350000000 1.0
C      1  0.4663860000000  0.4820440000000  0.4571800000000 1.0
C      1  0.4838430000000  0.4042770000000  0.5388660000000 1.0
C      1  0.6205260000000  0.5329910000000  0.5738770000000 1.0
C      1  0.4819330000000  0.4462180000000  0.5887700000000 1.0
C      1  0.4488320000000  0.5003270000000  0.5440860000000 1.0
C      1  0.5151310000000  0.4654140000000  0.5437240000000 1.0
C      1  0.4613230000000  0.5612450000000  0.4537540000000 1.0
C      1  0.4848540000000  0.5029010000000  0.4216170000000 1.0
C      1  0.5582410000000  0.4307370000000  0.5642410000000 1.0
C      1  0.5739370000000  0.6311720000000  0.4347780000000 1.0
C      1  0.5781700000000  0.4520070000000  0.5680630000000 1.0
C      1  0.4164190000000  0.5564450000000  0.5277820000000 1.0
C      1  0.5832400000000  0.6518760000000  0.4219530000000 1.0
C      1  0.4626750000000  0.5486930000000  0.4801380000000 1.0
C      1  0.5107990000000  0.5428630000000  0.4844060000000 1.0
C      1  0.5725540000000  0.4661610000000  0.5922310000000 1.0
C      1  0.4319200000000  0.4531390000000  0.4725880000000 1.0
C      1  0.4774500000000  0.4912000000000  0.6049870000000 1.0
C      1  0.4651570000000  0.5178950000000  0.5587470000000 1.0
C      1  0.4912820000000  0.5159700000000  0.5501380000000 1.0
C      1  0.4864120000000  0.5786110000000  0.5786500000000 1.0
C      1  0.5252490000000  0.4400740000000  0.3895710000000 1.0
C      1  0.4341530000000  0.5969370000000  0.4873720000000 1.0
C      1  0.4572690000000  0.5980000000000  0.5274380000000 1.0
C      1  0.4352190000000  0.5725250000000  0.5706890000000 1.0
C      1  0.4807180000000  0.4015800000000  0.4542810000000 1.0
C      1  0.4333000000000  0.5853190000000  0.5149390000000 1.0
C      1  0.5821940000000  0.4772130000000  0.4558130000000 1.0
C      1  0.4597540000000  0.5806870000000  0.5776990000000 1.0
C      1  0.4848300000000  0.5709870000000  0.4387750000000 1.0
C      1  0.4164190000000  0.5471020000000  0.4375260000000 1.0
C      1  0.4471580000000  0.5256000000000  0.4854890000000 1.0
C      1  0.6029550000000  0.4616990000000  0.5549650000000 1.0
C      1  0.4963370000000  0.5603600000000  0.4148380000000 1.0
C      1  0.4047560000000  0.4597060000000  0.5364010000000 1.0
C      1  0.5067150000000  0.4042220000000  0.5206780000000 1.0
C      1  0.5247970000000  0.4093900000000  0.4270910000000 1.0
C      1  0.5170160000000  0.5723440000000  0.4874920000000 1.0
C      1  0.4064350000000  0.5335220000000  0.5091640000000 1.0
END
