TITL C-247195-3186-361 0.123364869669958 125000 -308.552710376202 0 0 52 (C1) n - 1
REM
REM in /home/nfs/bkarasulu/CARBON/AIRSS/Generating-Clusters/LCBOP/Only-C1/SD-CG/FIRE-HFTN
REM
REM
REM
REM
REM
REM ./C.cell (11c1c37f851c82e70ff6c80c92926a4b)
REM AIRSS Version 0.9.1 bugfix July 2018 build 013d7b7c2542+ Fri, 06 Jul 2018 19:26:36 +0100
REM compiler GCC version 9.2.1 20190827 (Red Hat 9.2.1-1)
REM options -cpp -mtune=generic -march=x86-64 -g -O0 -fpre-include=/usr/include/finclude/math-vector-fortran.h
REM seed 1587367687 531718950 1679518792 -1059635675 -917191630 1780353890 -1382476233 889120178 -936196070 -397669442 113605293 -1719498678 -425268671 -176873265 635841591 1815168552 -1783594702 662860013 -199720156 636919377 -1606741347 -662884324 500577945 1122138641 1873387914 192507563 -1161824593 1691439940 237405636 1741976509 -588036205 -871609304 1464344666
REM
CELL 1.54180   50.00000   50.00000   50.00000   90.00000   90.00000   90.00000
LATT -1
SFAC C  
C      1  0.5935130000000  0.4108820000000  0.5566840000000 1.0
C      1  0.4766940000000  0.4417250000000  0.4765810000000 1.0
C      1  0.4841890000000  0.5703810000000  0.5367590000000 1.0
C      1  0.4433620000000  0.4586140000000  0.5154140000000 1.0
C      1  0.4339820000000  0.4760090000000  0.5331050000000 1.0
C      1  0.4341990000000  0.5699080000000  0.6004800000000 1.0
C      1  0.5211150000000  0.4842790000000  0.5305140000000 1.0
C      1  0.4804560000000  0.4768510000000  0.4424210000000 1.0
C      1  0.5500990000000  0.5349620000000  0.4270190000000 1.0
C      1  0.4682400000000  0.5018070000000  0.4456130000000 1.0
C      1  0.4304320000000  0.5711540000000  0.6262360000000 1.0
C      1  0.4868890000000  0.5932990000000  0.4742630000000 1.0
C      1  0.4312190000000  0.4978710000000  0.5478790000000 1.0
C      1  0.4910610000000  0.4633820000000  0.4650700000000 1.0
C      1  0.4296120000000  0.5904830000000  0.5563080000000 1.0
C      1  0.4748990000000  0.5533510000000  0.4498420000000 1.0
C      1  0.4772110000000  0.5474300000000  0.5512590000000 1.0
C      1  0.4577310000000  0.4469560000000  0.4964290000000 1.0
C      1  0.4505110000000  0.5457870000000  0.5613280000000 1.0
C      1  0.5752130000000  0.4298700000000  0.5540900000000 1.0
C      1  0.5557510000000  0.4468530000000  0.4664150000000 1.0
C      1  0.4789280000000  0.5998910000000  0.4987500000000 1.0
C      1  0.5018900000000  0.4685640000000  0.3955410000000 1.0
C      1  0.4818000000000  0.4155980000000  0.4682170000000 1.0
C      1  0.5087980000000  0.5046270000000  0.5451360000000 1.0
C      1  0.4364200000000  0.5218780000000  0.5579010000000 1.0
C      1  0.4946560000000  0.5257330000000  0.5526570000000 1.0
C      1  0.6117590000000  0.3917240000000  0.5582970000000 1.0
C      1  0.5401860000000  0.4697960000000  0.4629530000000 1.0
C      1  0.4855960000000  0.4671940000000  0.4166180000000 1.0
C      1  0.4041700000000  0.6015550000000  0.5590310000000 1.0
C      1  0.5185090000000  0.5723940000000  0.4434100000000 1.0
C      1  0.4881680000000  0.3917550000000  0.4598450000000 1.0
C      1  0.6296040000000  0.3727420000000  0.5592390000000 1.0
C      1  0.5247780000000  0.4801300000000  0.3880090000000 1.0
C      1  0.5688890000000  0.4250020000000  0.4735900000000 1.0
C      1  0.4666730000000  0.5282310000000  0.4474600000000 1.0
C      1  0.4475790000000  0.6001860000000  0.5369790000000 1.0
C      1  0.5390580000000  0.4668350000000  0.5429260000000 1.0
C      1  0.5490240000000  0.4904050000000  0.4462370000000 1.0
C      1  0.5495900000000  0.5072180000000  0.4238090000000 1.0
C      1  0.4930870000000  0.5740580000000  0.4549900000000 1.0
C      1  0.3803280000000  0.6115980000000  0.5621760000000 1.0
C      1  0.5812900000000  0.4032070000000  0.4821780000000 1.0
C      1  0.4712020000000  0.5919660000000  0.5242980000000 1.0
C      1  0.5154800000000  0.4719690000000  0.4769140000000 1.0
C      1  0.4379040000000  0.5686420000000  0.5728200000000 1.0
C      1  0.5386840000000  0.5579880000000  0.4338010000000 1.0
C      1  0.5933240000000  0.3815660000000  0.4903340000000 1.0
C      1  0.5569900000000  0.4486730000000  0.5500160000000 1.0
C      1  0.5156740000000  0.4813010000000  0.5032660000000 1.0
C      1  0.5435830000000  0.4957180000000  0.3988940000000 1.0
END
