TITL C-247202-1916-231 -5.40510516843128e-07 125000 -279.631739960057 0 0 47 (C1) n - 1
REM
REM in /home/nfs/bkarasulu/CARBON/AIRSS/Generating-Clusters/LCBOP/Only-C1/SD-CG/FIRE-HFTN
REM
REM
REM
REM
REM
REM ./C.cell (11c1c37f851c82e70ff6c80c92926a4b)
REM AIRSS Version 0.9.1 bugfix July 2018 build 013d7b7c2542+ Fri, 06 Jul 2018 19:26:36 +0100
REM compiler GCC version 9.2.1 20190827 (Red Hat 9.2.1-1)
REM options -cpp -mtune=generic -march=x86-64 -g -O0 -fpre-include=/usr/include/finclude/math-vector-fortran.h
REM seed 2135434201 -674238939 1451854206 -1907478332 -1854350526 1626784398 -1642677763 1457382587 -172192047 -1851096718 -248761207 -490235421 -416212215 -513383946 562327814 -71049268 944140672 -1219767841 1563824155 1817363667 441644212 -1822462272 334248279 1050166409 -34056855 -924550487 1456213784 320282154 1946669563 -1246653820 1250427844 1480925309 -2128230323
REM
CELL 1.54180   50.00000   50.00000   50.00000   90.00000   90.00000   90.00000
LATT -1
SFAC C  
C      1  0.5731410000000  0.4596960000000  0.4933150000000 1.0
C      1  0.4915280000000  0.5883520000000  0.4818470000000 1.0
C      1  0.4571500000000  0.5177040000000  0.5430190000000 1.0
C      1  0.4950760000000  0.5293180000000  0.4527840000000 1.0
C      1  0.4704140000000  0.4464310000000  0.5283010000000 1.0
C      1  0.5118130000000  0.5796060000000  0.4966890000000 1.0
C      1  0.4174240000000  0.5329050000000  0.4503590000000 1.0
C      1  0.5415620000000  0.4996970000000  0.4849760000000 1.0
C      1  0.5217150000000  0.5352060000000  0.5222310000000 1.0
C      1  0.5027530000000  0.4425060000000  0.4887840000000 1.0
C      1  0.5308950000000  0.4992220000000  0.4573480000000 1.0
C      1  0.4544540000000  0.4914770000000  0.5032990000000 1.0
C      1  0.4524750000000  0.4920770000000  0.5316480000000 1.0
C      1  0.5353580000000  0.5208190000000  0.5822150000000 1.0
C      1  0.4799070000000  0.5201030000000  0.4727870000000 1.0
C      1  0.5209110000000  0.4723270000000  0.4520220000000 1.0
C      1  0.4226830000000  0.4845320000000  0.4675590000000 1.0
C      1  0.4790690000000  0.5023020000000  0.4943340000000 1.0
C      1  0.6104760000000  0.4673310000000  0.4551210000000 1.0
C      1  0.4633840000000  0.4687810000000  0.5451360000000 1.0
C      1  0.4683880000000  0.5866470000000  0.4688430000000 1.0
C      1  0.4543060000000  0.4486060000000  0.4835440000000 1.0
C      1  0.5123910000000  0.5152330000000  0.5684880000000 1.0
C      1  0.5786110000000  0.4452610000000  0.5166750000000 1.0
C      1  0.5472940000000  0.4705020000000  0.4893440000000 1.0
C      1  0.4764320000000  0.4418410000000  0.5003940000000 1.0
C      1  0.5208270000000  0.5220410000000  0.4441360000000 1.0
C      1  0.4414070000000  0.4737730000000  0.4851720000000 1.0
C      1  0.5219990000000  0.4586250000000  0.5435890000000 1.0
C      1  0.5104780000000  0.4633240000000  0.4285940000000 1.0
C      1  0.5243660000000  0.4563750000000  0.4764120000000 1.0
C      1  0.5671800000000  0.4386510000000  0.5398900000000 1.0
C      1  0.5929380000000  0.4632850000000  0.4739680000000 1.0
C      1  0.4773930000000  0.4751360000000  0.5690100000000 1.0
C      1  0.4690730000000  0.5645110000000  0.5465760000000 1.0
C      1  0.4766420000000  0.5382700000000  0.5449280000000 1.0
C      1  0.4465170000000  0.5755750000000  0.4585340000000 1.0
C      1  0.5045990000000  0.5309500000000  0.5457160000000 1.0
C      1  0.5238560000000  0.5609850000000  0.5114690000000 1.0
C      1  0.4954710000000  0.4937970000000  0.5763300000000 1.0
C      1  0.5082740000000  0.4747810000000  0.5274540000000 1.0
C      1  0.5433920000000  0.4444360000000  0.5506250000000 1.0
C      1  0.5346750000000  0.5356610000000  0.4250870000000 1.0
C      1  0.5252390000000  0.5124140000000  0.5050790000000 1.0
C      1  0.5025190000000  0.4951140000000  0.5090640000000 1.0
C      1  0.4287750000000  0.5569110000000  0.4519010000000 1.0
C      1  0.4147710000000  0.5069030000000  0.4554050000000 1.0
END
