TITL C-247202-1916-184 -7.64386051990351e-07 125000 -711.412245115519 0 0 118 (C1) n - 1
REM
REM in /home/nfs/bkarasulu/CARBON/AIRSS/Generating-Clusters/LCBOP/Only-C1/SD-CG/FIRE-HFTN
REM
REM
REM
REM
REM
REM ./C.cell (11c1c37f851c82e70ff6c80c92926a4b)
REM AIRSS Version 0.9.1 bugfix July 2018 build 013d7b7c2542+ Fri, 06 Jul 2018 19:26:36 +0100
REM compiler GCC version 9.2.1 20190827 (Red Hat 9.2.1-1)
REM options -cpp -mtune=generic -march=x86-64 -g -O0 -fpre-include=/usr/include/finclude/math-vector-fortran.h
REM seed -1529786348 2062951366 1701447088 637828583 1097151271 1285320530 -1705478286 -1161811840 -211136950 -362488824 1950895349 745479273 -1436698009 -2132458645 -1404385125 -180948831 -1089489838 -528135235 -531403653 201999315 1827662167 -1591904195 -548100752 -2134151501 1899887475 -35844947 677326926 1085187389 332652642 1757494594 460740477 -1993131096 409079226
REM
CELL 1.54180   50.00000   50.00000   50.00000   90.00000   90.00000   90.00000
LATT -1
SFAC C  
C      1  0.5490360000000  0.4375330000000  0.4533350000000 1.0
C      1  0.4395530000000  0.4513900000000  0.4408000000000 1.0
C      1  0.4809010000000  0.5534720000000  0.4469790000000 1.0
C      1  0.5609200000000  0.5585810000000  0.5613570000000 1.0
C      1  0.4087120000000  0.5573070000000  0.5188550000000 1.0
C      1  0.4312710000000  0.5509100000000  0.5627390000000 1.0
C      1  0.4459060000000  0.4748950000000  0.5253140000000 1.0
C      1  0.4652360000000  0.5902770000000  0.5617880000000 1.0
C      1  0.4078740000000  0.4416660000000  0.4777400000000 1.0
C      1  0.5860460000000  0.4508040000000  0.5298440000000 1.0
C      1  0.5442600000000  0.4682240000000  0.5153050000000 1.0
C      1  0.3905190000000  0.5149220000000  0.4952710000000 1.0
C      1  0.4844420000000  0.6112020000000  0.4986670000000 1.0
C      1  0.4106300000000  0.5508550000000  0.4660340000000 1.0
C      1  0.4877550000000  0.5010440000000  0.4602490000000 1.0
C      1  0.3888150000000  0.4604470000000  0.4903090000000 1.0
C      1  0.4659580000000  0.5950240000000  0.4846380000000 1.0
C      1  0.3469020000000  0.5319530000000  0.4835410000000 1.0
C      1  0.5320330000000  0.5642240000000  0.4442240000000 1.0
C      1  0.5800210000000  0.5207170000000  0.5315770000000 1.0
C      1  0.5430140000000  0.4975800000000  0.4788590000000 1.0
C      1  0.4973170000000  0.5037710000000  0.5205190000000 1.0
C      1  0.4412560000000  0.5910630000000  0.4981900000000 1.0
C      1  0.4628820000000  0.5115770000000  0.5856390000000 1.0
C      1  0.5584390000000  0.5077950000000  0.4309180000000 1.0
C      1  0.5607130000000  0.5241560000000  0.3880720000000 1.0
C      1  0.4758680000000  0.5004740000000  0.3954350000000 1.0
C      1  0.5284570000000  0.5185260000000  0.5671910000000 1.0
C      1  0.4732600000000  0.4504460000000  0.4068580000000 1.0
C      1  0.5508450000000  0.5613260000000  0.4655120000000 1.0
C      1  0.4599560000000  0.5414430000000  0.5074780000000 1.0
C      1  0.4232250000000  0.4187940000000  0.4842940000000 1.0
C      1  0.4846600000000  0.3971560000000  0.5195450000000 1.0
C      1  0.5298880000000  0.4760570000000  0.5884410000000 1.0
C      1  0.5763440000000  0.4898280000000  0.4155590000000 1.0
C      1  0.5914520000000  0.4521540000000  0.4667820000000 1.0
C      1  0.5770040000000  0.5491610000000  0.4663550000000 1.0
C      1  0.5005340000000  0.5070170000000  0.4079290000000 1.0
C      1  0.5847390000000  0.5203570000000  0.5800990000000 1.0
C      1  0.4436890000000  0.5331180000000  0.5818490000000 1.0
C      1  0.3986030000000  0.4883690000000  0.4890200000000 1.0
C      1  0.5351240000000  0.5644090000000  0.5737650000000 1.0
C      1  0.5207190000000  0.4606450000000  0.4061890000000 1.0
C      1  0.5110800000000  0.4835050000000  0.4210530000000 1.0
C      1  0.4843390000000  0.5114310000000  0.5441850000000 1.0
C      1  0.4842330000000  0.5390270000000  0.5479240000000 1.0
C      1  0.4100070000000  0.5383090000000  0.4939050000000 1.0
C      1  0.5255650000000  0.4091640000000  0.4968890000000 1.0
C      1  0.4649320000000  0.4424000000000  0.4332060000000 1.0
C      1  0.5978320000000  0.5021130000000  0.5169170000000 1.0
C      1  0.4549700000000  0.4733820000000  0.5518020000000 1.0
C      1  0.4672250000000  0.5534920000000  0.5316060000000 1.0
C      1  0.5983240000000  0.4752420000000  0.5282610000000 1.0
C      1  0.3541040000000  0.5136710000000  0.5269760000000 1.0
C      1  0.4872430000000  0.5112560000000  0.6018950000000 1.0
C      1  0.4623210000000  0.4222530000000  0.5586250000000 1.0
C      1  0.5735860000000  0.4493000000000  0.4444920000000 1.0
C      1  0.4672920000000  0.4967360000000  0.5614550000000 1.0
C      1  0.5169910000000  0.5863510000000  0.5726620000000 1.0
C      1  0.4243680000000  0.4603930000000  0.4618260000000 1.0
C      1  0.5722380000000  0.4319570000000  0.5123790000000 1.0
C      1  0.5788540000000  0.5357220000000  0.5566740000000 1.0
C      1  0.5086010000000  0.5522410000000  0.4320040000000 1.0
C      1  0.4995540000000  0.4434490000000  0.3986460000000 1.0
C      1  0.3633780000000  0.5203420000000  0.5020850000000 1.0
C      1  0.4720410000000  0.4036050000000  0.5421860000000 1.0
C      1  0.5158510000000  0.5303980000000  0.4139720000000 1.0
C      1  0.4966630000000  0.4063160000000  0.4953890000000 1.0
C      1  0.5176480000000  0.5542420000000  0.5077440000000 1.0
C      1  0.5300780000000  0.4509110000000  0.4691900000000 1.0
C      1  0.5385000000000  0.5624900000000  0.4905130000000 1.0
C      1  0.4567560000000  0.4479440000000  0.5633830000000 1.0
C      1  0.5795010000000  0.5038740000000  0.3904130000000 1.0
C      1  0.4817140000000  0.5268600000000  0.4616300000000 1.0
C      1  0.5552680000000  0.4846280000000  0.6031210000000 1.0
C      1  0.5063450000000  0.4518440000000  0.5286890000000 1.0
C      1  0.5337770000000  0.4913260000000  0.5623670000000 1.0
C      1  0.5344020000000  0.4006400000000  0.5719960000000 1.0
C      1  0.5024210000000  0.5356000000000  0.6023760000000 1.0
C      1  0.5268700000000  0.4334750000000  0.5370610000000 1.0
C      1  0.4275110000000  0.5529770000000  0.4449420000000 1.0
C      1  0.5300620000000  0.4265210000000  0.5643930000000 1.0
C      1  0.5479310000000  0.4541950000000  0.4042370000000 1.0
C      1  0.4773370000000  0.5776750000000  0.4651290000000 1.0
C      1  0.4076610000000  0.5460580000000  0.5459160000000 1.0
C      1  0.5828060000000  0.5213410000000  0.4707030000000 1.0
C      1  0.5226870000000  0.5405780000000  0.5832540000000 1.0
C      1  0.4908260000000  0.5933830000000  0.5704750000000 1.0
C      1  0.4987910000000  0.4754560000000  0.5177640000000 1.0
C      1  0.4493220000000  0.4117750000000  0.4815050000000 1.0
C      1  0.5707680000000  0.4624110000000  0.4192640000000 1.0
C      1  0.5860410000000  0.4324470000000  0.4871590000000 1.0
C      1  0.6029190000000  0.4771930000000  0.4744320000000 1.0
C      1  0.5285210000000  0.4471120000000  0.5833900000000 1.0
C      1  0.5544750000000  0.5108600000000  0.5240210000000 1.0
C      1  0.5457790000000  0.4864970000000  0.5372560000000 1.0
C      1  0.4258550000000  0.4834620000000  0.4790260000000 1.0
C      1  0.4478680000000  0.5717930000000  0.5457170000000 1.0
C      1  0.5398580000000  0.4705390000000  0.4872400000000 1.0
C      1  0.5437580000000  0.4223650000000  0.5156340000000 1.0
C      1  0.5016410000000  0.6016610000000  0.5169790000000 1.0
C      1  0.4832020000000  0.4356000000000  0.4551130000000 1.0
C      1  0.4389990000000  0.5296950000000  0.4961730000000 1.0
C      1  0.4447510000000  0.4819950000000  0.4996940000000 1.0
C      1  0.4292830000000  0.5789640000000  0.5209720000000 1.0
C      1  0.5083250000000  0.5761770000000  0.5222370000000 1.0
C      1  0.5390010000000  0.5150710000000  0.5009350000000 1.0
C      1  0.5042740000000  0.4875220000000  0.6018380000000 1.0
C      1  0.5006560000000  0.4799920000000  0.4473600000000 1.0
C      1  0.5600880000000  0.5072950000000  0.4588450000000 1.0
C      1  0.4642170000000  0.4756840000000  0.3962050000000 1.0
C      1  0.4772120000000  0.4165940000000  0.4760010000000 1.0
C      1  0.5133560000000  0.5251550000000  0.5079040000000 1.0
C      1  0.5041040000000  0.4545110000000  0.4590680000000 1.0
C      1  0.5752980000000  0.5018020000000  0.5971990000000 1.0
C      1  0.5984890000000  0.5029580000000  0.4871980000000 1.0
C      1  0.4525490000000  0.5525080000000  0.4344600000000 1.0
C      1  0.5441270000000  0.5256190000000  0.4118060000000 1.0
END
