TITL C-247195-3186-30 0.0114341565271045 125000 -398.35690425752 0 0 68 (C1) n - 1
REM
REM in /home/nfs/bkarasulu/CARBON/AIRSS/Generating-Clusters/LCBOP/Only-C1/SD-CG/FIRE-HFTN
REM
REM
REM
REM
REM
REM ./C.cell (11c1c37f851c82e70ff6c80c92926a4b)
REM AIRSS Version 0.9.1 bugfix July 2018 build 013d7b7c2542+ Fri, 06 Jul 2018 19:26:36 +0100
REM compiler GCC version 9.2.1 20190827 (Red Hat 9.2.1-1)
REM options -cpp -mtune=generic -march=x86-64 -g -O0 -fpre-include=/usr/include/finclude/math-vector-fortran.h
REM seed -2108854024 -1283562324 878089876 1091671320 912787785 -700518222 1225108526 -699987279 -597850299 60822883 -303298046 1147764894 -1912843770 -179482297 133144348 -729376658 -17533740 2030733010 -1288812664 1435333692 394195564 -1905263939 265033313 -68674295 -901947608 -1995496154 2090663021 -1051197558 1945335024 -1500126632 -782216136 163781252 564138516
REM
CELL 1.54180   50.00000   50.00000   50.00000   90.00000   90.00000   90.00000
LATT -1
SFAC C  
C      1  0.5736480000000  0.4951360000000  0.4407790000000 1.0
C      1  0.5545050000000  0.5299850000000  0.5199930000000 1.0
C      1  0.5524270000000  0.4929740000000  0.5502510000000 1.0
C      1  0.4662170000000  0.5007770000000  0.4637310000000 1.0
C      1  0.4360610000000  0.5399020000000  0.4328920000000 1.0
C      1  0.5196110000000  0.4146350000000  0.5372350000000 1.0
C      1  0.5115470000000  0.5128840000000  0.5080650000000 1.0
C      1  0.5507100000000  0.5686190000000  0.5529380000000 1.0
C      1  0.5706500000000  0.5693240000000  0.5724810000000 1.0
C      1  0.4626750000000  0.5673560000000  0.4845950000000 1.0
C      1  0.4900700000000  0.4608310000000  0.4550530000000 1.0
C      1  0.4618260000000  0.5411600000000  0.4885840000000 1.0
C      1  0.4998640000000  0.5277740000000  0.5301870000000 1.0
C      1  0.4615150000000  0.4498670000000  0.5183860000000 1.0
C      1  0.4309000000000  0.5014420000000  0.5670680000000 1.0
C      1  0.5274460000000  0.5297190000000  0.4502920000000 1.0
C      1  0.5554790000000  0.4499160000000  0.4839590000000 1.0
C      1  0.4666030000000  0.4760330000000  0.4509630000000 1.0
C      1  0.5254940000000  0.5018170000000  0.5606900000000 1.0
C      1  0.4168500000000  0.5049040000000  0.5444070000000 1.0
C      1  0.5038600000000  0.4282180000000  0.5550060000000 1.0
C      1  0.5427560000000  0.5181570000000  0.4708530000000 1.0
C      1  0.5405870000000  0.4510070000000  0.5672870000000 1.0
C      1  0.5893670000000  0.5690290000000  0.5906130000000 1.0
C      1  0.4872870000000  0.4397950000000  0.4760270000000 1.0
C      1  0.4632030000000  0.4411640000000  0.4912140000000 1.0
C      1  0.5031750000000  0.4802400000000  0.5631330000000 1.0
C      1  0.5667560000000  0.4768430000000  0.4853760000000 1.0
C      1  0.5333700000000  0.4446210000000  0.4666480000000 1.0
C      1  0.4401650000000  0.4441030000000  0.4743880000000 1.0
C      1  0.4649060000000  0.5929760000000  0.4781970000000 1.0
C      1  0.5609550000000  0.4965200000000  0.4650430000000 1.0
C      1  0.4522960000000  0.4319800000000  0.5371170000000 1.0
C      1  0.4562850000000  0.4934360000000  0.5710120000000 1.0
C      1  0.4768820000000  0.5417310000000  0.5340620000000 1.0
C      1  0.4236890000000  0.5039230000000  0.5171880000000 1.0
C      1  0.4070150000000  0.5118830000000  0.4960650000000 1.0
C      1  0.4512460000000  0.4979140000000  0.5106270000000 1.0
C      1  0.4760610000000  0.4838230000000  0.5530700000000 1.0
C      1  0.4850700000000  0.5415610000000  0.4284220000000 1.0
C      1  0.5125290000000  0.5356440000000  0.4272540000000 1.0
C      1  0.5124120000000  0.4257550000000  0.4760610000000 1.0
C      1  0.4166260000000  0.5315630000000  0.4490950000000 1.0
C      1  0.5149320000000  0.3981560000000  0.4772610000000 1.0
C      1  0.4551920000000  0.5905290000000  0.3852990000000 1.0
C      1  0.5194680000000  0.5285000000000  0.5511400000000 1.0
C      1  0.5250950000000  0.5355950000000  0.4028880000000 1.0
C      1  0.4055340000000  0.5218620000000  0.4713320000000 1.0
C      1  0.4674380000000  0.6177640000000  0.4705360000000 1.0
C      1  0.5418540000000  0.4162260000000  0.5217860000000 1.0
C      1  0.5362230000000  0.5246360000000  0.4978210000000 1.0
C      1  0.5390090000000  0.5923390000000  0.5439380000000 1.0
C      1  0.4593730000000  0.5505430000000  0.4214100000000 1.0
C      1  0.5266870000000  0.6132430000000  0.5344310000000 1.0
C      1  0.5577540000000  0.4301420000000  0.5046720000000 1.0
C      1  0.5778860000000  0.4882830000000  0.5090950000000 1.0
C      1  0.5423590000000  0.5440730000000  0.5423140000000 1.0
C      1  0.4613540000000  0.5131180000000  0.4883270000000 1.0
C      1  0.4569640000000  0.5710170000000  0.4024840000000 1.0
C      1  0.5162310000000  0.3721310000000  0.4767880000000 1.0
C      1  0.5673250000000  0.5058350000000  0.5290290000000 1.0
C      1  0.4424680000000  0.4607530000000  0.4528030000000 1.0
C      1  0.5117690000000  0.4523240000000  0.5686150000000 1.0
C      1  0.4653010000000  0.4774990000000  0.5262070000000 1.0
C      1  0.5482740000000  0.4652880000000  0.5442870000000 1.0
C      1  0.5133960000000  0.4844240000000  0.5095900000000 1.0
C      1  0.5293470000000  0.4661340000000  0.5218300000000 1.0
C      1  0.5181730000000  0.4626480000000  0.4498100000000 1.0
END
