TITL C-247196-3112-249 0.0208260356980908 125000 -217.837822792391 0 0 37 (C1) n - 1
REM
REM in /home/nfs/bkarasulu/CARBON/AIRSS/Generating-Clusters/LCBOP/Only-C1/SD-CG/FIRE-HFTN
REM
REM
REM
REM
REM
REM ./C.cell (11c1c37f851c82e70ff6c80c92926a4b)
REM AIRSS Version 0.9.1 bugfix July 2018 build 013d7b7c2542+ Fri, 06 Jul 2018 19:26:36 +0100
REM compiler GCC version 9.2.1 20190827 (Red Hat 9.2.1-1)
REM options -cpp -mtune=generic -march=x86-64 -g -O0 -fpre-include=/usr/include/finclude/math-vector-fortran.h
REM seed -907889684 1174273992 517369584 -2052396713 841586175 698911073 428148098 -1906718991 1570050246 1491487305 -206428882 1466501441 1376900730 -328524877 1191999159 1932789306 725361923 1921975555 -427909938 -881124990 1411800455 8624169 63640173 -1389626030 2036684727 -736458282 -423722759 -2047217808 -1763444695 -691087786 -1252373038 711415536 -516750451
REM
CELL 1.54180   50.00000   50.00000   50.00000   90.00000   90.00000   90.00000
LATT -1
SFAC C  
C      1  0.4803870000000  0.4472730000000  0.5422030000000 1.0
C      1  0.5385100000000  0.5023350000000  0.4962490000000 1.0
C      1  0.4288200000000  0.5313230000000  0.4923740000000 1.0
C      1  0.4278060000000  0.4597960000000  0.4767360000000 1.0
C      1  0.5759160000000  0.6157690000000  0.5061710000000 1.0
C      1  0.4900470000000  0.4622220000000  0.4480300000000 1.0
C      1  0.5009430000000  0.4729410000000  0.5008350000000 1.0
C      1  0.5449250000000  0.4620310000000  0.5214260000000 1.0
C      1  0.5138520000000  0.5070780000000  0.4358930000000 1.0
C      1  0.5762930000000  0.4521430000000  0.5574330000000 1.0
C      1  0.5287920000000  0.4769400000000  0.5038490000000 1.0
C      1  0.4889660000000  0.4476820000000  0.4949660000000 1.0
C      1  0.5464980000000  0.4907230000000  0.5591730000000 1.0
C      1  0.4817510000000  0.4325550000000  0.5180120000000 1.0
C      1  0.5567660000000  0.4676270000000  0.5464760000000 1.0
C      1  0.4856280000000  0.4696680000000  0.5559550000000 1.0
C      1  0.4820500000000  0.5031500000000  0.4698250000000 1.0
C      1  0.5475840000000  0.5728410000000  0.4953420000000 1.0
C      1  0.5322770000000  0.5501840000000  0.4898320000000 1.0
C      1  0.5328740000000  0.5277620000000  0.5072300000000 1.0
C      1  0.4769550000000  0.4468700000000  0.4686540000000 1.0
C      1  0.5218410000000  0.5312930000000  0.4450780000000 1.0
C      1  0.4337960000000  0.5049700000000  0.5007570000000 1.0
C      1  0.4828530000000  0.4948080000000  0.4967230000000 1.0
C      1  0.4487200000000  0.4453670000000  0.4680460000000 1.0
C      1  0.4768260000000  0.4057580000000  0.5170040000000 1.0
C      1  0.5232050000000  0.5060930000000  0.5539590000000 1.0
C      1  0.4946260000000  0.4903210000000  0.4478480000000 1.0
C      1  0.5159910000000  0.5492070000000  0.4662880000000 1.0
C      1  0.4647550000000  0.5625910000000  0.4728040000000 1.0
C      1  0.4596860000000  0.5003470000000  0.5115680000000 1.0
C      1  0.4419100000000  0.5521500000000  0.4818290000000 1.0
C      1  0.4907780000000  0.5617280000000  0.4670510000000 1.0
C      1  0.4211500000000  0.4824180000000  0.4895640000000 1.0
C      1  0.4989210000000  0.4927190000000  0.5593850000000 1.0
C      1  0.5618750000000  0.5944730000000  0.5007910000000 1.0
C      1  0.5254280000000  0.5268440000000  0.5346400000000 1.0
END
