TITL C-247198-3593-11 0.000646909922729663 125000 -1086.56751791491 0 0 178 (C1) n - 1
REM
REM in /home/nfs/bkarasulu/CARBON/AIRSS/Generating-Clusters/LCBOP/Only-C1/SD-CG/FIRE-HFTN
REM
REM
REM
REM
REM
REM ./C.cell (11c1c37f851c82e70ff6c80c92926a4b)
REM AIRSS Version 0.9.1 bugfix July 2018 build 013d7b7c2542+ Fri, 06 Jul 2018 19:26:36 +0100
REM compiler GCC version 9.2.1 20190827 (Red Hat 9.2.1-1)
REM options -cpp -mtune=generic -march=x86-64 -g -O0 -fpre-include=/usr/include/finclude/math-vector-fortran.h
REM seed -848277844 2082101636 -1813208902 1731803731 488423877 1960480272 230352752 -33020238 1594042578 1425344497 2114433936 -1151789136 1041643545 -40423802 1785142383 -1794917944 -959442778 86325496 -1826934872 -1393814514 -559117126 154368232 -1158776467 1811520255 -1320083338 -2102302977 413953834 -1740676973 350972489 -461943008 -151457835 197103266 38721190
REM
CELL 1.54180   50.00000   50.00000   50.00000   90.00000   90.00000   90.00000
LATT -1
SFAC C  
C      1  0.6147040000000  0.5565570000000  0.4149450000000 1.0
C      1  0.4545960000000  0.4654040000000  0.3947090000000 1.0
C      1  0.5096110000000  0.4163660000000  0.4244510000000 1.0
C      1  0.4400280000000  0.4357920000000  0.5215660000000 1.0
C      1  0.4180660000000  0.5045000000000  0.5941310000000 1.0
C      1  0.5219360000000  0.5651470000000  0.5980290000000 1.0
C      1  0.6650470000000  0.4256150000000  0.5531450000000 1.0
C      1  0.4776820000000  0.6236780000000  0.5597710000000 1.0
C      1  0.4524840000000  0.5746580000000  0.4679610000000 1.0
C      1  0.4435020000000  0.5237960000000  0.4933040000000 1.0
C      1  0.5899800000000  0.5477600000000  0.5137640000000 1.0
C      1  0.3765070000000  0.5119160000000  0.5589390000000 1.0
C      1  0.4300830000000  0.5877570000000  0.4163170000000 1.0
C      1  0.5687030000000  0.5882960000000  0.5283510000000 1.0
C      1  0.4945870000000  0.5675100000000  0.4493090000000 1.0
C      1  0.5366210000000  0.5563370000000  0.5075280000000 1.0
C      1  0.6143820000000  0.4100710000000  0.5417110000000 1.0
C      1  0.5272190000000  0.5361470000000  0.5273250000000 1.0
C      1  0.5478060000000  0.4542670000000  0.4511320000000 1.0
C      1  0.4521900000000  0.4965010000000  0.4963530000000 1.0
C      1  0.5119760000000  0.4880860000000  0.4520180000000 1.0
C      1  0.4558410000000  0.5391300000000  0.3964430000000 1.0
C      1  0.4131280000000  0.4757900000000  0.5327620000000 1.0
C      1  0.3937710000000  0.4655480000000  0.4414450000000 1.0
C      1  0.4047780000000  0.5797880000000  0.4208840000000 1.0
C      1  0.4445570000000  0.4941370000000  0.6021490000000 1.0
C      1  0.5037380000000  0.4460920000000  0.5919930000000 1.0
C      1  0.5721710000000  0.4449890000000  0.5198590000000 1.0
C      1  0.5360230000000  0.5420740000000  0.6084640000000 1.0
C      1  0.4778120000000  0.5287930000000  0.5916370000000 1.0
C      1  0.5412510000000  0.3860220000000  0.5048090000000 1.0
C      1  0.5675510000000  0.5684970000000  0.5783150000000 1.0
C      1  0.5654890000000  0.5620160000000  0.5169900000000 1.0
C      1  0.3957630000000  0.4750830000000  0.4690030000000 1.0
C      1  0.6407580000000  0.4178750000000  0.5477370000000 1.0
C      1  0.4695920000000  0.5795310000000  0.5840520000000 1.0
C      1  0.5329560000000  0.4536240000000  0.5876550000000 1.0
C      1  0.4669820000000  0.5113640000000  0.6128240000000 1.0
C      1  0.5182240000000  0.5475890000000  0.5511620000000 1.0
C      1  0.3722540000000  0.5076180000000  0.5029680000000 1.0
C      1  0.5546640000000  0.4794120000000  0.4079380000000 1.0
C      1  0.4975660000000  0.6285310000000  0.5399340000000 1.0
C      1  0.4688460000000  0.5796950000000  0.4455860000000 1.0
C      1  0.4424210000000  0.4792010000000  0.4762890000000 1.0
C      1  0.5696490000000  0.4227830000000  0.5611010000000 1.0
C      1  0.4671860000000  0.5651870000000  0.4899750000000 1.0
C      1  0.4132190000000  0.4675550000000  0.5598240000000 1.0
C      1  0.5401000000000  0.5770350000000  0.4639070000000 1.0
C      1  0.4349510000000  0.4532510000000  0.5718010000000 1.0
C      1  0.3775700000000  0.5186610000000  0.5301010000000 1.0
C      1  0.5052370000000  0.4829110000000  0.4013650000000 1.0
C      1  0.4155200000000  0.5144010000000  0.3887840000000 1.0
C      1  0.5447770000000  0.5207980000000  0.4698270000000 1.0
C      1  0.5165790000000  0.5204380000000  0.6142330000000 1.0
C      1  0.4353510000000  0.4098370000000  0.4777720000000 1.0
C      1  0.3688440000000  0.4648210000000  0.4297630000000 1.0
C      1  0.5706810000000  0.4870620000000  0.5459530000000 1.0
C      1  0.4486660000000  0.4238650000000  0.4564240000000 1.0
C      1  0.5006050000000  0.4857370000000  0.5488300000000 1.0
C      1  0.4182540000000  0.4658900000000  0.4843510000000 1.0
C      1  0.5955090000000  0.4109190000000  0.5639000000000 1.0
C      1  0.5198710000000  0.5767150000000  0.4130310000000 1.0
C      1  0.4165950000000  0.4560700000000  0.4258510000000 1.0
C      1  0.5379200000000  0.4812880000000  0.5801820000000 1.0
C      1  0.4705330000000  0.5633070000000  0.4005170000000 1.0
C      1  0.4574290000000  0.5062250000000  0.4360170000000 1.0
C      1  0.5617740000000  0.5027170000000  0.5243940000000 1.0
C      1  0.4801000000000  0.4735360000000  0.3921600000000 1.0
C      1  0.4130970000000  0.3946710000000  0.4726880000000 1.0
C      1  0.5140820000000  0.4953220000000  0.5715520000000 1.0
C      1  0.5134370000000  0.3919960000000  0.4381860000000 1.0
C      1  0.3858980000000  0.5016650000000  0.4772360000000 1.0
C      1  0.4534170000000  0.6375780000000  0.5572150000000 1.0
C      1  0.5478210000000  0.4286450000000  0.5790640000000 1.0
C      1  0.4170470000000  0.5533070000000  0.5306120000000 1.0
C      1  0.4927300000000  0.6161600000000  0.6048560000000 1.0
C      1  0.4874130000000  0.4430430000000  0.5344230000000 1.0
C      1  0.5042950000000  0.5166140000000  0.5870850000000 1.0
C      1  0.4673710000000  0.3936880000000  0.5099830000000 1.0
C      1  0.5788950000000  0.5239920000000  0.4241150000000 1.0
C      1  0.4879910000000  0.4341790000000  0.4838920000000 1.0
C      1  0.4059700000000  0.6604100000000  0.5512630000000 1.0
C      1  0.5207460000000  0.5046380000000  0.4735790000000 1.0
C      1  0.5958090000000  0.5277130000000  0.5623370000000 1.0
C      1  0.6011920000000  0.5371670000000  0.5376190000000 1.0
C      1  0.5447470000000  0.6001250000000  0.4839010000000 1.0
C      1  0.5914570000000  0.3818630000000  0.5069570000000 1.0
C      1  0.4909060000000  0.5791260000000  0.5265630000000 1.0
C      1  0.4321590000000  0.4352310000000  0.4368100000000 1.0
C      1  0.6331150000000  0.5724190000000  0.4281390000000 1.0
C      1  0.5290210000000  0.4439960000000  0.3860870000000 1.0
C      1  0.6009860000000  0.5459890000000  0.4878520000000 1.0
C      1  0.5738980000000  0.5200310000000  0.5795750000000 1.0
C      1  0.5055590000000  0.4964770000000  0.4260500000000 1.0
C      1  0.3948050000000  0.5092610000000  0.5798760000000 1.0
C      1  0.4297550000000  0.6491050000000  0.5542730000000 1.0
C      1  0.5650820000000  0.5054920000000  0.4104870000000 1.0
C      1  0.5346390000000  0.5102110000000  0.5205540000000 1.0
C      1  0.5101530000000  0.4517440000000  0.4846540000000 1.0
C      1  0.3825760000000  0.6715260000000  0.5483010000000 1.0
C      1  0.4453070000000  0.5257060000000  0.4204940000000 1.0
C      1  0.5777960000000  0.5045700000000  0.5011540000000 1.0
C      1  0.5625100000000  0.4707570000000  0.4722640000000 1.0
C      1  0.5695430000000  0.5861160000000  0.5571200000000 1.0
C      1  0.3997880000000  0.5229450000000  0.4631240000000 1.0
C      1  0.4986350000000  0.5684510000000  0.3975580000000 1.0
C      1  0.4225480000000  0.5346620000000  0.4758300000000 1.0
C      1  0.4922350000000  0.5109960000000  0.6305280000000 1.0
C      1  0.4268130000000  0.4673200000000  0.4011440000000 1.0
C      1  0.4185100000000  0.4561060000000  0.5118850000000 1.0
C      1  0.5758330000000  0.4113180000000  0.4509190000000 1.0
C      1  0.5305570000000  0.4710670000000  0.3942320000000 1.0
C      1  0.6025190000000  0.3994240000000  0.5878310000000 1.0
C      1  0.4572980000000  0.5808440000000  0.4195380000000 1.0
C      1  0.5012430000000  0.4208600000000  0.5775810000000 1.0
C      1  0.5606730000000  0.4229810000000  0.5331880000000 1.0
C      1  0.5301380000000  0.3919710000000  0.5522270000000 1.0
C      1  0.4548410000000  0.5417530000000  0.5560320000000 1.0
C      1  0.5179400000000  0.4585530000000  0.4551490000000 1.0
C      1  0.4164220000000  0.5223650000000  0.4168690000000 1.0
C      1  0.4662420000000  0.5518130000000  0.5797380000000 1.0
C      1  0.4392610000000  0.5345930000000  0.3490540000000 1.0
C      1  0.5079820000000  0.4626090000000  0.5331090000000 1.0
C      1  0.4867020000000  0.4228890000000  0.5536740000000 1.0
C      1  0.5833820000000  0.4636560000000  0.5381280000000 1.0
C      1  0.5166870000000  0.3822080000000  0.4906220000000 1.0
C      1  0.5659230000000  0.4999930000000  0.4756940000000 1.0
C      1  0.3975610000000  0.5321190000000  0.4356030000000 1.0
C      1  0.5919370000000  0.4491780000000  0.4288590000000 1.0
C      1  0.4187660000000  0.5030760000000  0.5285310000000 1.0
C      1  0.3899800000000  0.5589810000000  0.4298530000000 1.0
C      1  0.4123820000000  0.4865290000000  0.3859560000000 1.0
C      1  0.5666930000000  0.3755640000000  0.4984860000000 1.0
C      1  0.4274500000000  0.5618520000000  0.4675170000000 1.0
C      1  0.5158630000000  0.4684200000000  0.5064040000000 1.0
C      1  0.6181080000000  0.4257270000000  0.4668720000000 1.0
C      1  0.4644750000000  0.4536680000000  0.5211890000000 1.0
C      1  0.5265570000000  0.4083420000000  0.5750020000000 1.0
C      1  0.4456730000000  0.4113760000000  0.5044680000000 1.0
C      1  0.4646110000000  0.5809540000000  0.5333070000000 1.0
C      1  0.5201710000000  0.4956060000000  0.5007980000000 1.0
C      1  0.5144710000000  0.5786180000000  0.5110970000000 1.0
C      1  0.4802270000000  0.6060250000000  0.5825130000000 1.0
C      1  0.4987600000000  0.4376090000000  0.4403970000000 1.0
C      1  0.4521780000000  0.4673580000000  0.5911980000000 1.0
C      1  0.4642160000000  0.4823710000000  0.5178350000000 1.0
C      1  0.4051220000000  0.5279870000000  0.5281520000000 1.0
C      1  0.6204070000000  0.4170580000000  0.4923220000000 1.0
C      1  0.5109760000000  0.6254510000000  0.5166000000000 1.0
C      1  0.5420210000000  0.4017770000000  0.5282960000000 1.0
C      1  0.4758180000000  0.4960670000000  0.5396540000000 1.0
C      1  0.4937500000000  0.5409640000000  0.4564340000000 1.0
C      1  0.5664260000000  0.6048360000000  0.5039940000000 1.0
C      1  0.5197340000000  0.4223230000000  0.3990110000000 1.0
C      1  0.5980550000000  0.5417840000000  0.4340300000000 1.0
C      1  0.4602230000000  0.5150280000000  0.5515270000000 1.0
C      1  0.4381730000000  0.4311080000000  0.5526140000000 1.0
C      1  0.5206240000000  0.5775770000000  0.4418600000000 1.0
C      1  0.5210310000000  0.6045140000000  0.5004490000000 1.0
C      1  0.5653500000000  0.4604930000000  0.4265250000000 1.0
C      1  0.4567990000000  0.5449460000000  0.5067570000000 1.0
C      1  0.4761940000000  0.4302690000000  0.4581370000000 1.0
C      1  0.5989530000000  0.4273100000000  0.4462110000000 1.0
C      1  0.5166770000000  0.5651630000000  0.5713670000000 1.0
C      1  0.4465650000000  0.5571490000000  0.5325920000000 1.0
C      1  0.6298000000000  0.5693340000000  0.4554140000000 1.0
C      1  0.5419960000000  0.5496930000000  0.4771820000000 1.0
C      1  0.5610540000000  0.5425860000000  0.5919840000000 1.0
C      1  0.6093670000000  0.4025010000000  0.5142080000000 1.0
C      1  0.4916340000000  0.3837450000000  0.5040010000000 1.0
C      1  0.5525070000000  0.4243230000000  0.4550810000000 1.0
C      1  0.5708770000000  0.4538440000000  0.4936360000000 1.0
C      1  0.6080150000000  0.5506190000000  0.4612090000000 1.0
C      1  0.5164540000000  0.3809000000000  0.4624000000000 1.0
C      1  0.4788910000000  0.4586510000000  0.5971510000000 1.0
C      1  0.5622640000000  0.4944950000000  0.5721620000000 1.0
C      1  0.4371110000000  0.5298100000000  0.3757420000000 1.0
C      1  0.4528960000000  0.4848390000000  0.4512160000000 1.0
END
