TITL C-247202-1916-704 -5.8039418169834e-07 125000 -1133.97621173749 0 0 185 (C1) n - 1
REM
REM in /home/nfs/bkarasulu/CARBON/AIRSS/Generating-Clusters/LCBOP/Only-C1/SD-CG/FIRE-HFTN
REM
REM
REM
REM
REM
REM ./C.cell (11c1c37f851c82e70ff6c80c92926a4b)
REM AIRSS Version 0.9.1 bugfix July 2018 build 013d7b7c2542+ Fri, 06 Jul 2018 19:26:36 +0100
REM compiler GCC version 9.2.1 20190827 (Red Hat 9.2.1-1)
REM options -cpp -mtune=generic -march=x86-64 -g -O0 -fpre-include=/usr/include/finclude/math-vector-fortran.h
REM seed 218560388 -2072190860 1399358769 742297380 -797615337 886070099 -1176756511 -1719573001 -1786319213 -1136470901 630272101 -1914739588 314471421 150637794 -1928555806 672298133 -1121558039 98974703 1323028419 427844518 -1017914332 -1442161195 2030723579 -1457232186 -1732227060 2049422395 -1039171996 -1559931645 -1322381528 -1593263734 -1884356850 -831151287 111876176
REM
CELL 1.54180   50.00000   50.00000   50.00000   90.00000   90.00000   90.00000
LATT -1
SFAC C  
C      1  0.5445050000000  0.5825080000000  0.4131890000000 1.0
C      1  0.4774030000000  0.5981480000000  0.4446720000000 1.0
C      1  0.5228230000000  0.3808260000000  0.5785900000000 1.0
C      1  0.4421040000000  0.4094400000000  0.5343600000000 1.0
C      1  0.4087920000000  0.4819280000000  0.5911980000000 1.0
C      1  0.4806620000000  0.4529130000000  0.4522690000000 1.0
C      1  0.5302570000000  0.4030830000000  0.4470210000000 1.0
C      1  0.4553870000000  0.3952640000000  0.5120660000000 1.0
C      1  0.4554790000000  0.3972990000000  0.4629690000000 1.0
C      1  0.4547390000000  0.4328370000000  0.5748710000000 1.0
C      1  0.5778990000000  0.4905750000000  0.4969270000000 1.0
C      1  0.3845470000000  0.4748010000000  0.4459810000000 1.0
C      1  0.4443590000000  0.5443960000000  0.5873920000000 1.0
C      1  0.4082720000000  0.4820010000000  0.4301570000000 1.0
C      1  0.4704550000000  0.4522340000000  0.5623690000000 1.0
C      1  0.4411020000000  0.4939170000000  0.5567050000000 1.0
C      1  0.5399040000000  0.4896680000000  0.5189840000000 1.0
C      1  0.4394590000000  0.5339020000000  0.4449440000000 1.0
C      1  0.5845810000000  0.5216460000000  0.4323150000000 1.0
C      1  0.5701250000000  0.5267900000000  0.5318450000000 1.0
C      1  0.5850830000000  0.4475400000000  0.4224620000000 1.0
C      1  0.4374040000000  0.6017410000000  0.5114460000000 1.0
C      1  0.5317280000000  0.6094800000000  0.4495590000000 1.0
C      1  0.5564510000000  0.5998670000000  0.4342900000000 1.0
C      1  0.4985700000000  0.4873220000000  0.6173600000000 1.0
C      1  0.5792570000000  0.4509300000000  0.3521710000000 1.0
C      1  0.4916510000000  0.5678180000000  0.6039860000000 1.0
C      1  0.6028510000000  0.4800870000000  0.5054100000000 1.0
C      1  0.4757700000000  0.5827570000000  0.5532620000000 1.0
C      1  0.3790530000000  0.5578700000000  0.4734630000000 1.0
C      1  0.4408550000000  0.4440170000000  0.5971340000000 1.0
C      1  0.5090200000000  0.4591550000000  0.4561340000000 1.0
C      1  0.4562850000000  0.4719230000000  0.5484950000000 1.0
C      1  0.5658200000000  0.4769130000000  0.4764420000000 1.0
C      1  0.4870710000000  0.5951510000000  0.5977250000000 1.0
C      1  0.5650210000000  0.4517170000000  0.5452390000000 1.0
C      1  0.6253520000000  0.4720290000000  0.4679450000000 1.0
C      1  0.6143470000000  0.5225490000000  0.4840430000000 1.0
C      1  0.4269150000000  0.4658480000000  0.4684470000000 1.0
C      1  0.5056850000000  0.6046590000000  0.4337380000000 1.0
C      1  0.5693790000000  0.4423230000000  0.3987460000000 1.0
C      1  0.4805610000000  0.3826200000000  0.5107330000000 1.0
C      1  0.5108300000000  0.5201870000000  0.4918150000000 1.0
C      1  0.5819710000000  0.5912650000000  0.4454670000000 1.0
C      1  0.4479600000000  0.5196900000000  0.5430480000000 1.0
C      1  0.4321620000000  0.4671370000000  0.4402200000000 1.0
C      1  0.6117850000000  0.4578290000000  0.4891390000000 1.0
C      1  0.5366840000000  0.4515670000000  0.4470730000000 1.0
C      1  0.5951950000000  0.4971750000000  0.4399390000000 1.0
C      1  0.3874620000000  0.5053860000000  0.5151270000000 1.0
C      1  0.5422360000000  0.5346890000000  0.3957610000000 1.0
C      1  0.4645150000000  0.4710990000000  0.5220430000000 1.0
C      1  0.5040010000000  0.4292060000000  0.6283590000000 1.0
C      1  0.5806420000000  0.5861970000000  0.5116000000000 1.0
C      1  0.4046090000000  0.5580300000000  0.5228390000000 1.0
C      1  0.5168330000000  0.5911250000000  0.4098650000000 1.0
C      1  0.3961110000000  0.5303920000000  0.5321660000000 1.0
C      1  0.5323290000000  0.5953710000000  0.4748890000000 1.0
C      1  0.5689160000000  0.5287460000000  0.5784550000000 1.0
C      1  0.5710290000000  0.4604550000000  0.3765380000000 1.0
C      1  0.4601370000000  0.4612370000000  0.4320480000000 1.0
C      1  0.4738730000000  0.5041860000000  0.4599980000000 1.0
C      1  0.5139040000000  0.5320900000000  0.3936220000000 1.0
C      1  0.5798870000000  0.4742540000000  0.4318690000000 1.0
C      1  0.5390840000000  0.5778100000000  0.6041290000000 1.0
C      1  0.5041620000000  0.5148880000000  0.6186270000000 1.0
C      1  0.5043590000000  0.3921040000000  0.4443970000000 1.0
C      1  0.5699720000000  0.5463210000000  0.4385400000000 1.0
C      1  0.5969090000000  0.5680470000000  0.5001820000000 1.0
C      1  0.4351300000000  0.5169920000000  0.6281610000000 1.0
C      1  0.4869620000000  0.5467460000000  0.4599710000000 1.0
C      1  0.5852560000000  0.4272040000000  0.4427340000000 1.0
C      1  0.3801880000000  0.5304010000000  0.4671420000000 1.0
C      1  0.4207320000000  0.4282280000000  0.5228550000000 1.0
C      1  0.4289640000000  0.5118960000000  0.4935670000000 1.0
C      1  0.4103090000000  0.5114270000000  0.3735280000000 1.0
C      1  0.4690940000000  0.4774040000000  0.4102020000000 1.0
C      1  0.5883630000000  0.4085130000000  0.5319100000000 1.0
C      1  0.4423710000000  0.4029160000000  0.4870340000000 1.0
C      1  0.4310830000000  0.5308260000000  0.4735190000000 1.0
C      1  0.4981770000000  0.5202180000000  0.4645090000000 1.0
C      1  0.4031820000000  0.4444540000000  0.5645450000000 1.0
C      1  0.5366220000000  0.4260360000000  0.4309820000000 1.0
C      1  0.5251110000000  0.5312150000000  0.6085600000000 1.0
C      1  0.6157490000000  0.5047330000000  0.5148080000000 1.0
C      1  0.5195150000000  0.4942820000000  0.4995290000000 1.0
C      1  0.5463140000000  0.4872640000000  0.6004270000000 1.0
C      1  0.4357170000000  0.5459880000000  0.3951840000000 1.0
C      1  0.4677190000000  0.5563120000000  0.4783460000000 1.0
C      1  0.4398120000000  0.5565840000000  0.4833450000000 1.0
C      1  0.5336650000000  0.6066290000000  0.5007890000000 1.0
C      1  0.4988110000000  0.4389750000000  0.5214280000000 1.0
C      1  0.4863400000000  0.5600450000000  0.5408420000000 1.0
C      1  0.5012660000000  0.5078810000000  0.5573270000000 1.0
C      1  0.6150900000000  0.4982420000000  0.4608130000000 1.0
C      1  0.5442990000000  0.4021890000000  0.4721220000000 1.0
C      1  0.4052180000000  0.4493420000000  0.5360830000000 1.0
C      1  0.5213290000000  0.4273730000000  0.5075250000000 1.0
C      1  0.5259850000000  0.4018530000000  0.4952640000000 1.0
C      1  0.5591630000000  0.5545970000000  0.5671450000000 1.0
C      1  0.4709280000000  0.4782770000000  0.6218020000000 1.0
C      1  0.5461760000000  0.4261430000000  0.4039770000000 1.0
C      1  0.4366270000000  0.5644080000000  0.4407390000000 1.0
C      1  0.5071440000000  0.4808720000000  0.5555370000000 1.0
C      1  0.4177320000000  0.5229930000000  0.3976030000000 1.0
C      1  0.5262580000000  0.5407810000000  0.5333460000000 1.0
C      1  0.3975040000000  0.5772520000000  0.4694550000000 1.0
C      1  0.5501620000000  0.5480520000000  0.4613740000000 1.0
C      1  0.5537310000000  0.5550810000000  0.4132470000000 1.0
C      1  0.3781850000000  0.5075410000000  0.4857490000000 1.0
C      1  0.4198400000000  0.5814090000000  0.5195780000000 1.0
C      1  0.6033150000000  0.5514060000000  0.4773760000000 1.0
C      1  0.5144770000000  0.5435540000000  0.5074240000000 1.0
C      1  0.4708330000000  0.5511360000000  0.5945730000000 1.0
C      1  0.4524510000000  0.4970650000000  0.6319180000000 1.0
C      1  0.4147120000000  0.4988380000000  0.5695980000000 1.0
C      1  0.6052510000000  0.4781940000000  0.5570380000000 1.0
C      1  0.4732400000000  0.6002330000000  0.4762120000000 1.0
C      1  0.5353400000000  0.4982080000000  0.4313740000000 1.0
C      1  0.5721820000000  0.4262350000000  0.4702890000000 1.0
C      1  0.5235550000000  0.4461090000000  0.6207440000000 1.0
C      1  0.4899340000000  0.5208960000000  0.3983040000000 1.0
C      1  0.5646190000000  0.4880570000000  0.3791870000000 1.0
C      1  0.5974500000000  0.4319750000000  0.4887280000000 1.0
C      1  0.4343290000000  0.5384200000000  0.5610090000000 1.0
C      1  0.5121470000000  0.4268410000000  0.5667710000000 1.0
C      1  0.5046990000000  0.3996030000000  0.5706280000000 1.0
C      1  0.4781480000000  0.6009990000000  0.5728450000000 1.0
C      1  0.5519760000000  0.5466230000000  0.5405480000000 1.0
C      1  0.4209960000000  0.4207960000000  0.4945410000000 1.0
C      1  0.5709910000000  0.4241190000000  0.5450340000000 1.0
C      1  0.3744230000000  0.4833670000000  0.4700000000000 1.0
C      1  0.5135430000000  0.4746640000000  0.4802620000000 1.0
C      1  0.5109570000000  0.6208970000000  0.5110640000000 1.0
C      1  0.4686110000000  0.4864900000000  0.4805550000000 1.0
C      1  0.5072660000000  0.5632570000000  0.4515780000000 1.0
C      1  0.5027720000000  0.5360050000000  0.5500160000000 1.0
C      1  0.4947800000000  0.5644260000000  0.5129080000000 1.0
C      1  0.5307250000000  0.5678170000000  0.4664140000000 1.0
C      1  0.4062430000000  0.5102550000000  0.4215490000000 1.0
C      1  0.5181000000000  0.5134230000000  0.4441520000000 1.0
C      1  0.4607130000000  0.6154040000000  0.4984940000000 1.0
C      1  0.5919470000000  0.5640660000000  0.4518710000000 1.0
C      1  0.4593460000000  0.5147780000000  0.4373040000000 1.0
C      1  0.4602030000000  0.4515130000000  0.6177920000000 1.0
C      1  0.4483880000000  0.5149310000000  0.5149810000000 1.0
C      1  0.5870590000000  0.5199850000000  0.5548040000000 1.0
C      1  0.5481030000000  0.4625900000000  0.5246980000000 1.0
C      1  0.4568680000000  0.5792090000000  0.4265240000000 1.0
C      1  0.4780150000000  0.3923170000000  0.4493290000000 1.0
C      1  0.3945120000000  0.4759660000000  0.5254710000000 1.0
C      1  0.4713870000000  0.4569420000000  0.4794030000000 1.0
C      1  0.5506870000000  0.4754220000000  0.4337380000000 1.0
C      1  0.5800400000000  0.4667770000000  0.5641620000000 1.0
C      1  0.4665170000000  0.4948480000000  0.5075500000000 1.0
C      1  0.4992660000000  0.4500330000000  0.5523540000000 1.0
C      1  0.5336550000000  0.4114350000000  0.3839540000000 1.0
C      1  0.6015990000000  0.4128820000000  0.5089980000000 1.0
C      1  0.5214920000000  0.3977570000000  0.3654060000000 1.0
C      1  0.4815950000000  0.5765770000000  0.4917150000000 1.0
C      1  0.4774940000000  0.3929430000000  0.5655540000000 1.0
C      1  0.4250770000000  0.5741940000000  0.4653730000000 1.0
C      1  0.4070620000000  0.5254150000000  0.5593260000000 1.0
C      1  0.4841000000000  0.6265080000000  0.5119760000000 1.0
C      1  0.5580460000000  0.6007000000000  0.5139580000000 1.0
C      1  0.4224130000000  0.4853100000000  0.4863860000000 1.0
C      1  0.4770960000000  0.4310780000000  0.6280500000000 1.0
C      1  0.4533210000000  0.5670690000000  0.4001770000000 1.0
C      1  0.5061880000000  0.3828580000000  0.5022460000000 1.0
C      1  0.3894420000000  0.5249970000000  0.4400340000000 1.0
C      1  0.4543960000000  0.4086410000000  0.5603210000000 1.0
C      1  0.5574390000000  0.5134370000000  0.3844210000000 1.0
C      1  0.4763710000000  0.4492970000000  0.5072060000000 1.0
C      1  0.4148560000000  0.4543390000000  0.5889630000000 1.0
C      1  0.5558290000000  0.5769840000000  0.5831450000000 1.0
C      1  0.5233810000000  0.4729780000000  0.6122040000000 1.0
C      1  0.5671230000000  0.4726810000000  0.5883060000000 1.0
C      1  0.5627680000000  0.5061500000000  0.5147830000000 1.0
C      1  0.5537870000000  0.4500070000000  0.4742870000000 1.0
C      1  0.4293050000000  0.5356310000000  0.6097620000000 1.0
C      1  0.4707470000000  0.5057570000000  0.4124270000000 1.0
C      1  0.6091310000000  0.5041390000000  0.5446930000000 1.0
C      1  0.5420860000000  0.4454870000000  0.5025890000000 1.0
C      1  0.5185160000000  0.5590690000000  0.6082540000000 1.0
C      1  0.5482050000000  0.5164440000000  0.5969580000000 1.0
END
