TITL C-247202-1916-654 0.375740919981954 125000 -335.23248766809 0 0 56 (C1) n - 1
REM
REM in /home/nfs/bkarasulu/CARBON/AIRSS/Generating-Clusters/LCBOP/Only-C1/SD-CG/FIRE-HFTN
REM
REM
REM
REM
REM
REM ./C.cell (11c1c37f851c82e70ff6c80c92926a4b)
REM AIRSS Version 0.9.1 bugfix July 2018 build 013d7b7c2542+ Fri, 06 Jul 2018 19:26:36 +0100
REM compiler GCC version 9.2.1 20190827 (Red Hat 9.2.1-1)
REM options -cpp -mtune=generic -march=x86-64 -g -O0 -fpre-include=/usr/include/finclude/math-vector-fortran.h
REM seed 745105551 -548500665 -1774889957 -210601315 -1704042161 2124042382 1266070957 -563275223 -1433724737 -536675792 -1298591692 -1831101228 2046952687 -2024674464 -608849967 970396261 553542545 -1731997269 1649729707 -1624109110 597124777 -1010095816 -1900619347 -728373567 -1769258315 -1254816332 1174561787 -1434975653 1260147802 -800734463 -969767266 503952659 1962720886
REM
CELL 1.54180   50.00000   50.00000   50.00000   90.00000   90.00000   90.00000
LATT -1
SFAC C  
C      1  0.4355750000000  0.4335620000000  0.5413970000000 1.0
C      1  0.4619710000000  0.5720630000000  0.5128990000000 1.0
C      1  0.4964370000000  0.4030520000000  0.4034940000000 1.0
C      1  0.4752130000000  0.5806140000000  0.4667020000000 1.0
C      1  0.5441030000000  0.6352340000000  0.5700960000000 1.0
C      1  0.5152810000000  0.5202770000000  0.6334320000000 1.0
C      1  0.4642100000000  0.6031190000000  0.4534340000000 1.0
C      1  0.5700960000000  0.4088010000000  0.4366520000000 1.0
C      1  0.5013190000000  0.5720050000000  0.4614660000000 1.0
C      1  0.5239380000000  0.4830280000000  0.5489250000000 1.0
C      1  0.4710990000000  0.5671440000000  0.5373150000000 1.0
C      1  0.5444370000000  0.3883200000000  0.3978110000000 1.0
C      1  0.4299530000000  0.4308250000000  0.4670790000000 1.0
C      1  0.4229840000000  0.5895200000000  0.3856490000000 1.0
C      1  0.4421570000000  0.5165080000000  0.4787250000000 1.0
C      1  0.5441260000000  0.4307910000000  0.5026460000000 1.0
C      1  0.5086860000000  0.5192380000000  0.5797930000000 1.0
C      1  0.4465730000000  0.5426560000000  0.4781790000000 1.0
C      1  0.5218900000000  0.5552550000000  0.4624970000000 1.0
C      1  0.4826420000000  0.4787090000000  0.5744240000000 1.0
C      1  0.5172460000000  0.4667980000000  0.5265260000000 1.0
C      1  0.4403420000000  0.4426980000000  0.4894170000000 1.0
C      1  0.5273030000000  0.4566930000000  0.4664070000000 1.0
C      1  0.5518140000000  0.4871670000000  0.5541650000000 1.0
C      1  0.5353830000000  0.5558750000000  0.5607570000000 1.0
C      1  0.5630290000000  0.4235930000000  0.4575610000000 1.0
C      1  0.5418240000000  0.6094320000000  0.5671540000000 1.0
C      1  0.4459030000000  0.4907530000000  0.4837280000000 1.0
C      1  0.5562010000000  0.5388520000000  0.5530220000000 1.0
C      1  0.5047620000000  0.4940600000000  0.5668880000000 1.0
C      1  0.5640180000000  0.3953750000000  0.4144810000000 1.0
C      1  0.5676470000000  0.4669300000000  0.5634950000000 1.0
C      1  0.5345310000000  0.5324710000000  0.4676140000000 1.0
C      1  0.5367460000000  0.5069470000000  0.4745730000000 1.0
C      1  0.4989470000000  0.4496970000000  0.4639770000000 1.0
C      1  0.4630790000000  0.4608580000000  0.5747850000000 1.0
C      1  0.4878710000000  0.4347300000000  0.4434800000000 1.0
C      1  0.4675110000000  0.6282190000000  0.4638030000000 1.0
C      1  0.4869370000000  0.5558750000000  0.5553400000000 1.0
C      1  0.4861610000000  0.4189290000000  0.4222080000000 1.0
C      1  0.5309290000000  0.4419690000000  0.5233800000000 1.0
C      1  0.5619910000000  0.5129960000000  0.5505870000000 1.0
C      1  0.5269030000000  0.4820350000000  0.4813530000000 1.0
C      1  0.5099530000000  0.5437890000000  0.5654510000000 1.0
C      1  0.5061770000000  0.4764980000000  0.5020010000000 1.0
C      1  0.5117840000000  0.5197820000000  0.6076130000000 1.0
C      1  0.5182430000000  0.3912660000000  0.3936930000000 1.0
C      1  0.5393280000000  0.5832310000000  0.5641260000000 1.0
C      1  0.4499550000000  0.5992600000000  0.4297010000000 1.0
C      1  0.4340620000000  0.4331520000000  0.5149190000000 1.0
C      1  0.4852930000000  0.4626740000000  0.4863340000000 1.0
C      1  0.4363630000000  0.5944100000000  0.4074830000000 1.0
C      1  0.4598940000000  0.5660580000000  0.4856780000000 1.0
C      1  0.4573190000000  0.4654730000000  0.4872450000000 1.0
C      1  0.5458220000000  0.4367680000000  0.4749780000000 1.0
C      1  0.4460390000000  0.4439670000000  0.5634640000000 1.0
END
