TITL C-247200-3482-54 0.228712380986267 125000 -1044.51694427693 0 0 171 (C1) n - 1
REM
REM in /home/nfs/bkarasulu/CARBON/AIRSS/Generating-Clusters/LCBOP/Only-C1/SD-CG/FIRE-HFTN
REM
REM
REM
REM
REM
REM ./C.cell (11c1c37f851c82e70ff6c80c92926a4b)
REM AIRSS Version 0.9.1 bugfix July 2018 build 013d7b7c2542+ Fri, 06 Jul 2018 19:26:36 +0100
REM compiler GCC version 9.2.1 20190827 (Red Hat 9.2.1-1)
REM options -cpp -mtune=generic -march=x86-64 -g -O0 -fpre-include=/usr/include/finclude/math-vector-fortran.h
REM seed 308264750 -176716817 -315847954 -731397069 489734203 -2009980581 -309347254 1709359373 -573584418 254203017 669538870 -2022221421 -778840901 1959042427 -2056223284 512691786 2067641516 1009089587 1500536675 187825865 -752072605 -1248921094 -1268466114 -1425633326 315742126 -1727090206 843280944 -2012752558 -2076763611 -350101605 1088773199 1962818849 -1644729047
REM
CELL 1.54180   50.00000   50.00000   50.00000   90.00000   90.00000   90.00000
LATT -1
SFAC C  
C      1  0.6366350000000  0.5592840000000  0.4735130000000 1.0
C      1  0.4780800000000  0.6187860000000  0.4927210000000 1.0
C      1  0.4537180000000  0.4989500000000  0.4270210000000 1.0
C      1  0.4432370000000  0.4485690000000  0.4757520000000 1.0
C      1  0.3611130000000  0.6277990000000  0.6671980000000 1.0
C      1  0.4069220000000  0.5662660000000  0.5924750000000 1.0
C      1  0.4586690000000  0.4126550000000  0.5315560000000 1.0
C      1  0.5026230000000  0.4473930000000  0.5110600000000 1.0
C      1  0.3834940000000  0.5948680000000  0.6322230000000 1.0
C      1  0.4550410000000  0.5528960000000  0.5866530000000 1.0
C      1  0.5044640000000  0.5188150000000  0.4757040000000 1.0
C      1  0.5227420000000  0.4057820000000  0.5119200000000 1.0
C      1  0.6497550000000  0.4661260000000  0.5257330000000 1.0
C      1  0.4993010000000  0.4704760000000  0.5271190000000 1.0
C      1  0.6006510000000  0.4697050000000  0.4264720000000 1.0
C      1  0.5189230000000  0.4717470000000  0.5951620000000 1.0
C      1  0.5495880000000  0.4173540000000  0.5119860000000 1.0
C      1  0.4999000000000  0.5932160000000  0.4279870000000 1.0
C      1  0.4941850000000  0.5787180000000  0.4055590000000 1.0
C      1  0.6276540000000  0.4667480000000  0.5095940000000 1.0
C      1  0.4423450000000  0.5523240000000  0.4337740000000 1.0
C      1  0.4999250000000  0.5150930000000  0.5961880000000 1.0
C      1  0.4208790000000  0.4047230000000  0.5611930000000 1.0
C      1  0.5492700000000  0.5092030000000  0.5473780000000 1.0
C      1  0.5022820000000  0.5931810000000  0.4569220000000 1.0
C      1  0.5896100000000  0.5287960000000  0.4933200000000 1.0
C      1  0.4987020000000  0.6165170000000  0.4732710000000 1.0
C      1  0.3988480000000  0.4469880000000  0.5082710000000 1.0
C      1  0.4880050000000  0.5546910000000  0.3941220000000 1.0
C      1  0.3842610000000  0.4932700000000  0.4947350000000 1.0
C      1  0.5200320000000  0.3878450000000  0.4456270000000 1.0
C      1  0.3938190000000  0.5070190000000  0.5470410000000 1.0
C      1  0.4178050000000  0.4967930000000  0.5601870000000 1.0
C      1  0.3947630000000  0.5796520000000  0.6137020000000 1.0
C      1  0.4992270000000  0.4063290000000  0.4412140000000 1.0
C      1  0.5182260000000  0.5440080000000  0.4839770000000 1.0
C      1  0.5430270000000  0.4430990000000  0.4035720000000 1.0
C      1  0.5404360000000  0.4538710000000  0.5948490000000 1.0
C      1  0.6240750000000  0.4496580000000  0.4638470000000 1.0
C      1  0.4804200000000  0.3959030000000  0.4851200000000 1.0
C      1  0.4682180000000  0.5475820000000  0.4378400000000 1.0
C      1  0.5621530000000  0.5263450000000  0.4884280000000 1.0
C      1  0.4707500000000  0.5878990000000  0.5290780000000 1.0
C      1  0.5191590000000  0.5393200000000  0.4292230000000 1.0
C      1  0.5082720000000  0.4696170000000  0.3333280000000 1.0
C      1  0.5241840000000  0.3785500000000  0.4707710000000 1.0
C      1  0.6238870000000  0.4584340000000  0.4372820000000 1.0
C      1  0.6175660000000  0.5656900000000  0.5518690000000 1.0
C      1  0.4640090000000  0.4531520000000  0.3843560000000 1.0
C      1  0.5755500000000  0.4873050000000  0.3565750000000 1.0
C      1  0.3722990000000  0.6112020000000  0.6498300000000 1.0
C      1  0.3942060000000  0.4891630000000  0.4697760000000 1.0
C      1  0.5394350000000  0.4912990000000  0.4582160000000 1.0
C      1  0.4844350000000  0.4161720000000  0.5435860000000 1.0
C      1  0.3389210000000  0.6608040000000  0.7015850000000 1.0
C      1  0.5407240000000  0.5406710000000  0.5022040000000 1.0
C      1  0.6070100000000  0.5449910000000  0.5362790000000 1.0
C      1  0.6271930000000  0.5851810000000  0.5670110000000 1.0
C      1  0.4359270000000  0.4229170000000  0.5460780000000 1.0
C      1  0.4752720000000  0.4023460000000  0.4569720000000 1.0
C      1  0.4724040000000  0.5397590000000  0.5307520000000 1.0
C      1  0.6076320000000  0.5067720000000  0.4884550000000 1.0
C      1  0.5099930000000  0.4930360000000  0.5144190000000 1.0
C      1  0.4420230000000  0.5949350000000  0.5680660000000 1.0
C      1  0.4082320000000  0.4952230000000  0.4456190000000 1.0
C      1  0.4888350000000  0.4536340000000  0.3424120000000 1.0
C      1  0.5689010000000  0.5176280000000  0.5907270000000 1.0
C      1  0.4884980000000  0.4342560000000  0.5921300000000 1.0
C      1  0.5225400000000  0.4995710000000  0.5894260000000 1.0
C      1  0.4609120000000  0.4009890000000  0.5055460000000 1.0
C      1  0.3874030000000  0.6422980000000  0.5756580000000 1.0
C      1  0.4681480000000  0.5869100000000  0.5575160000000 1.0
C      1  0.4435720000000  0.4681610000000  0.5896900000000 1.0
C      1  0.5938090000000  0.4783110000000  0.3382540000000 1.0
C      1  0.4521160000000  0.4119640000000  0.4433270000000 1.0
C      1  0.4726260000000  0.5071970000000  0.5959090000000 1.0
C      1  0.4770280000000  0.5647960000000  0.4873330000000 1.0
C      1  0.4876760000000  0.4177260000000  0.5712130000000 1.0
C      1  0.4512000000000  0.4134940000000  0.4139740000000 1.0
C      1  0.4686180000000  0.4786720000000  0.5978060000000 1.0
C      1  0.5785320000000  0.4754780000000  0.4104480000000 1.0
C      1  0.5026190000000  0.4873470000000  0.4239840000000 1.0
C      1  0.5672630000000  0.4874350000000  0.5363890000000 1.0
C      1  0.4364520000000  0.5102600000000  0.5123200000000 1.0
C      1  0.5092280000000  0.4948450000000  0.4541920000000 1.0
C      1  0.4340400000000  0.4818190000000  0.5088340000000 1.0
C      1  0.4334120000000  0.5725550000000  0.5849370000000 1.0
C      1  0.5277200000000  0.4280300000000  0.3877000000000 1.0
C      1  0.4919840000000  0.4615790000000  0.5980450000000 1.0
C      1  0.4355490000000  0.4545130000000  0.4281050000000 1.0
C      1  0.6403510000000  0.5346840000000  0.4628770000000 1.0
C      1  0.5946410000000  0.4959810000000  0.5336120000000 1.0
C      1  0.6141890000000  0.4208060000000  0.5016190000000 1.0
C      1  0.4400360000000  0.5152490000000  0.5602460000000 1.0
C      1  0.5710640000000  0.3884370000000  0.6002800000000 1.0
C      1  0.4508940000000  0.4716700000000  0.4889980000000 1.0
C      1  0.5342810000000  0.5210870000000  0.4155820000000 1.0
C      1  0.6011120000000  0.5197810000000  0.5487610000000 1.0
C      1  0.5102580000000  0.4510900000000  0.4826060000000 1.0
C      1  0.4313250000000  0.4822850000000  0.4334540000000 1.0
C      1  0.5506960000000  0.4677130000000  0.4191460000000 1.0
C      1  0.5091230000000  0.3898230000000  0.4920530000000 1.0
C      1  0.4889250000000  0.5443280000000  0.5536060000000 1.0
C      1  0.5551150000000  0.4324390000000  0.5894310000000 1.0
C      1  0.4640410000000  0.6124340000000  0.5162950000000 1.0
C      1  0.5367360000000  0.4892280000000  0.5045050000000 1.0
C      1  0.4959250000000  0.5489630000000  0.4435070000000 1.0
C      1  0.5648400000000  0.4073640000000  0.5815470000000 1.0
C      1  0.4473270000000  0.4408590000000  0.4041570000000 1.0
C      1  0.6366060000000  0.6043100000000  0.5820140000000 1.0
C      1  0.4980560000000  0.4573490000000  0.4244590000000 1.0
C      1  0.5161760000000  0.6374650000000  0.4701720000000 1.0
C      1  0.4263200000000  0.4698580000000  0.5673100000000 1.0
C      1  0.6024320000000  0.5495850000000  0.5084130000000 1.0
C      1  0.4187450000000  0.4608860000000  0.5211540000000 1.0
C      1  0.6277870000000  0.5116130000000  0.4692850000000 1.0
C      1  0.5529660000000  0.4444170000000  0.5011600000000 1.0
C      1  0.4694130000000  0.4808720000000  0.3871930000000 1.0
C      1  0.4713790000000  0.5633330000000  0.5145020000000 1.0
C      1  0.5962890000000  0.4062940000000  0.5148530000000 1.0
C      1  0.3928950000000  0.5465460000000  0.5781110000000 1.0
C      1  0.4432380000000  0.6256420000000  0.5304890000000 1.0
C      1  0.3865410000000  0.5574440000000  0.5087240000000 1.0
C      1  0.5407940000000  0.5316100000000  0.5301720000000 1.0
C      1  0.4829060000000  0.4724950000000  0.5483830000000 1.0
C      1  0.4396540000000  0.4369260000000  0.4510610000000 1.0
C      1  0.6464020000000  0.4560780000000  0.4219080000000 1.0
C      1  0.5680790000000  0.5230570000000  0.6179950000000 1.0
C      1  0.3841060000000  0.4973870000000  0.5216470000000 1.0
C      1  0.5449820000000  0.5526160000000  0.3526490000000 1.0
C      1  0.4072500000000  0.3881290000000  0.5759560000000 1.0
C      1  0.5808500000000  0.4849200000000  0.3840320000000 1.0
C      1  0.5456460000000  0.5094910000000  0.5760100000000 1.0
C      1  0.5390280000000  0.4481620000000  0.4747040000000 1.0
C      1  0.5512190000000  0.4991920000000  0.3476380000000 1.0
C      1  0.4084040000000  0.6309650000000  0.5651820000000 1.0
C      1  0.4528860000000  0.5244730000000  0.5842170000000 1.0
C      1  0.4824480000000  0.4402170000000  0.3664790000000 1.0
C      1  0.3772080000000  0.5506050000000  0.5329160000000 1.0
C      1  0.5493070000000  0.5017020000000  0.4820400000000 1.0
C      1  0.4782390000000  0.5003230000000  0.4087820000000 1.0
C      1  0.5015670000000  0.4315270000000  0.4296490000000 1.0
C      1  0.5306260000000  0.4837110000000  0.3365580000000 1.0
C      1  0.5035530000000  0.4244760000000  0.3766440000000 1.0
C      1  0.5542840000000  0.4698290000000  0.5169250000000 1.0
C      1  0.4831900000000  0.5279360000000  0.3963480000000 1.0
C      1  0.5479540000000  0.5268740000000  0.3498780000000 1.0
C      1  0.4066120000000  0.5484870000000  0.4933880000000 1.0
C      1  0.5044900000000  0.4229640000000  0.5248940000000 1.0
C      1  0.5662560000000  0.5276190000000  0.6435880000000 1.0
C      1  0.6196540000000  0.5663610000000  0.4933710000000 1.0
C      1  0.4777620000000  0.5634090000000  0.5713300000000 1.0
C      1  0.4173230000000  0.5434490000000  0.4313920000000 1.0
C      1  0.6225790000000  0.4454420000000  0.4914050000000 1.0
C      1  0.4305220000000  0.6175490000000  0.5550060000000 1.0
C      1  0.3499250000000  0.6444380000000  0.6845340000000 1.0
C      1  0.4274920000000  0.4505580000000  0.5461390000000 1.0
C      1  0.4909850000000  0.5048430000000  0.4966600000000 1.0
C      1  0.4748420000000  0.4842100000000  0.4845240000000 1.0
C      1  0.4031310000000  0.5210760000000  0.4350980000000 1.0
C      1  0.5474780000000  0.4642270000000  0.4505170000000 1.0
C      1  0.4248780000000  0.5289730000000  0.4947670000000 1.0
C      1  0.5009560000000  0.5650890000000  0.4691430000000 1.0
C      1  0.6098980000000  0.4887430000000  0.5104680000000 1.0
C      1  0.4507780000000  0.5213740000000  0.5342760000000 1.0
C      1  0.5710490000000  0.4064020000000  0.5268970000000 1.0
C      1  0.3856720000000  0.5339370000000  0.5541220000000 1.0
C      1  0.5308010000000  0.4924700000000  0.4126110000000 1.0
C      1  0.4950740000000  0.4710290000000  0.4687580000000 1.0
C      1  0.5926860000000  0.5199690000000  0.5757560000000 1.0
C      1  0.5680720000000  0.4018950000000  0.5542790000000 1.0
END
