TITL C-247200-3482-206 7.7314603669163e-05 125000 -288.925777815205 0 0 49 (C1) n - 1
REM
REM in /home/nfs/bkarasulu/CARBON/AIRSS/Generating-Clusters/LCBOP/Only-C1/SD-CG/FIRE-HFTN
REM
REM
REM
REM
REM
REM ./C.cell (11c1c37f851c82e70ff6c80c92926a4b)
REM AIRSS Version 0.9.1 bugfix July 2018 build 013d7b7c2542+ Fri, 06 Jul 2018 19:26:36 +0100
REM compiler GCC version 9.2.1 20190827 (Red Hat 9.2.1-1)
REM options -cpp -mtune=generic -march=x86-64 -g -O0 -fpre-include=/usr/include/finclude/math-vector-fortran.h
REM seed -1204433075 1160869658 -30113705 -1835889239 -1157084319 965591741 1159520247 1682034120 -555984880 -277136430 -1012957056 -2132745080 76619331 1698654678 -136585633 -159699174 -699026372 1638364266 1159035466 -1295217317 -1787592305 -2141641372 -2101307563 962545018 -319881125 662576482 -447576440 457817278 2106348569 14129521 -909121578 -631152991 -882401042
REM
CELL 1.54180   50.00000   50.00000   50.00000   90.00000   90.00000   90.00000
LATT -1
SFAC C  
C      1  0.4688120000000  0.5068720000000  0.4576840000000 1.0
C      1  0.4893550000000  0.4483730000000  0.5391950000000 1.0
C      1  0.4056140000000  0.4653310000000  0.5923430000000 1.0
C      1  0.4320130000000  0.4654470000000  0.5034390000000 1.0
C      1  0.5633640000000  0.5047610000000  0.5070180000000 1.0
C      1  0.5396530000000  0.5185390000000  0.5149370000000 1.0
C      1  0.4749980000000  0.4926670000000  0.6071740000000 1.0
C      1  0.5140770000000  0.5610590000000  0.4456420000000 1.0
C      1  0.4838540000000  0.5236220000000  0.4410660000000 1.0
C      1  0.5230990000000  0.5762260000000  0.4654210000000 1.0
C      1  0.5502860000000  0.4903120000000  0.4618610000000 1.0
C      1  0.5292150000000  0.5856440000000  0.4894550000000 1.0
C      1  0.4646120000000  0.4517240000000  0.5517970000000 1.0
C      1  0.4971620000000  0.4446500000000  0.4893020000000 1.0
C      1  0.5702110000000  0.4808530000000  0.5207670000000 1.0
C      1  0.4221670000000  0.4651860000000  0.5722150000000 1.0
C      1  0.5235080000000  0.5327240000000  0.3526660000000 1.0
C      1  0.5541590000000  0.4881030000000  0.4344780000000 1.0
C      1  0.5317050000000  0.5866170000000  0.5158610000000 1.0
C      1  0.5300320000000  0.5774910000000  0.5407400000000 1.0
C      1  0.5679450000000  0.5042510000000  0.4790260000000 1.0
C      1  0.5372430000000  0.4561840000000  0.5453980000000 1.0
C      1  0.5570400000000  0.4859900000000  0.4086640000000 1.0
C      1  0.5108920000000  0.4661940000000  0.5445050000000 1.0
C      1  0.5021920000000  0.5413910000000  0.4297330000000 1.0
C      1  0.4822440000000  0.4889560000000  0.4749060000000 1.0
C      1  0.4402120000000  0.4656810000000  0.5510550000000 1.0
C      1  0.5087850000000  0.5393560000000  0.4026830000000 1.0
C      1  0.5075610000000  0.4942990000000  0.5412950000000 1.0
C      1  0.4755990000000  0.4612600000000  0.4788090000000 1.0
C      1  0.5555140000000  0.4567650000000  0.5238630000000 1.0
C      1  0.5156110000000  0.5354060000000  0.5671540000000 1.0
C      1  0.4151470000000  0.5120900000000  0.4562730000000 1.0
C      1  0.4611710000000  0.5255660000000  0.5205940000000 1.0
C      1  0.4419500000000  0.5076100000000  0.5255620000000 1.0
C      1  0.5249560000000  0.4519630000000  0.4839820000000 1.0
C      1  0.5243490000000  0.5591350000000  0.5590750000000 1.0
C      1  0.5463620000000  0.4430820000000  0.5004980000000 1.0
C      1  0.5159960000000  0.5362560000000  0.3773780000000 1.0
C      1  0.5037350000000  0.5101560000000  0.5650180000000 1.0
C      1  0.4486370000000  0.4557540000000  0.4846840000000 1.0
C      1  0.4409540000000  0.5085880000000  0.4572710000000 1.0
C      1  0.4349290000000  0.4803970000000  0.5271770000000 1.0
C      1  0.4916510000000  0.4338480000000  0.5149890000000 1.0
C      1  0.4880570000000  0.5004840000000  0.5860190000000 1.0
C      1  0.5073620000000  0.4955610000000  0.4866500000000 1.0
C      1  0.5106530000000  0.5095780000000  0.5139800000000 1.0
C      1  0.4873450000000  0.5288340000000  0.5153200000000 1.0
C      1  0.5280120000000  0.4791650000000  0.4753760000000 1.0
END
