TITL C-247195-3186-436 -5.61813368943879e-08 125000 -290.145616185854 0 0 48 (C1) n - 1
REM
REM in /home/nfs/bkarasulu/CARBON/AIRSS/Generating-Clusters/LCBOP/Only-C1/SD-CG/FIRE-HFTN
REM
REM
REM
REM
REM
REM ./C.cell (11c1c37f851c82e70ff6c80c92926a4b)
REM AIRSS Version 0.9.1 bugfix July 2018 build 013d7b7c2542+ Fri, 06 Jul 2018 19:26:36 +0100
REM compiler GCC version 9.2.1 20190827 (Red Hat 9.2.1-1)
REM options -cpp -mtune=generic -march=x86-64 -g -O0 -fpre-include=/usr/include/finclude/math-vector-fortran.h
REM seed 298765434 1169229461 1295172948 -470966362 -222197658 1099863349 676925663 1639161955 -2144657095 93507715 -206454084 312749438 1270494395 -152169662 -1613582227 1722843324 -1750723846 2031947004 578172297 269842530 2132420957 -1388513258 -1758934953 1308293716 -1929318429 650875190 816375103 -2116720553 2089565089 651160650 1677986933 2134200784 -700070134
REM
CELL 1.54180   50.00000   50.00000   50.00000   90.00000   90.00000   90.00000
LATT -1
SFAC C  
C      1  0.5002450000000  0.4838480000000  0.4657790000000 1.0
C      1  0.4707160000000  0.4279300000000  0.5208720000000 1.0
C      1  0.4326270000000  0.5234220000000  0.4794680000000 1.0
C      1  0.4445430000000  0.4987960000000  0.5595310000000 1.0
C      1  0.5310860000000  0.4586750000000  0.5649560000000 1.0
C      1  0.5063970000000  0.4718340000000  0.5634230000000 1.0
C      1  0.5073990000000  0.4992360000000  0.5571580000000 1.0
C      1  0.5247370000000  0.4318500000000  0.4657150000000 1.0
C      1  0.5713490000000  0.5432350000000  0.5248590000000 1.0
C      1  0.4539170000000  0.5951250000000  0.4528690000000 1.0
C      1  0.5564370000000  0.4608110000000  0.5566920000000 1.0
C      1  0.5241310000000  0.5481790000000  0.4832480000000 1.0
C      1  0.5827550000000  0.4594320000000  0.4799560000000 1.0
C      1  0.4649330000000  0.4337950000000  0.4955080000000 1.0
C      1  0.4804190000000  0.5271940000000  0.4443660000000 1.0
C      1  0.4845830000000  0.4601950000000  0.4593820000000 1.0
C      1  0.5511790000000  0.4259920000000  0.4578330000000 1.0
C      1  0.4546300000000  0.5191030000000  0.4360880000000 1.0
C      1  0.4385670000000  0.5208820000000  0.5458350000000 1.0
C      1  0.5242710000000  0.4491090000000  0.4887370000000 1.0
C      1  0.5061160000000  0.5266890000000  0.4849230000000 1.0
C      1  0.5290970000000  0.5661620000000  0.5046930000000 1.0
C      1  0.5009430000000  0.4377050000000  0.4507070000000 1.0
C      1  0.5528800000000  0.5616730000000  0.5188770000000 1.0
C      1  0.5740790000000  0.4384350000000  0.4653440000000 1.0
C      1  0.4815580000000  0.5555060000000  0.4475690000000 1.0
C      1  0.4622540000000  0.4544710000000  0.4765410000000 1.0
C      1  0.5470490000000  0.4906970000000  0.4849010000000 1.0
C      1  0.4984410000000  0.5196320000000  0.5109370000000 1.0
C      1  0.4383680000000  0.5376770000000  0.5251060000000 1.0
C      1  0.5745140000000  0.4732220000000  0.5414410000000 1.0
C      1  0.4416200000000  0.4728430000000  0.4810160000000 1.0
C      1  0.5228980000000  0.4768640000000  0.4825250000000 1.0
C      1  0.4792190000000  0.5758960000000  0.5090520000000 1.0
C      1  0.4583710000000  0.4767750000000  0.5655630000000 1.0
C      1  0.5814860000000  0.5185040000000  0.5245870000000 1.0
C      1  0.4606970000000  0.5647880000000  0.4905540000000 1.0
C      1  0.4651530000000  0.5724960000000  0.4632450000000 1.0
C      1  0.5056140000000  0.5790350000000  0.5138260000000 1.0
C      1  0.5794730000000  0.4907680000000  0.5200020000000 1.0
C      1  0.4425810000000  0.5434320000000  0.4977470000000 1.0
C      1  0.4957990000000  0.5117520000000  0.4628380000000 1.0
C      1  0.4330570000000  0.5255240000000  0.4512560000000 1.0
C      1  0.4769010000000  0.4370350000000  0.5451600000000 1.0
C      1  0.4314360000000  0.4965080000000  0.4879090000000 1.0
C      1  0.5025080000000  0.5154700000000  0.5367580000000 1.0
C      1  0.4805910000000  0.4600020000000  0.5607820000000 1.0
C      1  0.5723740000000  0.4817980000000  0.4938660000000 1.0
END
