TITL C-247198-3593-314 -10271.5562233212 125000 -1057.67811617561 0 0 173 (C1) n - 1
REM
REM in /home/nfs/bkarasulu/CARBON/AIRSS/Generating-Clusters/LCBOP/Only-C1/SD-CG/FIRE-HFTN
REM
REM
REM
REM
REM
REM ./C.cell (11c1c37f851c82e70ff6c80c92926a4b)
REM AIRSS Version 0.9.1 bugfix July 2018 build 013d7b7c2542+ Fri, 06 Jul 2018 19:26:36 +0100
REM compiler GCC version 9.2.1 20190827 (Red Hat 9.2.1-1)
REM options -cpp -mtune=generic -march=x86-64 -g -O0 -fpre-include=/usr/include/finclude/math-vector-fortran.h
REM seed -104846988 -1504046562 208485698 1202508046 -845795905 -748627678 714822520 -1313376112 602295123 69562529 -1648903424 -1114348468 -2060140656 1366399587 -49903444 548435421 -214477201 -113416049 857945665 1433377252 -1324790653 557247181 -962678645 367903124 506652272 1123185437 163212397 1029778911 1278103100 1823521782 1180345089 -188851197 1495615790
REM
CELL 1.54180   50.00000   50.00000   50.00000   90.00000   90.00000   90.00000
LATT -1
SFAC C  
C      1  0.5242150000000  0.6038920000000  0.5242230000000 1.0
C      1  0.4387180000000  0.4089450000000  0.5213000000000 1.0
C      1  0.4158590000000  0.4717940000000  0.5471010000000 1.0
C      1  0.5534610000000  0.5397200000000  0.5154700000000 1.0
C      1  0.5284520000000  0.5220010000000  0.6187450000000 1.0
C      1  0.4214410000000  0.5215170000000  0.5795090000000 1.0
C      1  0.4681290000000  0.4165630000000  0.5291550000000 1.0
C      1  0.5309970000000  0.4313500000000  0.5250640000000 1.0
C      1  0.4784200000000  0.4180590000000  0.5007130000000 1.0
C      1  0.3687980000000  0.4757200000000  0.5438010000000 1.0
C      1  0.3854540000000  0.5710750000000  0.4937170000000 1.0
C      1  0.4486710000000  0.5707600000000  0.4706400000000 1.0
C      1  0.4845480000000  0.5406640000000  0.4560500000000 1.0
C      1  0.5053670000000  0.5746200000000  0.4058250000000 1.0
C      1  0.4568370000000  0.5600150000000  0.4217030000000 1.0
C      1  0.5415970000000  0.4518020000000  0.4559120000000 1.0
C      1  0.6352120000000  0.4832580000000  0.5241520000000 1.0
C      1  0.5432870000000  0.5378620000000  0.6001390000000 1.0
C      1  0.5068650000000  0.4121430000000  0.5634700000000 1.0
C      1  0.3963850000000  0.5428620000000  0.4554900000000 1.0
C      1  0.5317420000000  0.5507520000000  0.5327160000000 1.0
C      1  0.4595260000000  0.6472640000000  0.4916110000000 1.0
C      1  0.5882980000000  0.5096370000000  0.4738350000000 1.0
C      1  0.4067850000000  0.4457370000000  0.4742350000000 1.0
C      1  0.5030950000000  0.4680100000000  0.4977350000000 1.0
C      1  0.5495600000000  0.6101790000000  0.4836200000000 1.0
C      1  0.5714420000000  0.4626200000000  0.4877480000000 1.0
C      1  0.4748130000000  0.5336270000000  0.6070400000000 1.0
C      1  0.5675110000000  0.5305010000000  0.5609770000000 1.0
C      1  0.4381470000000  0.4426840000000  0.4403930000000 1.0
C      1  0.4375650000000  0.4993130000000  0.3999190000000 1.0
C      1  0.4905010000000  0.5696660000000  0.5254820000000 1.0
C      1  0.5799860000000  0.5015660000000  0.5218040000000 1.0
C      1  0.5413820000000  0.5279060000000  0.4104060000000 1.0
C      1  0.4787180000000  0.5695680000000  0.4060720000000 1.0
C      1  0.4809720000000  0.4681650000000  0.6057030000000 1.0
C      1  0.5253910000000  0.4933870000000  0.6177270000000 1.0
C      1  0.4732460000000  0.4663650000000  0.5565870000000 1.0
C      1  0.5805990000000  0.5538730000000  0.5062460000000 1.0
C      1  0.4545670000000  0.5140850000000  0.5043800000000 1.0
C      1  0.5589080000000  0.5136570000000  0.3937300000000 1.0
C      1  0.5185420000000  0.4834070000000  0.4222320000000 1.0
C      1  0.4445290000000  0.4971430000000  0.4838510000000 1.0
C      1  0.4976920000000  0.4952220000000  0.5041770000000 1.0
C      1  0.4706270000000  0.4442800000000  0.5397830000000 1.0
C      1  0.4219640000000  0.4773080000000  0.5977860000000 1.0
C      1  0.4098060000000  0.5489330000000  0.4311960000000 1.0
C      1  0.6258100000000  0.4982500000000  0.5035810000000 1.0
C      1  0.4844590000000  0.5520640000000  0.5850880000000 1.0
C      1  0.3912240000000  0.4776750000000  0.5612970000000 1.0
C      1  0.5793040000000  0.5760510000000  0.4892820000000 1.0
C      1  0.5685260000000  0.4943090000000  0.5947710000000 1.0
C      1  0.4868380000000  0.3788780000000  0.4746970000000 1.0
C      1  0.5417460000000  0.4133490000000  0.4022100000000 1.0
C      1  0.5755750000000  0.5586920000000  0.4356490000000 1.0
C      1  0.4897680000000  0.3997210000000  0.5435600000000 1.0
C      1  0.4323980000000  0.5466710000000  0.4139030000000 1.0
C      1  0.5984680000000  0.5046030000000  0.4996480000000 1.0
C      1  0.4281810000000  0.5407650000000  0.5335340000000 1.0
C      1  0.5366160000000  0.5636500000000  0.5867700000000 1.0
C      1  0.3946060000000  0.4772620000000  0.5892450000000 1.0
C      1  0.4137400000000  0.4675650000000  0.5188140000000 1.0
C      1  0.4745330000000  0.5000610000000  0.4327600000000 1.0
C      1  0.6055540000000  0.5488380000000  0.5490760000000 1.0
C      1  0.5258820000000  0.4560770000000  0.5110250000000 1.0
C      1  0.5939110000000  0.4514320000000  0.5030050000000 1.0
C      1  0.4660350000000  0.3911470000000  0.4604300000000 1.0
C      1  0.5936370000000  0.4284930000000  0.3932360000000 1.0
C      1  0.4593540000000  0.5679450000000  0.5779880000000 1.0
C      1  0.4630270000000  0.5582300000000  0.4496960000000 1.0
C      1  0.5190680000000  0.5137170000000  0.4215800000000 1.0
C      1  0.4212080000000  0.4947050000000  0.4431680000000 1.0
C      1  0.4331510000000  0.5040770000000  0.5984510000000 1.0
C      1  0.5941210000000  0.4595590000000  0.5318970000000 1.0
C      1  0.3714780000000  0.4514470000000  0.5275570000000 1.0
C      1  0.5049000000000  0.5505710000000  0.5404150000000 1.0
C      1  0.5424910000000  0.4115280000000  0.5082230000000 1.0
C      1  0.5610980000000  0.5208410000000  0.5860520000000 1.0
C      1  0.5338250000000  0.5846080000000  0.4444800000000 1.0
C      1  0.5093350000000  0.5186040000000  0.4945380000000 1.0
C      1  0.4157120000000  0.5439120000000  0.5604780000000 1.0
C      1  0.4036400000000  0.5566070000000  0.4793730000000 1.0
C      1  0.5240040000000  0.6030780000000  0.4947470000000 1.0
C      1  0.5617530000000  0.5052620000000  0.4621100000000 1.0
C      1  0.4546830000000  0.6233680000000  0.4823920000000 1.0
C      1  0.4311950000000  0.5551820000000  0.4869780000000 1.0
C      1  0.5407790000000  0.4503700000000  0.5974140000000 1.0
C      1  0.4315880000000  0.5265190000000  0.3932680000000 1.0
C      1  0.5654380000000  0.5211360000000  0.5348150000000 1.0
C      1  0.4262150000000  0.4457800000000  0.5592470000000 1.0
C      1  0.4781320000000  0.4925320000000  0.5468980000000 1.0
C      1  0.5192090000000  0.4299020000000  0.4099520000000 1.0
C      1  0.4213010000000  0.4833260000000  0.4171940000000 1.0
C      1  0.4212040000000  0.4547700000000  0.4205030000000 1.0
C      1  0.4741430000000  0.4420260000000  0.4085510000000 1.0
C      1  0.5553130000000  0.5992460000000  0.4571820000000 1.0
C      1  0.5260350000000  0.4087260000000  0.4849060000000 1.0
C      1  0.5830510000000  0.5011390000000  0.4012770000000 1.0
C      1  0.4272360000000  0.4791710000000  0.4976560000000 1.0
C      1  0.4187870000000  0.4252470000000  0.5358030000000 1.0
C      1  0.5318300000000  0.4274700000000  0.4639750000000 1.0
C      1  0.5508670000000  0.5538760000000  0.4183570000000 1.0
C      1  0.4842490000000  0.4581410000000  0.4514480000000 1.0
C      1  0.5827790000000  0.4732600000000  0.4003430000000 1.0
C      1  0.3664950000000  0.5263610000000  0.5456170000000 1.0
C      1  0.4556650000000  0.5150750000000  0.6113860000000 1.0
C      1  0.5973300000000  0.5414860000000  0.4288410000000 1.0
C      1  0.4507870000000  0.5982790000000  0.4748300000000 1.0
C      1  0.5291320000000  0.4274030000000  0.5526630000000 1.0
C      1  0.4644330000000  0.4371220000000  0.4858760000000 1.0
C      1  0.3577550000000  0.5014350000000  0.5392240000000 1.0
C      1  0.4424900000000  0.3962580000000  0.4882380000000 1.0
C      1  0.5366110000000  0.5260880000000  0.4942120000000 1.0
C      1  0.4329330000000  0.5664170000000  0.5721520000000 1.0
C      1  0.5649400000000  0.3971040000000  0.5132620000000 1.0
C      1  0.4986660000000  0.5959730000000  0.5338430000000 1.0
C      1  0.6164220000000  0.4747260000000  0.5438180000000 1.0
C      1  0.5469340000000  0.4777380000000  0.6054820000000 1.0
C      1  0.5516960000000  0.4674010000000  0.5085290000000 1.0
C      1  0.5307490000000  0.5747480000000  0.4183870000000 1.0
C      1  0.4744760000000  0.5007420000000  0.5199830000000 1.0
C      1  0.5675950000000  0.5984080000000  0.5047130000000 1.0
C      1  0.6297870000000  0.5570330000000  0.5076610000000 1.0
C      1  0.4986190000000  0.5072980000000  0.5601110000000 1.0
C      1  0.4649090000000  0.4919790000000  0.4043370000000 1.0
C      1  0.5299620000000  0.4592130000000  0.4105090000000 1.0
C      1  0.4251620000000  0.5334020000000  0.3675590000000 1.0
C      1  0.4375220000000  0.4558720000000  0.5849730000000 1.0
C      1  0.4653350000000  0.4617330000000  0.5835450000000 1.0
C      1  0.5653760000000  0.4283080000000  0.3977460000000 1.0
C      1  0.6161920000000  0.5232150000000  0.5595300000000 1.0
C      1  0.5238800000000  0.4946460000000  0.5601890000000 1.0
C      1  0.6060690000000  0.5526040000000  0.5206920000000 1.0
C      1  0.5204530000000  0.4322350000000  0.6075460000000 1.0
C      1  0.5001510000000  0.4811770000000  0.6189150000000 1.0
C      1  0.5798310000000  0.5566710000000  0.5605720000000 1.0
C      1  0.5445210000000  0.5306820000000  0.4675160000000 1.0
C      1  0.5136140000000  0.5783610000000  0.4844380000000 1.0
C      1  0.4465400000000  0.4990540000000  0.4555210000000 1.0
C      1  0.3858580000000  0.5427560000000  0.5550730000000 1.0
C      1  0.4648160000000  0.4461220000000  0.4350270000000 1.0
C      1  0.4774820000000  0.4014210000000  0.4342010000000 1.0
C      1  0.6006490000000  0.5182090000000  0.4154210000000 1.0
C      1  0.4734440000000  0.4662940000000  0.3937470000000 1.0
C      1  0.5466750000000  0.4400650000000  0.5712110000000 1.0
C      1  0.3835320000000  0.5177490000000  0.4588500000000 1.0
C      1  0.3910040000000  0.4671690000000  0.4679830000000 1.0
C      1  0.5581970000000  0.4573300000000  0.4025120000000 1.0
C      1  0.4843580000000  0.4561450000000  0.4789970000000 1.0
C      1  0.3963610000000  0.4928770000000  0.4571910000000 1.0
C      1  0.5584770000000  0.4742020000000  0.4637330000000 1.0
C      1  0.5018410000000  0.3837030000000  0.5223330000000 1.0
C      1  0.3983460000000  0.4418750000000  0.5200500000000 1.0
C      1  0.5287010000000  0.5633780000000  0.4640520000000 1.0
C      1  0.4947570000000  0.5353510000000  0.5617710000000 1.0
C      1  0.5464300000000  0.4823220000000  0.5522580000000 1.0
C      1  0.5523250000000  0.5954580000000  0.5328570000000 1.0
C      1  0.5091530000000  0.5698490000000  0.5900500000000 1.0
C      1  0.6037420000000  0.4541950000000  0.3948970000000 1.0
C      1  0.4922530000000  0.4197990000000  0.4138110000000 1.0
C      1  0.5053400000000  0.4152940000000  0.5918640000000 1.0
C      1  0.5679380000000  0.4761580000000  0.5324450000000 1.0
C      1  0.6115930000000  0.4945690000000  0.5648450000000 1.0
C      1  0.5946130000000  0.4871230000000  0.5865130000000 1.0
C      1  0.4952590000000  0.4791650000000  0.4385090000000 1.0
C      1  0.4918560000000  0.5387660000000  0.4836410000000 1.0
C      1  0.5583400000000  0.5767310000000  0.5613670000000 1.0
C      1  0.4933510000000  0.5238080000000  0.4348000000000 1.0
C      1  0.4396650000000  0.5379520000000  0.5083820000000 1.0
C      1  0.5761760000000  0.5775650000000  0.4594310000000 1.0
C      1  0.4337570000000  0.4391200000000  0.4682100000000 1.0
C      1  0.5000450000000  0.3962870000000  0.4944020000000 1.0
C      1  0.4929940000000  0.5640350000000  0.4974890000000 1.0
END
