TITL C-247201-3759-457 0.0562374555069454 125000 -437.578961212091 0 0 73 (C1) n - 1
REM
REM in /home/nfs/bkarasulu/CARBON/AIRSS/Generating-Clusters/LCBOP/Only-C1/SD-CG/FIRE-HFTN
REM
REM
REM
REM
REM
REM ./C.cell (11c1c37f851c82e70ff6c80c92926a4b)
REM AIRSS Version 0.9.1 bugfix July 2018 build 013d7b7c2542+ Fri, 06 Jul 2018 19:26:36 +0100
REM compiler GCC version 9.2.1 20190827 (Red Hat 9.2.1-1)
REM options -cpp -mtune=generic -march=x86-64 -g -O0 -fpre-include=/usr/include/finclude/math-vector-fortran.h
REM seed 625023902 1288639945 -486711025 -257553998 915782047 21281906 293764761 -1416096984 1652877979 -495041140 -693965635 311095048 1253898741 -1288525984 985284978 -573908082 -536543105 -688504365 -1407534512 -934267138 1382308746 -786632847 319465732 -32311002 -1376259655 1273541580 -502366979 -261113033 -1114321334 1189024282 2028193884 -96916513 1321890872
REM
CELL 1.54180   50.00000   50.00000   50.00000   90.00000   90.00000   90.00000
LATT -1
SFAC C  
C      1  0.5717900000000  0.5373550000000  0.5627360000000 1.0
C      1  0.4431310000000  0.5714410000000  0.5126460000000 1.0
C      1  0.5068730000000  0.4347250000000  0.5028230000000 1.0
C      1  0.4414980000000  0.5185630000000  0.4340070000000 1.0
C      1  0.4411480000000  0.4995010000000  0.4561000000000 1.0
C      1  0.5384280000000  0.5209910000000  0.4276230000000 1.0
C      1  0.4056480000000  0.4924050000000  0.4854230000000 1.0
C      1  0.4247100000000  0.4796740000000  0.4674950000000 1.0
C      1  0.4841020000000  0.4887840000000  0.4846920000000 1.0
C      1  0.4667560000000  0.4500620000000  0.4674550000000 1.0
C      1  0.5439400000000  0.5040580000000  0.4069200000000 1.0
C      1  0.4837510000000  0.3704880000000  0.5567830000000 1.0
C      1  0.5739760000000  0.4759520000000  0.5561380000000 1.0
C      1  0.4941790000000  0.4421150000000  0.4772910000000 1.0
C      1  0.5095010000000  0.5725720000000  0.4825910000000 1.0
C      1  0.5317820000000  0.4500360000000  0.5084970000000 1.0
C      1  0.4826130000000  0.5742690000000  0.4707280000000 1.0
C      1  0.5897790000000  0.4964300000000  0.5445730000000 1.0
C      1  0.4852150000000  0.3447250000000  0.5530740000000 1.0
C      1  0.4816930000000  0.4229750000000  0.5636920000000 1.0
C      1  0.5247960000000  0.5142580000000  0.5088400000000 1.0
C      1  0.4701410000000  0.5495500000000  0.4790350000000 1.0
C      1  0.4823400000000  0.3966910000000  0.5605150000000 1.0
C      1  0.4382310000000  0.4735780000000  0.5115570000000 1.0
C      1  0.6402390000000  0.4855980000000  0.5286650000000 1.0
C      1  0.4832020000000  0.4507600000000  0.5652750000000 1.0
C      1  0.5677880000000  0.5465050000000  0.4928860000000 1.0
C      1  0.4616240000000  0.4812200000000  0.5297410000000 1.0
C      1  0.4395040000000  0.5219150000000  0.5131640000000 1.0
C      1  0.5351370000000  0.4686280000000  0.5302500000000 1.0
C      1  0.4486790000000  0.5692830000000  0.4350910000000 1.0
C      1  0.4239380000000  0.5471790000000  0.4703550000000 1.0
C      1  0.4885500000000  0.5264090000000  0.4351160000000 1.0
C      1  0.5494150000000  0.4623110000000  0.5541240000000 1.0
C      1  0.4881420000000  0.5237790000000  0.5364060000000 1.0
C      1  0.4215630000000  0.4989880000000  0.5086830000000 1.0
C      1  0.4426690000000  0.5470630000000  0.4948250000000 1.0
C      1  0.4658470000000  0.5040780000000  0.4708040000000 1.0
C      1  0.5795370000000  0.5229540000000  0.5406730000000 1.0
C      1  0.4685590000000  0.5835430000000  0.4477220000000 1.0
C      1  0.6159790000000  0.4906810000000  0.5367120000000 1.0
C      1  0.5048520000000  0.4921030000000  0.5751220000000 1.0
C      1  0.5537350000000  0.4853350000000  0.4785750000000 1.0
C      1  0.4677760000000  0.5105060000000  0.4214170000000 1.0
C      1  0.5068350000000  0.5362250000000  0.5162330000000 1.0
C      1  0.5297350000000  0.5019130000000  0.4842610000000 1.0
C      1  0.5071890000000  0.5640940000000  0.5101660000000 1.0
C      1  0.5566990000000  0.5248710000000  0.4499300000000 1.0
C      1  0.5161260000000  0.4595460000000  0.4660740000000 1.0
C      1  0.5303020000000  0.5651190000000  0.4642310000000 1.0
C      1  0.5530420000000  0.5474670000000  0.4687450000000 1.0
C      1  0.5203760000000  0.5629170000000  0.4374340000000 1.0
C      1  0.4634130000000  0.5833730000000  0.5259510000000 1.0
C      1  0.5772040000000  0.5349540000000  0.5151690000000 1.0
C      1  0.5087080000000  0.4871230000000  0.4715670000000 1.0
C      1  0.5423390000000  0.4584100000000  0.4818120000000 1.0
C      1  0.5063250000000  0.4637930000000  0.5759150000000 1.0
C      1  0.5414810000000  0.4343870000000  0.5937500000000 1.0
C      1  0.4902970000000  0.5805380000000  0.5261900000000 1.0
C      1  0.5689870000000  0.5010170000000  0.4605750000000 1.0
C      1  0.5328520000000  0.4526380000000  0.5754150000000 1.0
C      1  0.5064100000000  0.5058140000000  0.5509310000000 1.0
C      1  0.4614610000000  0.4670670000000  0.5559210000000 1.0
C      1  0.4340150000000  0.5456500000000  0.4427100000000 1.0
C      1  0.4393190000000  0.4700920000000  0.5720400000000 1.0
C      1  0.4710250000000  0.4814320000000  0.4221570000000 1.0
C      1  0.5251560000000  0.4956090000000  0.5309050000000 1.0
C      1  0.4781250000000  0.5282210000000  0.4626770000000 1.0
C      1  0.4618680000000  0.5129050000000  0.5305270000000 1.0
C      1  0.4678400000000  0.4602280000000  0.4394610000000 1.0
C      1  0.4423260000000  0.4608350000000  0.4834420000000 1.0
C      1  0.5143300000000  0.5365240000000  0.4286920000000 1.0
C      1  0.4834630000000  0.4772010000000  0.5102820000000 1.0
END
