TITL C-247200-3482-104 -36692.7287815403 125000 -672.371862429879 0 0 111 (C1) n - 1
REM
REM in /home/nfs/bkarasulu/CARBON/AIRSS/Generating-Clusters/LCBOP/Only-C1/SD-CG/FIRE-HFTN
REM
REM
REM
REM
REM
REM ./C.cell (11c1c37f851c82e70ff6c80c92926a4b)
REM AIRSS Version 0.9.1 bugfix July 2018 build 013d7b7c2542+ Fri, 06 Jul 2018 19:26:36 +0100
REM compiler GCC version 9.2.1 20190827 (Red Hat 9.2.1-1)
REM options -cpp -mtune=generic -march=x86-64 -g -O0 -fpre-include=/usr/include/finclude/math-vector-fortran.h
REM seed 1306927911 1587121043 445654778 -5046272 1942201733 -1745876365 -1004328363 -1260595879 1053019491 -761738229 -1842963375 466402605 -334849037 -1103872989 795568025 -1213960425 1618993680 466838113 571110709 451074047 242878655 -578753923 505264261 1122187856 -662867079 -480401391 -518670597 -691164898 1152160866 -1765133597 -403931750 2069426608 524256037
REM
CELL 1.54180   50.00000   50.00000   50.00000   90.00000   90.00000   90.00000
LATT -1
SFAC C  
C      1  0.4573210000000  0.5270870000000  0.4835300000000 1.0
C      1  0.4466580000000  0.5348710000000  0.4300570000000 1.0
C      1  0.4740580000000  0.5017730000000  0.5204550000000 1.0
C      1  0.5208900000000  0.5807820000000  0.4455210000000 1.0
C      1  0.4277720000000  0.4436460000000  0.4640600000000 1.0
C      1  0.5186590000000  0.5130530000000  0.4969130000000 1.0
C      1  0.4300340000000  0.4704770000000  0.5299130000000 1.0
C      1  0.4760160000000  0.5209180000000  0.6173730000000 1.0
C      1  0.5660240000000  0.5036800000000  0.4267450000000 1.0
C      1  0.4611020000000  0.4993630000000  0.4753200000000 1.0
C      1  0.4518420000000  0.4622210000000  0.5096390000000 1.0
C      1  0.5191270000000  0.5032840000000  0.5678900000000 1.0
C      1  0.4587580000000  0.5758060000000  0.4607170000000 1.0
C      1  0.5831400000000  0.4478570000000  0.4643450000000 1.0
C      1  0.4585660000000  0.4872640000000  0.5008410000000 1.0
C      1  0.4706050000000  0.4271210000000  0.5593010000000 1.0
C      1  0.4113760000000  0.5211240000000  0.4856080000000 1.0
C      1  0.5200680000000  0.4984960000000  0.4421810000000 1.0
C      1  0.4904350000000  0.5726150000000  0.5005400000000 1.0
C      1  0.4520770000000  0.5252270000000  0.6063490000000 1.0
C      1  0.4849050000000  0.4828590000000  0.5398220000000 1.0
C      1  0.5379660000000  0.5372750000000  0.4600020000000 1.0
C      1  0.4309560000000  0.5415870000000  0.4760230000000 1.0
C      1  0.5650990000000  0.4873660000000  0.4507950000000 1.0
C      1  0.4332580000000  0.5085600000000  0.4270170000000 1.0
C      1  0.4529230000000  0.4217890000000  0.5353620000000 1.0
C      1  0.4489510000000  0.5622200000000  0.5323660000000 1.0
C      1  0.4806770000000  0.5814520000000  0.5722490000000 1.0
C      1  0.4746330000000  0.4470110000000  0.4229130000000 1.0
C      1  0.5440590000000  0.5460900000000  0.5997960000000 1.0
C      1  0.4946930000000  0.4215800000000  0.4968100000000 1.0
C      1  0.5238230000000  0.5321660000000  0.6110100000000 1.0
C      1  0.5314970000000  0.4602370000000  0.4144550000000 1.0
C      1  0.5243330000000  0.4477500000000  0.5212920000000 1.0
C      1  0.4222840000000  0.5652010000000  0.4925150000000 1.0
C      1  0.5263920000000  0.4505730000000  0.5907950000000 1.0
C      1  0.5585220000000  0.4340160000000  0.4561430000000 1.0
C      1  0.4660380000000  0.4758950000000  0.5604180000000 1.0
C      1  0.5655140000000  0.5469610000000  0.5314270000000 1.0
C      1  0.4775500000000  0.5775360000000  0.5459830000000 1.0
C      1  0.4307270000000  0.5313790000000  0.5349990000000 1.0
C      1  0.4708730000000  0.4228070000000  0.4377390000000 1.0
C      1  0.5880770000000  0.5181740000000  0.4955430000000 1.0
C      1  0.4508810000000  0.4906100000000  0.4101070000000 1.0
C      1  0.4659690000000  0.5801370000000  0.4887200000000 1.0
C      1  0.5756680000000  0.5315400000000  0.4326380000000 1.0
C      1  0.5495420000000  0.4692070000000  0.5898800000000 1.0
C      1  0.5225830000000  0.4270790000000  0.5008630000000 1.0
C      1  0.5409110000000  0.5178930000000  0.4810310000000 1.0
C      1  0.5224220000000  0.4582130000000  0.4664380000000 1.0
C      1  0.5113340000000  0.5962950000000  0.4251530000000 1.0
C      1  0.5580080000000  0.4391000000000  0.5578810000000 1.0
C      1  0.5364550000000  0.4344520000000  0.4755750000000 1.0
C      1  0.5172870000000  0.4079610000000  0.5677510000000 1.0
C      1  0.5177970000000  0.5520790000000  0.4455300000000 1.0
C      1  0.4974350000000  0.4683680000000  0.4809570000000 1.0
C      1  0.4402650000000  0.4846930000000  0.5538590000000 1.0
C      1  0.4415850000000  0.5541970000000  0.4503650000000 1.0
C      1  0.4761200000000  0.4528940000000  0.5745590000000 1.0
C      1  0.6023680000000  0.4975890000000  0.4799600000000 1.0
C      1  0.5019990000000  0.5136440000000  0.6099210000000 1.0
C      1  0.4507880000000  0.4639910000000  0.4219680000000 1.0
C      1  0.5618790000000  0.5552270000000  0.5816950000000 1.0
C      1  0.5047580000000  0.4930190000000  0.5901520000000 1.0
C      1  0.4807040000000  0.4846060000000  0.4613270000000 1.0
C      1  0.5128950000000  0.4862840000000  0.4998630000000 1.0
C      1  0.4092140000000  0.4880020000000  0.5201680000000 1.0
C      1  0.5655170000000  0.5472190000000  0.4564740000000 1.0
C      1  0.5021180000000  0.5867480000000  0.5224600000000 1.0
C      1  0.4907160000000  0.4073140000000  0.5637550000000 1.0
C      1  0.5005320000000  0.4634370000000  0.5896520000000 1.0
C      1  0.5310270000000  0.5883330000000  0.5152640000000 1.0
C      1  0.4934020000000  0.5459630000000  0.5099350000000 1.0
C      1  0.5478410000000  0.4393560000000  0.4287000000000 1.0
C      1  0.5348600000000  0.5920660000000  0.4671220000000 1.0
C      1  0.4412260000000  0.4227900000000  0.4787680000000 1.0
C      1  0.4138190000000  0.5161370000000  0.5140180000000 1.0
C      1  0.5410220000000  0.5103330000000  0.5522080000000 1.0
C      1  0.4732510000000  0.5326850000000  0.4174120000000 1.0
C      1  0.4300710000000  0.4636220000000  0.4437450000000 1.0
C      1  0.4632260000000  0.4112160000000  0.4629000000000 1.0
C      1  0.4188500000000  0.4908360000000  0.4451600000000 1.0
C      1  0.4436830000000  0.5757990000000  0.5073680000000 1.0
C      1  0.4968980000000  0.5419890000000  0.4293640000000 1.0
C      1  0.5353540000000  0.4711760000000  0.5104800000000 1.0
C      1  0.5875440000000  0.4767450000000  0.4650370000000 1.0
C      1  0.5474230000000  0.5822420000000  0.4908820000000 1.0
C      1  0.5691250000000  0.5621710000000  0.4837400000000 1.0
C      1  0.5729220000000  0.5573340000000  0.5569500000000 1.0
C      1  0.4041060000000  0.5019250000000  0.4662800000000 1.0
C      1  0.5352730000000  0.4286440000000  0.5730410000000 1.0
C      1  0.4795340000000  0.4468060000000  0.4968280000000 1.0
C      1  0.5379480000000  0.4805790000000  0.4556530000000 1.0
C      1  0.5579820000000  0.4856830000000  0.5167530000000 1.0
C      1  0.5003860000000  0.4621310000000  0.4206150000000 1.0
C      1  0.4954010000000  0.4864700000000  0.4370070000000 1.0
C      1  0.5804850000000  0.5455150000000  0.5052860000000 1.0
C      1  0.5942720000000  0.5431330000000  0.4159920000000 1.0
C      1  0.4714270000000  0.5087370000000  0.4010040000000 1.0
C      1  0.5398600000000  0.5329180000000  0.5342240000000 1.0
C      1  0.5174560000000  0.5334400000000  0.5167140000000 1.0
C      1  0.5624360000000  0.5057300000000  0.4969370000000 1.0
C      1  0.5597620000000  0.4893020000000  0.5452080000000 1.0
C      1  0.5486840000000  0.4861630000000  0.4081950000000 1.0
C      1  0.4374780000000  0.5234840000000  0.5841170000000 1.0
C      1  0.4426220000000  0.4186480000000  0.5090840000000 1.0
C      1  0.4723850000000  0.5282480000000  0.5085450000000 1.0
C      1  0.5027110000000  0.4595570000000  0.5366870000000 1.0
C      1  0.4842520000000  0.4020850000000  0.4795410000000 1.0
C      1  0.5629100000000  0.4675760000000  0.5637490000000 1.0
C      1  0.4350520000000  0.5134880000000  0.5580120000000 1.0
END
