TITL C-247196-3112-77 0.0451546611899823 125000 -1013.28197381455 0 0 163 (C1) n - 1
REM
REM in /home/nfs/bkarasulu/CARBON/AIRSS/Generating-Clusters/LCBOP/Only-C1/SD-CG/FIRE-HFTN
REM
REM
REM
REM
REM
REM ./C.cell (11c1c37f851c82e70ff6c80c92926a4b)
REM AIRSS Version 0.9.1 bugfix July 2018 build 013d7b7c2542+ Fri, 06 Jul 2018 19:26:36 +0100
REM compiler GCC version 9.2.1 20190827 (Red Hat 9.2.1-1)
REM options -cpp -mtune=generic -march=x86-64 -g -O0 -fpre-include=/usr/include/finclude/math-vector-fortran.h
REM seed 2073128684 -508317307 -524613786 212809674 1922309935 915718269 -660462742 1354919891 -1729708044 1541528882 65778866 949007674 792427330 -680778243 -1711844910 -309371786 208711552 -1032724762 1244637437 639117847 -226138972 343297528 1605653166 761805584 -1140601032 1338354422 -365501378 1549868658 -1711485281 47624766 782054247 1256113282 397802913
REM
CELL 1.54180   50.00000   50.00000   50.00000   90.00000   90.00000   90.00000
LATT -1
SFAC C  
C      1  0.5405250000000  0.5442630000000  0.6101940000000 1.0
C      1  0.4148930000000  0.4240040000000  0.5128050000000 1.0
C      1  0.4355020000000  0.5279100000000  0.4618620000000 1.0
C      1  0.6009220000000  0.5212540000000  0.5445500000000 1.0
C      1  0.4545170000000  0.5660090000000  0.5234670000000 1.0
C      1  0.4615930000000  0.5917170000000  0.5132510000000 1.0
C      1  0.3690400000000  0.5237550000000  0.5331660000000 1.0
C      1  0.5593400000000  0.5071920000000  0.5875790000000 1.0
C      1  0.5932100000000  0.5610400000000  0.5164790000000 1.0
C      1  0.5169300000000  0.4163340000000  0.5756580000000 1.0
C      1  0.6328170000000  0.4711140000000  0.4711560000000 1.0
C      1  0.4516210000000  0.4680640000000  0.4775710000000 1.0
C      1  0.4566900000000  0.5201840000000  0.5026000000000 1.0
C      1  0.5561740000000  0.4424780000000  0.5921860000000 1.0
C      1  0.5600940000000  0.5820250000000  0.4226950000000 1.0
C      1  0.5507290000000  0.5425590000000  0.4816040000000 1.0
C      1  0.4675240000000  0.4993210000000  0.6100100000000 1.0
C      1  0.4751700000000  0.5269230000000  0.5557320000000 1.0
C      1  0.4926590000000  0.5855940000000  0.4241680000000 1.0
C      1  0.4902420000000  0.4430910000000  0.4882720000000 1.0
C      1  0.4355900000000  0.5107600000000  0.5185320000000 1.0
C      1  0.5501130000000  0.4658960000000  0.4042370000000 1.0
C      1  0.4963760000000  0.5867980000000  0.5754940000000 1.0
C      1  0.5448110000000  0.4242660000000  0.5716340000000 1.0
C      1  0.5768860000000  0.4589950000000  0.5814890000000 1.0
C      1  0.5051990000000  0.4074200000000  0.4348050000000 1.0
C      1  0.5020080000000  0.4703460000000  0.4243150000000 1.0
C      1  0.5610470000000  0.4222480000000  0.4945020000000 1.0
C      1  0.4893890000000  0.4230310000000  0.5681070000000 1.0
C      1  0.4182750000000  0.5803710000000  0.4639770000000 1.0
C      1  0.5689970000000  0.5613760000000  0.5578480000000 1.0
C      1  0.5679620000000  0.5707280000000  0.4472450000000 1.0
C      1  0.5505400000000  0.5214780000000  0.4104800000000 1.0
C      1  0.5482100000000  0.5770080000000  0.5655720000000 1.0
C      1  0.4459860000000  0.4935750000000  0.5385290000000 1.0
C      1  0.5163710000000  0.4412870000000  0.4981310000000 1.0
C      1  0.3922730000000  0.5620660000000  0.5599140000000 1.0
C      1  0.4328100000000  0.4700780000000  0.5953980000000 1.0
C      1  0.3853440000000  0.5125800000000  0.5126730000000 1.0
C      1  0.5405470000000  0.5289360000000  0.4367500000000 1.0
C      1  0.4270490000000  0.5649590000000  0.5280860000000 1.0
C      1  0.5233600000000  0.5850430000000  0.5729090000000 1.0
C      1  0.6530410000000  0.4827190000000  0.4558910000000 1.0
C      1  0.5121590000000  0.5735840000000  0.4063040000000 1.0
C      1  0.4159170000000  0.4714420000000  0.5718550000000 1.0
C      1  0.5063130000000  0.6074600000000  0.4946420000000 1.0
C      1  0.5639190000000  0.4123110000000  0.5219150000000 1.0
C      1  0.5443820000000  0.4964140000000  0.5363180000000 1.0
C      1  0.5676930000000  0.4543760000000  0.4604240000000 1.0
C      1  0.5641810000000  0.4263220000000  0.5477520000000 1.0
C      1  0.5396020000000  0.4467330000000  0.4570960000000 1.0
C      1  0.4395530000000  0.5552150000000  0.3963350000000 1.0
C      1  0.4423280000000  0.5286530000000  0.3924780000000 1.0
C      1  0.4147130000000  0.5369100000000  0.4447570000000 1.0
C      1  0.5704640000000  0.4805100000000  0.4720820000000 1.0
C      1  0.4991990000000  0.6154330000000  0.5218640000000 1.0
C      1  0.5251770000000  0.4577480000000  0.5197270000000 1.0
C      1  0.4823720000000  0.5108690000000  0.5064870000000 1.0
C      1  0.5202810000000  0.5330520000000  0.5676580000000 1.0
C      1  0.5057940000000  0.4867500000000  0.4002790000000 1.0
C      1  0.6291090000000  0.5059050000000  0.5054240000000 1.0
C      1  0.4100910000000  0.5007130000000  0.5705350000000 1.0
C      1  0.4696380000000  0.5027800000000  0.4295340000000 1.0
C      1  0.5215550000000  0.4669150000000  0.4462980000000 1.0
C      1  0.5408510000000  0.5719650000000  0.4049200000000 1.0
C      1  0.4569650000000  0.4537350000000  0.5938580000000 1.0
C      1  0.4267160000000  0.5181610000000  0.5882750000000 1.0
C      1  0.5702530000000  0.3584950000000  0.5251630000000 1.0
C      1  0.4187510000000  0.4493800000000  0.5538390000000 1.0
C      1  0.4715030000000  0.5672310000000  0.4301700000000 1.0
C      1  0.5167080000000  0.5811160000000  0.4914720000000 1.0
C      1  0.5784210000000  0.4882900000000  0.5795520000000 1.0
C      1  0.5248890000000  0.4919300000000  0.4598900000000 1.0
C      1  0.4804420000000  0.4362920000000  0.4621230000000 1.0
C      1  0.4712090000000  0.5902070000000  0.5621010000000 1.0
C      1  0.5493010000000  0.4723350000000  0.5227790000000 1.0
C      1  0.4427840000000  0.4307800000000  0.5515910000000 1.0
C      1  0.4594300000000  0.4027140000000  0.5035220000000 1.0
C      1  0.4792430000000  0.5505010000000  0.4753770000000 1.0
C      1  0.5859520000000  0.5790380000000  0.4673870000000 1.0
C      1  0.4421700000000  0.5706540000000  0.5720780000000 1.0
C      1  0.6138560000000  0.3969570000000  0.4698030000000 1.0
C      1  0.4023170000000  0.4418320000000  0.5315650000000 1.0
C      1  0.4256460000000  0.4759390000000  0.4835060000000 1.0
C      1  0.3888880000000  0.4593150000000  0.4589640000000 1.0
C      1  0.5777360000000  0.4715270000000  0.5165360000000 1.0
C      1  0.5934690000000  0.4954080000000  0.5556330000000 1.0
C      1  0.4817590000000  0.5471960000000  0.4473160000000 1.0
C      1  0.4836760000000  0.5216880000000  0.6028230000000 1.0
C      1  0.5358630000000  0.4306390000000  0.4815740000000 1.0
C      1  0.4546190000000  0.5362320000000  0.4806200000000 1.0
C      1  0.3902020000000  0.4973060000000  0.4257880000000 1.0
C      1  0.5383020000000  0.4410770000000  0.4082050000000 1.0
C      1  0.4051530000000  0.5671280000000  0.4857110000000 1.0
C      1  0.5935140000000  0.5734250000000  0.4926540000000 1.0
C      1  0.5843990000000  0.4470590000000  0.5556140000000 1.0
C      1  0.4758300000000  0.6040970000000  0.5354190000000 1.0
C      1  0.4111090000000  0.5239760000000  0.5136010000000 1.0
C      1  0.4440110000000  0.5676190000000  0.4214740000000 1.0
C      1  0.6718810000000  0.4939230000000  0.4417950000000 1.0
C      1  0.4751320000000  0.4751410000000  0.4339730000000 1.0
C      1  0.5549210000000  0.4931900000000  0.4047910000000 1.0
C      1  0.4117120000000  0.5521830000000  0.5087520000000 1.0
C      1  0.4188650000000  0.5708860000000  0.5542420000000 1.0
C      1  0.5466040000000  0.4959280000000  0.4777270000000 1.0
C      1  0.5227970000000  0.4742240000000  0.6001090000000 1.0
C      1  0.5080820000000  0.5394020000000  0.3903540000000 1.0
C      1  0.4711810000000  0.4984810000000  0.5508550000000 1.0
C      1  0.4603600000000  0.6025410000000  0.4861020000000 1.0
C      1  0.5046510000000  0.4599450000000  0.5394550000000 1.0
C      1  0.5349390000000  0.3766620000000  0.3775880000000 1.0
C      1  0.5929200000000  0.4698460000000  0.5399890000000 1.0
C      1  0.4393960000000  0.4978390000000  0.6050770000000 1.0
C      1  0.5218360000000  0.5373620000000  0.5378200000000 1.0
C      1  0.6240870000000  0.5191040000000  0.5281150000000 1.0
C      1  0.5531300000000  0.5474680000000  0.4542240000000 1.0
C      1  0.5001270000000  0.5582080000000  0.4950380000000 1.0
C      1  0.5002170000000  0.5493330000000  0.5225930000000 1.0
C      1  0.6188700000000  0.3713910000000  0.4691820000000 1.0
C      1  0.4367670000000  0.6002630000000  0.4711120000000 1.0
C      1  0.5171510000000  0.5149150000000  0.4454770000000 1.0
C      1  0.4378320000000  0.5451070000000  0.5867740000000 1.0
C      1  0.6073650000000  0.4239950000000  0.4714500000000 1.0
C      1  0.6269120000000  0.4438560000000  0.4690380000000 1.0
C      1  0.6170910000000  0.4866390000000  0.4890280000000 1.0
C      1  0.5809180000000  0.4324940000000  0.4755450000000 1.0
C      1  0.4925970000000  0.4347190000000  0.5423150000000 1.0
C      1  0.4931650000000  0.5308450000000  0.5775290000000 1.0
C      1  0.3753680000000  0.5177670000000  0.4656840000000 1.0
C      1  0.5871460000000  0.5471880000000  0.5409860000000 1.0
C      1  0.4219320000000  0.5647740000000  0.4401430000000 1.0
C      1  0.5240560000000  0.4157790000000  0.4137250000000 1.0
C      1  0.3919940000000  0.4323240000000  0.4664480000000 1.0
C      1  0.4036760000000  0.4199700000000  0.4873850000000 1.0
C      1  0.5406990000000  0.5283700000000  0.5876320000000 1.0
C      1  0.4724590000000  0.3959180000000  0.4795190000000 1.0
C      1  0.5030280000000  0.5119200000000  0.3897300000000 1.0
C      1  0.3866300000000  0.4714170000000  0.4334440000000 1.0
C      1  0.4936860000000  0.4799530000000  0.5570080000000 1.0
C      1  0.3741760000000  0.5438680000000  0.5508940000000 1.0
C      1  0.4736400000000  0.4645200000000  0.4961590000000 1.0
C      1  0.4933910000000  0.6055190000000  0.4457370000000 1.0
C      1  0.4898470000000  0.5213640000000  0.4395390000000 1.0
C      1  0.5454220000000  0.5190250000000  0.4952610000000 1.0
C      1  0.4634630000000  0.4577410000000  0.4526000000000 1.0
C      1  0.4854000000000  0.4091270000000  0.4559890000000 1.0
C      1  0.3813800000000  0.5001180000000  0.4873700000000 1.0
C      1  0.3977480000000  0.4776280000000  0.4794140000000 1.0
C      1  0.5430930000000  0.5441020000000  0.3942270000000 1.0
C      1  0.5894770000000  0.4809370000000  0.4927100000000 1.0
C      1  0.4618880000000  0.4320100000000  0.5747310000000 1.0
C      1  0.5670440000000  0.3843230000000  0.5238540000000 1.0
C      1  0.3915950000000  0.5205410000000  0.4422370000000 1.0
C      1  0.4744190000000  0.5478400000000  0.5352230000000 1.0
C      1  0.4520340000000  0.5096920000000  0.4087340000000 1.0
C      1  0.5391920000000  0.4555920000000  0.6098250000000 1.0
C      1  0.4421180000000  0.4166050000000  0.5230400000000 1.0
C      1  0.4772110000000  0.4732170000000  0.6011590000000 1.0
C      1  0.4886830000000  0.4857260000000  0.5048440000000 1.0
C      1  0.4998090000000  0.4757800000000  0.5849430000000 1.0
C      1  0.5385140000000  0.5198720000000  0.5229140000000 1.0
C      1  0.4858310000000  0.6100590000000  0.4737170000000 1.0
C      1  0.5296960000000  0.3953880000000  0.3949390000000 1.0
END
