TITL C-247195-3186-32 2.0942599528027e-06 125000 -563.217866308804 0 0 92 (C1) n - 1
REM
REM in /home/nfs/bkarasulu/CARBON/AIRSS/Generating-Clusters/LCBOP/Only-C1/SD-CG/FIRE-HFTN
REM
REM
REM
REM
REM
REM ./C.cell (11c1c37f851c82e70ff6c80c92926a4b)
REM AIRSS Version 0.9.1 bugfix July 2018 build 013d7b7c2542+ Fri, 06 Jul 2018 19:26:36 +0100
REM compiler GCC version 9.2.1 20190827 (Red Hat 9.2.1-1)
REM options -cpp -mtune=generic -march=x86-64 -g -O0 -fpre-include=/usr/include/finclude/math-vector-fortran.h
REM seed -1169678453 471345414 -1641340521 -626174223 287744873 2010167911 -398735065 -540235194 1414023677 -1692381798 -2064349671 -80936760 894503461 -1950521829 1319819640 -748947998 1289210308 -293725099 780637955 -495591504 1430677006 1984016356 -1893534165 -636429053 -171461890 -1060234841 -874754323 -167952479 970163786 664515272 999742907 1973396178 -1970776423
REM
CELL 1.54180   50.00000   50.00000   50.00000   90.00000   90.00000   90.00000
LATT -1
SFAC C  
C      1  0.5519820000000  0.5479500000000  0.4254820000000 1.0
C      1  0.5216130000000  0.4378490000000  0.5889140000000 1.0
C      1  0.4194800000000  0.5483050000000  0.5318110000000 1.0
C      1  0.5172860000000  0.4902250000000  0.5313010000000 1.0
C      1  0.4763350000000  0.4594740000000  0.5667240000000 1.0
C      1  0.4607830000000  0.5790640000000  0.5511360000000 1.0
C      1  0.5201730000000  0.4555380000000  0.4156170000000 1.0
C      1  0.4159070000000  0.4630690000000  0.4775590000000 1.0
C      1  0.4901340000000  0.4242410000000  0.5285520000000 1.0
C      1  0.5313400000000  0.4138420000000  0.5029360000000 1.0
C      1  0.5998550000000  0.5043210000000  0.5195010000000 1.0
C      1  0.4698350000000  0.4223370000000  0.5087310000000 1.0
C      1  0.4328750000000  0.4831450000000  0.4345620000000 1.0
C      1  0.6087810000000  0.5161510000000  0.5414560000000 1.0
C      1  0.5055150000000  0.5117310000000  0.5445830000000 1.0
C      1  0.4230840000000  0.4937320000000  0.4108020000000 1.0
C      1  0.5420350000000  0.5292490000000  0.4083230000000 1.0
C      1  0.5885070000000  0.4902980000000  0.4980390000000 1.0
C      1  0.4270580000000  0.5093650000000  0.4742470000000 1.0
C      1  0.4190320000000  0.4861270000000  0.4594810000000 1.0
C      1  0.5782730000000  0.4706450000000  0.4398420000000 1.0
C      1  0.4685370000000  0.4875690000000  0.5664070000000 1.0
C      1  0.4396410000000  0.5486440000000  0.5882440000000 1.0
C      1  0.5346110000000  0.5238570000000  0.5010670000000 1.0
C      1  0.5128830000000  0.4083050000000  0.5218280000000 1.0
C      1  0.5223730000000  0.4436340000000  0.5610260000000 1.0
C      1  0.5123240000000  0.4565640000000  0.4893480000000 1.0
C      1  0.4547140000000  0.5603660000000  0.4740430000000 1.0
C      1  0.4585250000000  0.4297550000000  0.4836790000000 1.0
C      1  0.5202050000000  0.5363180000000  0.5447770000000 1.0
C      1  0.5401690000000  0.4871970000000  0.4627170000000 1.0
C      1  0.5184810000000  0.5260570000000  0.4779460000000 1.0
C      1  0.5466230000000  0.4501170000000  0.5480740000000 1.0
C      1  0.5651420000000  0.4588730000000  0.5306450000000 1.0
C      1  0.3978570000000  0.4668620000000  0.4992210000000 1.0
C      1  0.5347270000000  0.4381600000000  0.4894110000000 1.0
C      1  0.5193920000000  0.5057580000000  0.4587580000000 1.0
C      1  0.4749200000000  0.5439780000000  0.4853110000000 1.0
C      1  0.5785540000000  0.5167170000000  0.4510140000000 1.0
C      1  0.4683470000000  0.4246300000000  0.4562700000000 1.0
C      1  0.4940210000000  0.4627870000000  0.4688350000000 1.0
C      1  0.4591910000000  0.5206610000000  0.5307170000000 1.0
C      1  0.3998520000000  0.4815290000000  0.5217990000000 1.0
C      1  0.4511250000000  0.5031360000000  0.4889820000000 1.0
C      1  0.5595290000000  0.4509750000000  0.4832150000000 1.0
C      1  0.4540620000000  0.4403360000000  0.4368980000000 1.0
C      1  0.5697490000000  0.4968710000000  0.4285020000000 1.0
C      1  0.5732810000000  0.4657400000000  0.5042480000000 1.0
C      1  0.4929650000000  0.5937720000000  0.4907260000000 1.0
C      1  0.4444560000000  0.5694980000000  0.5720870000000 1.0
C      1  0.5115660000000  0.5752120000000  0.4794130000000 1.0
C      1  0.4828700000000  0.4776140000000  0.4465350000000 1.0
C      1  0.4425300000000  0.5226630000000  0.5941050000000 1.0
C      1  0.4306090000000  0.5226030000000  0.5362250000000 1.0
C      1  0.5596810000000  0.5591090000000  0.5203160000000 1.0
C      1  0.4497210000000  0.4414680000000  0.6046830000000 1.0
C      1  0.5015240000000  0.5483710000000  0.4777560000000 1.0
C      1  0.4135150000000  0.5001550000000  0.5354500000000 1.0
C      1  0.5471110000000  0.5836970000000  0.5107020000000 1.0
C      1  0.5454970000000  0.5012900000000  0.4131260000000 1.0
C      1  0.5031560000000  0.4954570000000  0.4370450000000 1.0
C      1  0.5399340000000  0.5784770000000  0.4823040000000 1.0
C      1  0.5407210000000  0.5381800000000  0.5249610000000 1.0
C      1  0.5576850000000  0.4652960000000  0.4590900000000 1.0
C      1  0.4949740000000  0.4441920000000  0.5494120000000 1.0
C      1  0.4574610000000  0.4686590000000  0.4358750000000 1.0
C      1  0.4884930000000  0.5763360000000  0.5556060000000 1.0
C      1  0.4520220000000  0.5836500000000  0.5238920000000 1.0
C      1  0.4776510000000  0.5078590000000  0.5481920000000 1.0
C      1  0.4653920000000  0.5231790000000  0.5026000000000 1.0
C      1  0.4155470000000  0.5351020000000  0.4777650000000 1.0
C      1  0.6030560000000  0.4770160000000  0.4535230000000 1.0
C      1  0.5090890000000  0.5594500000000  0.5557820000000 1.0
C      1  0.5121720000000  0.4737170000000  0.5113290000000 1.0
C      1  0.4986910000000  0.4385820000000  0.6034480000000 1.0
C      1  0.5942980000000  0.4994240000000  0.4709730000000 1.0
C      1  0.5769700000000  0.5535590000000  0.4972700000000 1.0
C      1  0.5662160000000  0.5432550000000  0.4498140000000 1.0
C      1  0.4947730000000  0.4197520000000  0.4456700000000 1.0
C      1  0.4419420000000  0.4531830000000  0.4860450000000 1.0
C      1  0.6156730000000  0.5294420000000  0.5633260000000 1.0
C      1  0.4709930000000  0.5959020000000  0.5063790000000 1.0
C      1  0.6220000000000  0.5428810000000  0.5847490000000 1.0
C      1  0.4140390000000  0.5040760000000  0.3886590000000 1.0
C      1  0.4522830000000  0.4986800000000  0.5869250000000 1.0
C      1  0.5626920000000  0.5603590000000  0.4723080000000 1.0
C      1  0.5217900000000  0.4842810000000  0.4169240000000 1.0
C      1  0.4297200000000  0.5676500000000  0.5137410000000 1.0
C      1  0.4291180000000  0.5589910000000  0.4860300000000 1.0
C      1  0.5112590000000  0.4330150000000  0.4282070000000 1.0
C      1  0.4736500000000  0.4466270000000  0.5927310000000 1.0
C      1  0.4557740000000  0.4762590000000  0.4957280000000 1.0
END
