TITL C-247200-3482-1 -219318.601426518 125000 -914.249080454493 0 0 151 (C1) n - 1
REM
REM in /home/nfs/bkarasulu/CARBON/AIRSS/Generating-Clusters/LCBOP/Only-C1/SD-CG/FIRE-HFTN
REM
REM
REM
REM
REM
REM ./C.cell (11c1c37f851c82e70ff6c80c92926a4b)
REM AIRSS Version 0.9.1 bugfix July 2018 build 013d7b7c2542+ Fri, 06 Jul 2018 19:26:36 +0100
REM compiler GCC version 9.2.1 20190827 (Red Hat 9.2.1-1)
REM options -cpp -mtune=generic -march=x86-64 -g -O0 -fpre-include=/usr/include/finclude/math-vector-fortran.h
REM seed 1452652620 -170389535 -1584306407 420587231 -1899361763 -127524161 1586123705 363475126 1959481100 -1832558305 -718144065 -993498548 1812531504 -434629741 -2134415733 1491935789 354121475 -974751839 435481598 1557013162 -1031650693 -1291455271 1497011489 885083730 -1712644026 877914545 -1605988330 -1037987493 -464461068 1353041134 607711933 -1694499576 1799917791
REM
CELL 1.54180   50.00000   50.00000   50.00000   90.00000   90.00000   90.00000
LATT -1
SFAC C  
C      1  0.4783010000000  0.5251510000000  0.6154970000000 1.0
C      1  0.3784690000000  0.4989980000000  0.4934810000000 1.0
C      1  0.5195010000000  0.4410910000000  0.3696390000000 1.0
C      1  0.5998380000000  0.4894800000000  0.4801200000000 1.0
C      1  0.4940850000000  0.4645690000000  0.4034640000000 1.0
C      1  0.5144940000000  0.4371320000000  0.6040780000000 1.0
C      1  0.5090850000000  0.5588370000000  0.3691240000000 1.0
C      1  0.6136030000000  0.5147170000000  0.5270350000000 1.0
C      1  0.5080030000000  0.5140510000000  0.3955090000000 1.0
C      1  0.5777510000000  0.4513900000000  0.5096470000000 1.0
C      1  0.4536840000000  0.5269230000000  0.6263510000000 1.0
C      1  0.5547450000000  0.4647190000000  0.4224110000000 1.0
C      1  0.4905080000000  0.4500570000000  0.5643750000000 1.0
C      1  0.4239750000000  0.5115830000000  0.5091940000000 1.0
C      1  0.5587210000000  0.5233570000000  0.5177540000000 1.0
C      1  0.4727820000000  0.4956250000000  0.4890070000000 1.0
C      1  0.5083280000000  0.4749660000000  0.5685460000000 1.0
C      1  0.4507930000000  0.4221060000000  0.5652560000000 1.0
C      1  0.4164450000000  0.4620550000000  0.5137510000000 1.0
C      1  0.3930770000000  0.5727280000000  0.4909280000000 1.0
C      1  0.4807080000000  0.5962230000000  0.4611400000000 1.0
C      1  0.5406360000000  0.5214150000000  0.4955730000000 1.0
C      1  0.5325760000000  0.5135780000000  0.4372140000000 1.0
C      1  0.5127920000000  0.4976110000000  0.4508710000000 1.0
C      1  0.4887900000000  0.4025950000000  0.4460030000000 1.0
C      1  0.4633550000000  0.5891300000000  0.5599630000000 1.0
C      1  0.4844350000000  0.5935140000000  0.4908990000000 1.0
C      1  0.5564370000000  0.4894400000000  0.4065760000000 1.0
C      1  0.5101360000000  0.6085120000000  0.5566750000000 1.0
C      1  0.5597450000000  0.6006230000000  0.5055300000000 1.0
C      1  0.4866160000000  0.5440830000000  0.4934910000000 1.0
C      1  0.5470340000000  0.5696560000000  0.4703810000000 1.0
C      1  0.5559640000000  0.4131650000000  0.5924930000000 1.0
C      1  0.6308600000000  0.5525410000000  0.4979890000000 1.0
C      1  0.5081330000000  0.4055380000000  0.5606180000000 1.0
C      1  0.4884610000000  0.5136740000000  0.5915470000000 1.0
C      1  0.5538740000000  0.5286130000000  0.4480670000000 1.0
C      1  0.4292280000000  0.5194260000000  0.4150230000000 1.0
C      1  0.4851000000000  0.5040070000000  0.4440400000000 1.0
C      1  0.6305470000000  0.5358570000000  0.5189290000000 1.0
C      1  0.4098970000000  0.4785530000000  0.4486190000000 1.0
C      1  0.5587630000000  0.4885820000000  0.5575500000000 1.0
C      1  0.4898690000000  0.4486030000000  0.5339550000000 1.0
C      1  0.5041050000000  0.4054510000000  0.5141790000000 1.0
C      1  0.4048280000000  0.5098160000000  0.4868210000000 1.0
C      1  0.5012480000000  0.5485920000000  0.3941400000000 1.0
C      1  0.4718360000000  0.4919340000000  0.5413270000000 1.0
C      1  0.5568400000000  0.4433490000000  0.4922990000000 1.0
C      1  0.4505300000000  0.4307100000000  0.5182070000000 1.0
C      1  0.4878980000000  0.4911960000000  0.3927610000000 1.0
C      1  0.5345130000000  0.5929830000000  0.5595240000000 1.0
C      1  0.5900280000000  0.4829190000000  0.4541200000000 1.0
C      1  0.4152440000000  0.5674810000000  0.4771980000000 1.0
C      1  0.3442070000000  0.4973940000000  0.5277250000000 1.0
C      1  0.5163070000000  0.5093800000000  0.5038200000000 1.0
C      1  0.3605350000000  0.5117890000000  0.5112180000000 1.0
C      1  0.4824630000000  0.5877570000000  0.4339470000000 1.0
C      1  0.4360890000000  0.4925140000000  0.5738250000000 1.0
C      1  0.5829360000000  0.5001400000000  0.4080460000000 1.0
C      1  0.5030150000000  0.5540040000000  0.4515980000000 1.0
C      1  0.4902290000000  0.5697860000000  0.4131000000000 1.0
C      1  0.4247300000000  0.4318450000000  0.4749290000000 1.0
C      1  0.6071620000000  0.5523890000000  0.5896510000000 1.0
C      1  0.5841920000000  0.3928940000000  0.4347210000000 1.0
C      1  0.4108100000000  0.5236020000000  0.4360170000000 1.0
C      1  0.3818510000000  0.4134300000000  0.4594590000000 1.0
C      1  0.4762420000000  0.5225300000000  0.4239310000000 1.0
C      1  0.5113120000000  0.6341280000000  0.5672050000000 1.0
C      1  0.4455370000000  0.4683420000000  0.5864250000000 1.0
C      1  0.4400870000000  0.5429840000000  0.5696510000000 1.0
C      1  0.4845530000000  0.5290630000000  0.5654390000000 1.0
C      1  0.4638020000000  0.5054230000000  0.4640350000000 1.0
C      1  0.4643380000000  0.4101160000000  0.4536970000000 1.0
C      1  0.6292200000000  0.5412610000000  0.6011520000000 1.0
C      1  0.4901240000000  0.5165960000000  0.4994500000000 1.0
C      1  0.5483000000000  0.5030400000000  0.5359510000000 1.0
C      1  0.4358380000000  0.4920000000000  0.4077730000000 1.0
C      1  0.5481830000000  0.4607540000000  0.4707230000000 1.0
C      1  0.5660700000000  0.5508210000000  0.4608190000000 1.0
C      1  0.5332900000000  0.5073450000000  0.4088670000000 1.0
C      1  0.5582850000000  0.4107110000000  0.5643490000000 1.0
C      1  0.4992860000000  0.4287080000000  0.5002630000000 1.0
C      1  0.5684760000000  0.5475390000000  0.5273400000000 1.0
C      1  0.4305550000000  0.5195730000000  0.5845980000000 1.0
C      1  0.4332310000000  0.5505730000000  0.4673740000000 1.0
C      1  0.4588070000000  0.4914900000000  0.3899960000000 1.0
C      1  0.4493140000000  0.4517000000000  0.4344850000000 1.0
C      1  0.4586160000000  0.5335710000000  0.5489190000000 1.0
C      1  0.5595770000000  0.5799440000000  0.5659710000000 1.0
C      1  0.5612930000000  0.4042230000000  0.4295790000000 1.0
C      1  0.5956580000000  0.5427310000000  0.5654040000000 1.0
C      1  0.5387500000000  0.4722850000000  0.5694100000000 1.0
C      1  0.5243630000000  0.5699470000000  0.4539870000000 1.0
C      1  0.5371900000000  0.4181300000000  0.4270660000000 1.0
C      1  0.4457210000000  0.5712960000000  0.5710000000000 1.0
C      1  0.6012300000000  0.5166070000000  0.5533420000000 1.0
C      1  0.4998890000000  0.4868540000000  0.5947210000000 1.0
C      1  0.5168240000000  0.4497590000000  0.3954510000000 1.0
C      1  0.4794350000000  0.6074770000000  0.5159920000000 1.0
C      1  0.3723780000000  0.5624110000000  0.5041230000000 1.0
C      1  0.4436380000000  0.5298210000000  0.5230350000000 1.0
C      1  0.4972550000000  0.5691200000000  0.5002600000000 1.0
C      1  0.5871010000000  0.4406310000000  0.5324210000000 1.0
C      1  0.5369170000000  0.4438860000000  0.4147950000000 1.0
C      1  0.4613410000000  0.4472550000000  0.5752480000000 1.0
C      1  0.5039100000000  0.4274680000000  0.5787270000000 1.0
C      1  0.3980560000000  0.4346000000000  0.4649240000000 1.0
C      1  0.6162500000000  0.5585210000000  0.4764800000000 1.0
C      1  0.4843120000000  0.6014750000000  0.5442760000000 1.0
C      1  0.4742290000000  0.4679460000000  0.4944800000000 1.0
C      1  0.4802160000000  0.5470460000000  0.4658840000000 1.0
C      1  0.6056840000000  0.4975170000000  0.5053570000000 1.0
C      1  0.4278160000000  0.4379140000000  0.5030110000000 1.0
C      1  0.5325250000000  0.4035680000000  0.5198350000000 1.0
C      1  0.4534400000000  0.5340860000000  0.4145570000000 1.0
C      1  0.4455960000000  0.4311750000000  0.4548130000000 1.0
C      1  0.5071680000000  0.5435320000000  0.5560780000000 1.0
C      1  0.5722010000000  0.5872810000000  0.5904320000000 1.0
C      1  0.5667620000000  0.4660300000000  0.4493400000000 1.0
C      1  0.4874600000000  0.4017830000000  0.5385000000000 1.0
C      1  0.5475180000000  0.4174380000000  0.5000220000000 1.0
C      1  0.5210850000000  0.4976940000000  0.5287630000000 1.0
C      1  0.5053190000000  0.4639840000000  0.6125880000000 1.0
C      1  0.4256670000000  0.4867040000000  0.5243360000000 1.0
C      1  0.4093860000000  0.5059840000000  0.4581340000000 1.0
C      1  0.5393940000000  0.4252500000000  0.6101260000000 1.0
C      1  0.5936990000000  0.5746300000000  0.6008900000000 1.0
C      1  0.5855580000000  0.4949460000000  0.5633180000000 1.0
C      1  0.5745550000000  0.5584120000000  0.5524560000000 1.0
C      1  0.4679410000000  0.4538350000000  0.5188100000000 1.0
C      1  0.5214530000000  0.5562690000000  0.5375420000000 1.0
C      1  0.4306380000000  0.5228600000000  0.6127540000000 1.0
C      1  0.5353330000000  0.4031850000000  0.5489570000000 1.0
C      1  0.5798660000000  0.4232980000000  0.5514510000000 1.0
C      1  0.4916670000000  0.4483890000000  0.4826680000000 1.0
C      1  0.3906240000000  0.4616170000000  0.4612780000000 1.0
C      1  0.5933890000000  0.5553610000000  0.4632540000000 1.0
C      1  0.5982740000000  0.4967790000000  0.4304640000000 1.0
C      1  0.4299290000000  0.4721430000000  0.4286980000000 1.0
C      1  0.4741430000000  0.4531840000000  0.4204230000000 1.0
C      1  0.5223900000000  0.5695590000000  0.5127920000000 1.0
C      1  0.5441670000000  0.5798140000000  0.4969980000000 1.0
C      1  0.4998920000000  0.4907380000000  0.5451490000000 1.0
C      1  0.5134380000000  0.4066440000000  0.4367400000000 1.0
C      1  0.4437350000000  0.4893800000000  0.5461620000000 1.0
C      1  0.3728000000000  0.4751150000000  0.4789410000000 1.0
C      1  0.5197190000000  0.5683970000000  0.3473310000000 1.0
C      1  0.3604380000000  0.5398330000000  0.5116190000000 1.0
C      1  0.4594170000000  0.4122440000000  0.5394270000000 1.0
C      1  0.5241320000000  0.4761460000000  0.4665200000000 1.0
C      1  0.4550440000000  0.5337530000000  0.4635010000000 1.0
END
