TITL C-247197-3123-443 -4.61199597042143e-07 125000 -142.230153805266 0 0 25 (C1) n - 1
REM
REM in /home/nfs/bkarasulu/CARBON/AIRSS/Generating-Clusters/LCBOP/Only-C1/SD-CG/FIRE-HFTN
REM
REM
REM
REM
REM
REM ./C.cell (11c1c37f851c82e70ff6c80c92926a4b)
REM AIRSS Version 0.9.1 bugfix July 2018 build 013d7b7c2542+ Fri, 06 Jul 2018 19:26:36 +0100
REM compiler GCC version 9.2.1 20190827 (Red Hat 9.2.1-1)
REM options -cpp -mtune=generic -march=x86-64 -g -O0 -fpre-include=/usr/include/finclude/math-vector-fortran.h
REM seed 1703431273 -807296830 1411401250 -930423267 -1437771604 -536489745 9797237 519283981 2053385872 1107436373 2069556663 -1955747246 196271907 -1256306809 -1285849669 1554318865 -897587755 -1277559448 1387943133 -450681214 -1199196654 -1403534794 1219687104 -912815411 62787080 -264784085 -555625927 2022408725 -340938831 527214162 -1142615266 1688739375 -1573160541
REM
CELL 1.54180   50.00000   50.00000   50.00000   90.00000   90.00000   90.00000
LATT -1
SFAC C  
C      1  0.5001000000000  0.5316590000000  0.4738800000000 1.0
C      1  0.5299050000000  0.5136710000000  0.5509890000000 1.0
C      1  0.4867970000000  0.5192350000000  0.5290530000000 1.0
C      1  0.5423240000000  0.5113720000000  0.4902430000000 1.0
C      1  0.4888870000000  0.4992740000000  0.5095880000000 1.0
C      1  0.4716080000000  0.4791000000000  0.5007330000000 1.0
C      1  0.5002110000000  0.5531460000000  0.4937960000000 1.0
C      1  0.4740010000000  0.5580690000000  0.5050860000000 1.0
C      1  0.5413260000000  0.4893790000000  0.5474070000000 1.0
C      1  0.5483950000000  0.4767510000000  0.5230450000000 1.0
C      1  0.5128930000000  0.5303150000000  0.5360150000000 1.0
C      1  0.5326920000000  0.4562050000000  0.5110950000000 1.0
C      1  0.5146980000000  0.4786030000000  0.4713420000000 1.0
C      1  0.5135190000000  0.5066270000000  0.4838990000000 1.0
C      1  0.4505410000000  0.4870240000000  0.4830080000000 1.0
C      1  0.4569590000000  0.5076780000000  0.4646160000000 1.0
C      1  0.4730870000000  0.4295850000000  0.5034280000000 1.0
C      1  0.5194660000000  0.5501700000000  0.5158200000000 1.0
C      1  0.4257440000000  0.4756900000000  0.4839870000000 1.0
C      1  0.5590150000000  0.4952510000000  0.5042000000000 1.0
C      1  0.5178640000000  0.4742670000000  0.4446630000000 1.0
C      1  0.4762640000000  0.5258720000000  0.4594660000000 1.0
C      1  0.4846790000000  0.4537110000000  0.4988440000000 1.0
C      1  0.5120730000000  0.4577470000000  0.4914630000000 1.0
C      1  0.4669520000000  0.5395980000000  0.5243340000000 1.0
END
