TITL C-247196-3112-526 0.189380729174577 125000 -169.386239101558 0 0 30 (C1) n - 1
REM
REM in /home/nfs/bkarasulu/CARBON/AIRSS/Generating-Clusters/LCBOP/Only-C1/SD-CG/FIRE-HFTN
REM
REM
REM
REM
REM
REM ./C.cell (11c1c37f851c82e70ff6c80c92926a4b)
REM AIRSS Version 0.9.1 bugfix July 2018 build 013d7b7c2542+ Fri, 06 Jul 2018 19:26:36 +0100
REM compiler GCC version 9.2.1 20190827 (Red Hat 9.2.1-1)
REM options -cpp -mtune=generic -march=x86-64 -g -O0 -fpre-include=/usr/include/finclude/math-vector-fortran.h
REM seed 892720380 -1868418332 863685358 488809901 -1967689947 -799921606 531976088 -1349863111 487529899 -496012637 1356233602 -141512531 -609703528 1241681390 585679236 -1046238310 2082004013 -1973514165 -25728935 -2025035650 -88508317 -16237578 -1984004960 983187817 1493736536 675605258 1229550173 -860657141 1894474191 1464982105 -650431616 1155273461 -144709447
REM
CELL 1.54180   50.00000   50.00000   50.00000   90.00000   90.00000   90.00000
LATT -1
SFAC C  
C      1  0.4868690000000  0.5205620000000  0.4352970000000 1.0
C      1  0.4795270000000  0.5323360000000  0.5066180000000 1.0
C      1  0.4558690000000  0.4365640000000  0.5760070000000 1.0
C      1  0.4445070000000  0.4512380000000  0.5275790000000 1.0
C      1  0.4941250000000  0.5246360000000  0.4101380000000 1.0
C      1  0.5404980000000  0.4981010000000  0.5238210000000 1.0
C      1  0.5086370000000  0.5327830000000  0.3598310000000 1.0
C      1  0.5296190000000  0.5173070000000  0.5831520000000 1.0
C      1  0.5463860000000  0.5558040000000  0.5596120000000 1.0
C      1  0.4492360000000  0.4688580000000  0.5083170000000 1.0
C      1  0.5340750000000  0.5313890000000  0.5593880000000 1.0
C      1  0.5361180000000  0.5551290000000  0.3276330000000 1.0
C      1  0.5155400000000  0.4238600000000  0.5422740000000 1.0
C      1  0.4588790000000  0.4896930000000  0.4950650000000 1.0
C      1  0.5622610000000  0.5029690000000  0.5079860000000 1.0
C      1  0.5256620000000  0.5196870000000  0.5348720000000 1.0
C      1  0.5039040000000  0.5232090000000  0.3131710000000 1.0
C      1  0.4714690000000  0.4431480000000  0.5964700000000 1.0
C      1  0.4899590000000  0.4580950000000  0.6083030000000 1.0
C      1  0.4464610000000  0.4396210000000  0.5513640000000 1.0
C      1  0.5026410000000  0.5286900000000  0.5219080000000 1.0
C      1  0.5163030000000  0.5370870000000  0.3332560000000 1.0
C      1  0.5013820000000  0.5287100000000  0.3849800000000 1.0
C      1  0.4725680000000  0.5127460000000  0.4871980000000 1.0
C      1  0.5074370000000  0.4780520000000  0.6093760000000 1.0
C      1  0.4637030000000  0.5543530000000  0.5102660000000 1.0
C      1  0.5323690000000  0.4719330000000  0.5293620000000 1.0
C      1  0.5210150000000  0.4989430000000  0.6002400000000 1.0
C      1  0.4796540000000  0.5165470000000  0.4604640000000 1.0
C      1  0.5233250000000  0.4479490000000  0.5360550000000 1.0
END
