TITL C-247199-3331-549 -26606.6874459587 125000 -658.100698122824 0 0 113 (C1) n - 1
REM
REM in /home/nfs/bkarasulu/CARBON/AIRSS/Generating-Clusters/LCBOP/Only-C1/SD-CG/FIRE-HFTN
REM
REM
REM
REM
REM
REM ./C.cell (11c1c37f851c82e70ff6c80c92926a4b)
REM AIRSS Version 0.9.1 bugfix July 2018 build 013d7b7c2542+ Fri, 06 Jul 2018 19:26:36 +0100
REM compiler GCC version 9.2.1 20190827 (Red Hat 9.2.1-1)
REM options -cpp -mtune=generic -march=x86-64 -g -O0 -fpre-include=/usr/include/finclude/math-vector-fortran.h
REM seed -1619177329 -2073251166 728350288 2080475403 -7968693 1320949251 -279916138 -596277619 2139970190 1806804359 1801984198 1272749259 -1091435640 -1441427869 1822175275 -1179475146 100369151 1566894962 -1928659838 1641961312 -83353679 -485808738 430090666 -1370419930 -1346117872 1250902927 -1819407454 1369065787 -1281627358 1244873220 -1138864527 1042924390 1103769924
REM
CELL 1.54180   50.00000   50.00000   50.00000   90.00000   90.00000   90.00000
LATT -1
SFAC C  
C      1  0.4894870000000  0.5221550000000  0.5528430000000 1.0
C      1  0.3613210000000  0.5460600000000  0.5299310000000 1.0
C      1  0.4329540000000  0.4448680000000  0.4380810000000 1.0
C      1  0.5436080000000  0.4549560000000  0.4940540000000 1.0
C      1  0.4363540000000  0.4401910000000  0.5367330000000 1.0
C      1  0.4837720000000  0.4645360000000  0.4114010000000 1.0
C      1  0.4627220000000  0.4809970000000  0.5263910000000 1.0
C      1  0.4352220000000  0.4821690000000  0.4061480000000 1.0
C      1  0.4821900000000  0.4151710000000  0.5349310000000 1.0
C      1  0.5426080000000  0.4101720000000  0.4552250000000 1.0
C      1  0.4852510000000  0.5971330000000  0.5559440000000 1.0
C      1  0.5351930000000  0.5461170000000  0.5167540000000 1.0
C      1  0.5341720000000  0.3956340000000  0.4769490000000 1.0
C      1  0.5864360000000  0.4653850000000  0.5062410000000 1.0
C      1  0.5032560000000  0.4784000000000  0.3937050000000 1.0
C      1  0.5958670000000  0.5387380000000  0.5120630000000 1.0
C      1  0.5893330000000  0.4585300000000  0.4774250000000 1.0
C      1  0.5694740000000  0.5090520000000  0.4183130000000 1.0
C      1  0.5971820000000  0.5621660000000  0.4958150000000 1.0
C      1  0.4143510000000  0.5374740000000  0.5257030000000 1.0
C      1  0.4342200000000  0.4850230000000  0.5224280000000 1.0
C      1  0.4359840000000  0.5778030000000  0.5621380000000 1.0
C      1  0.5786750000000  0.5300810000000  0.4655450000000 1.0
C      1  0.4788270000000  0.4520480000000  0.4553970000000 1.0
C      1  0.5313010000000  0.4996930000000  0.5356600000000 1.0
C      1  0.4989770000000  0.5904390000000  0.4222620000000 1.0
C      1  0.5122880000000  0.4525390000000  0.5265800000000 1.0
C      1  0.4143600000000  0.4548380000000  0.4603930000000 1.0
C      1  0.4496390000000  0.4601040000000  0.4163790000000 1.0
C      1  0.4979160000000  0.4762260000000  0.5632960000000 1.0
C      1  0.5469940000000  0.6094610000000  0.5413940000000 1.0
C      1  0.4623060000000  0.4664700000000  0.4769460000000 1.0
C      1  0.5353370000000  0.5849370000000  0.5427260000000 1.0
C      1  0.5332390000000  0.5814270000000  0.4507460000000 1.0
C      1  0.5864550000000  0.5165230000000  0.4931700000000 1.0
C      1  0.3361470000000  0.5481910000000  0.5234800000000 1.0
C      1  0.4694790000000  0.5497260000000  0.4329980000000 1.0
C      1  0.5307480000000  0.3942310000000  0.5041100000000 1.0
C      1  0.5645500000000  0.4517310000000  0.5330790000000 1.0
C      1  0.5194890000000  0.4573820000000  0.4798510000000 1.0
C      1  0.4476920000000  0.4906340000000  0.4643360000000 1.0
C      1  0.5452260000000  0.5412210000000  0.5633410000000 1.0
C      1  0.4481140000000  0.4539560000000  0.5605640000000 1.0
C      1  0.5477380000000  0.4379320000000  0.4474860000000 1.0
C      1  0.5602190000000  0.4222470000000  0.5338250000000 1.0
C      1  0.4747020000000  0.5842340000000  0.5328280000000 1.0
C      1  0.5649720000000  0.4846440000000  0.3759000000000 1.0
C      1  0.5179960000000  0.5549310000000  0.4498650000000 1.0
C      1  0.4225490000000  0.5104470000000  0.5240360000000 1.0
C      1  0.5412700000000  0.5273620000000  0.5374270000000 1.0
C      1  0.4553070000000  0.4186500000000  0.5319870000000 1.0
C      1  0.5088730000000  0.4253200000000  0.5343010000000 1.0
C      1  0.5005700000000  0.4606880000000  0.5013520000000 1.0
C      1  0.5227980000000  0.5717340000000  0.5210280000000 1.0
C      1  0.5578940000000  0.5305730000000  0.5858540000000 1.0
C      1  0.5624510000000  0.5256020000000  0.4409810000000 1.0
C      1  0.4781380000000  0.4795140000000  0.5002000000000 1.0
C      1  0.5494100000000  0.4755170000000  0.5745260000000 1.0
C      1  0.4912830000000  0.5881620000000  0.5823390000000 1.0
C      1  0.4912160000000  0.4069430000000  0.4346530000000 1.0
C      1  0.4711080000000  0.4699020000000  0.5529320000000 1.0
C      1  0.5237920000000  0.4545410000000  0.4511760000000 1.0
C      1  0.5326470000000  0.4098300000000  0.5290080000000 1.0
C      1  0.4744520000000  0.5314650000000  0.5070700000000 1.0
C      1  0.4484790000000  0.5388630000000  0.4481920000000 1.0
C      1  0.5734680000000  0.4149180000000  0.5089150000000 1.0
C      1  0.5525180000000  0.4918620000000  0.4690090000000 1.0
C      1  0.4868610000000  0.5551540000000  0.4950910000000 1.0
C      1  0.4461290000000  0.4207440000000  0.4486050000000 1.0
C      1  0.5057150000000  0.5456090000000  0.4753370000000 1.0
C      1  0.4307860000000  0.5598250000000  0.5175870000000 1.0
C      1  0.4314570000000  0.4525690000000  0.6119940000000 1.0
C      1  0.3875350000000  0.5426890000000  0.5319880000000 1.0
C      1  0.5861890000000  0.4929810000000  0.5119320000000 1.0
C      1  0.5397490000000  0.4655560000000  0.5236790000000 1.0
C      1  0.4947200000000  0.5744860000000  0.5141880000000 1.0
C      1  0.5227500000000  0.4675860000000  0.5766990000000 1.0
C      1  0.4742740000000  0.4248780000000  0.4458460000000 1.0
C      1  0.4411820000000  0.5114970000000  0.4458960000000 1.0
C      1  0.4261400000000  0.4545210000000  0.6374420000000 1.0
C      1  0.4934970000000  0.5635520000000  0.4313420000000 1.0
C      1  0.5089210000000  0.5174770000000  0.4814150000000 1.0
C      1  0.5002480000000  0.4962150000000  0.4413910000000 1.0
C      1  0.4420170000000  0.4183780000000  0.4768280000000 1.0
C      1  0.4719110000000  0.5313270000000  0.5349770000000 1.0
C      1  0.5856180000000  0.5011830000000  0.5407880000000 1.0
C      1  0.4683920000000  0.5836580000000  0.5981560000000 1.0
C      1  0.4105750000000  0.4565460000000  0.4885560000000 1.0
C      1  0.5351080000000  0.5682730000000  0.5661180000000 1.0
C      1  0.4506480000000  0.4406880000000  0.4901930000000 1.0
C      1  0.5882400000000  0.5576430000000  0.4700910000000 1.0
C      1  0.5165650000000  0.5762950000000  0.5858550000000 1.0
C      1  0.5249950000000  0.4967880000000  0.4018390000000 1.0
C      1  0.4218120000000  0.4588140000000  0.5164670000000 1.0
C      1  0.5331850000000  0.5048520000000  0.4803090000000 1.0
C      1  0.5217300000000  0.6004670000000  0.4341950000000 1.0
C      1  0.5956250000000  0.5285150000000  0.5388590000000 1.0
C      1  0.5743820000000  0.4497040000000  0.4551430000000 1.0
C      1  0.5535370000000  0.4963350000000  0.3977660000000 1.0
C      1  0.4468020000000  0.5749950000000  0.5359110000000 1.0
C      1  0.4858510000000  0.5077810000000  0.4948510000000 1.0
C      1  0.4984110000000  0.4664790000000  0.4390220000000 1.0
C      1  0.5691150000000  0.5263740000000  0.6090190000000 1.0
C      1  0.4300350000000  0.5039250000000  0.4210570000000 1.0
C      1  0.5339340000000  0.5324370000000  0.4376600000000 1.0
C      1  0.5594430000000  0.4306560000000  0.4911090000000 1.0
C      1  0.4381420000000  0.4518620000000  0.5863670000000 1.0
C      1  0.5179010000000  0.5115530000000  0.4256310000000 1.0
C      1  0.4349940000000  0.5557440000000  0.4658570000000 1.0
C      1  0.5710530000000  0.4875600000000  0.5619480000000 1.0
C      1  0.4437210000000  0.5795860000000  0.5878490000000 1.0
C      1  0.5067980000000  0.5003640000000  0.5506030000000 1.0
C      1  0.4307380000000  0.5654090000000  0.4901830000000 1.0
END
