TITL C-247196-3112-157 0.0549222457045863 125000 -298.757861069233 0 0 51 (C1) n - 1
REM
REM in /home/nfs/bkarasulu/CARBON/AIRSS/Generating-Clusters/LCBOP/Only-C1/SD-CG/FIRE-HFTN
REM
REM
REM
REM
REM
REM ./C.cell (11c1c37f851c82e70ff6c80c92926a4b)
REM AIRSS Version 0.9.1 bugfix July 2018 build 013d7b7c2542+ Fri, 06 Jul 2018 19:26:36 +0100
REM compiler GCC version 9.2.1 20190827 (Red Hat 9.2.1-1)
REM options -cpp -mtune=generic -march=x86-64 -g -O0 -fpre-include=/usr/include/finclude/math-vector-fortran.h
REM seed 1339254018 1837620018 594981197 -605262096 218904503 -1856184499 -67559947 -306048035 1596517451 -1108316618 -655484457 -1871999591 1544414620 -1869063711 742817804 -1667585596 1830052705 1076862688 -1182728853 2044578847 1301687719 2096346241 962813949 42091988 -58836868 1329056628 -1547572665 -2079975460 -1525474683 1654148585 -549690078 908108581 1497957537
REM
CELL 1.54180   50.00000   50.00000   50.00000   90.00000   90.00000   90.00000
LATT -1
SFAC C  
C      1  0.4893360000000  0.5064600000000  0.5139570000000 1.0
C      1  0.5086450000000  0.5268900000000  0.4997850000000 1.0
C      1  0.4953660000000  0.4933900000000  0.4306940000000 1.0
C      1  0.4556530000000  0.5245400000000  0.4392840000000 1.0
C      1  0.5842940000000  0.3664390000000  0.5949870000000 1.0
C      1  0.5065130000000  0.5486950000000  0.4809100000000 1.0
C      1  0.5273470000000  0.4619760000000  0.4558030000000 1.0
C      1  0.5412350000000  0.5567430000000  0.4476340000000 1.0
C      1  0.4308750000000  0.4802880000000  0.5238400000000 1.0
C      1  0.5093910000000  0.4130490000000  0.4410520000000 1.0
C      1  0.4561470000000  0.4813390000000  0.4563370000000 1.0
C      1  0.4978330000000  0.5831750000000  0.5179980000000 1.0
C      1  0.4955870000000  0.4664190000000  0.5429980000000 1.0
C      1  0.5786680000000  0.3826310000000  0.5753450000000 1.0
C      1  0.5386140000000  0.5058690000000  0.4544950000000 1.0
C      1  0.4650710000000  0.5481970000000  0.5735340000000 1.0
C      1  0.4715740000000  0.5852290000000  0.5281500000000 1.0
C      1  0.5200780000000  0.4870740000000  0.4424920000000 1.0
C      1  0.4700000000000  0.4597270000000  0.5484400000000 1.0
C      1  0.5236000000000  0.5104470000000  0.5436230000000 1.0
C      1  0.5450850000000  0.4676470000000  0.4782050000000 1.0
C      1  0.5672270000000  0.4155560000000  0.5354120000000 1.0
C      1  0.4416590000000  0.4923130000000  0.5008840000000 1.0
C      1  0.5542090000000  0.5123810000000  0.5021940000000 1.0
C      1  0.5020710000000  0.5242980000000  0.5580480000000 1.0
C      1  0.4982690000000  0.5734060000000  0.4916970000000 1.0
C      1  0.5189850000000  0.4367910000000  0.4478360000000 1.0
C      1  0.4748920000000  0.4728640000000  0.4767140000000 1.0
C      1  0.4789830000000  0.5240020000000  0.5373870000000 1.0
C      1  0.4381140000000  0.5583590000000  0.5036370000000 1.0
C      1  0.5151210000000  0.5514950000000  0.4538410000000 1.0
C      1  0.5217640000000  0.5768480000000  0.5318840000000 1.0
C      1  0.4339000000000  0.5459190000000  0.4802360000000 1.0
C      1  0.4586970000000  0.5432400000000  0.5455490000000 1.0
C      1  0.5506190000000  0.4963380000000  0.4792310000000 1.0
C      1  0.4377010000000  0.5245640000000  0.4622780000000 1.0
C      1  0.4680320000000  0.4982530000000  0.4362580000000 1.0
C      1  0.5344270000000  0.5272290000000  0.5195410000000 1.0
C      1  0.4525900000000  0.5639170000000  0.5272340000000 1.0
C      1  0.5729480000000  0.3990950000000  0.5553750000000 1.0
C      1  0.4444570000000  0.4659700000000  0.5424310000000 1.0
C      1  0.4948790000000  0.5546010000000  0.4346180000000 1.0
C      1  0.4997030000000  0.3897560000000  0.4344810000000 1.0
C      1  0.4902250000000  0.5384820000000  0.5801010000000 1.0
C      1  0.4358140000000  0.4972550000000  0.4726820000000 1.0
C      1  0.5385040000000  0.5556140000000  0.5285050000000 1.0
C      1  0.4698590000000  0.5465550000000  0.4297600000000 1.0
C      1  0.5613790000000  0.4320810000000  0.5155400000000 1.0
C      1  0.5084100000000  0.4884470000000  0.5309730000000 1.0
C      1  0.4709730000000  0.4891500000000  0.4998180000000 1.0
C      1  0.5546790000000  0.4489960000000  0.4962940000000 1.0
END
