TITL C-247198-3593-667 0.000339268238086627 125000 -1004.11603588687 0 0 166 (C1) n - 1
REM
REM in /home/nfs/bkarasulu/CARBON/AIRSS/Generating-Clusters/LCBOP/Only-C1/SD-CG/FIRE-HFTN
REM
REM
REM
REM
REM
REM ./C.cell (11c1c37f851c82e70ff6c80c92926a4b)
REM AIRSS Version 0.9.1 bugfix July 2018 build 013d7b7c2542+ Fri, 06 Jul 2018 19:26:36 +0100
REM compiler GCC version 9.2.1 20190827 (Red Hat 9.2.1-1)
REM options -cpp -mtune=generic -march=x86-64 -g -O0 -fpre-include=/usr/include/finclude/math-vector-fortran.h
REM seed 1953581767 1753879825 -166023650 871163425 1515261721 879548546 1768221724 468444083 -1444450044 -678079561 -946104176 -198391943 296083637 1039524465 97094506 -1741652839 -735939412 -118428301 -634644420 -480455076 -1297041637 713517777 1678776097 -1498017398 1477522755 -2043463614 -1746141608 345506689 -37123774 -2106228395 -158932707 -1971652929 938540760
REM
CELL 1.54180   50.00000   50.00000   50.00000   90.00000   90.00000   90.00000
LATT -1
SFAC C  
C      1  0.5290410000000  0.4613130000000  0.3779140000000 1.0
C      1  0.3540750000000  0.4649990000000  0.4553050000000 1.0
C      1  0.5156060000000  0.4383530000000  0.5353740000000 1.0
C      1  0.4877330000000  0.3964240000000  0.4671120000000 1.0
C      1  0.4881030000000  0.5290910000000  0.4356990000000 1.0
C      1  0.4217470000000  0.5547930000000  0.5245220000000 1.0
C      1  0.4073180000000  0.5405150000000  0.5453190000000 1.0
C      1  0.4348890000000  0.5955980000000  0.4740740000000 1.0
C      1  0.6002630000000  0.4743680000000  0.4790750000000 1.0
C      1  0.4583230000000  0.5195950000000  0.5491160000000 1.0
C      1  0.5588950000000  0.4887120000000  0.6060470000000 1.0
C      1  0.5891610000000  0.4190690000000  0.4996440000000 1.0
C      1  0.4476610000000  0.5289890000000  0.5928120000000 1.0
C      1  0.4469700000000  0.4137420000000  0.5303060000000 1.0
C      1  0.5580110000000  0.4548140000000  0.4935960000000 1.0
C      1  0.4466310000000  0.5422370000000  0.5664240000000 1.0
C      1  0.5103020000000  0.5621310000000  0.5821490000000 1.0
C      1  0.4320390000000  0.5723740000000  0.4132460000000 1.0
C      1  0.5690150000000  0.5114730000000  0.3942220000000 1.0
C      1  0.5319000000000  0.5273680000000  0.6106540000000 1.0
C      1  0.5643820000000  0.5651110000000  0.5438490000000 1.0
C      1  0.4915380000000  0.5535490000000  0.5298970000000 1.0
C      1  0.5500260000000  0.5575930000000  0.4694960000000 1.0
C      1  0.4144470000000  0.4954990000000  0.4255940000000 1.0
C      1  0.6028290000000  0.5284240000000  0.4793420000000 1.0
C      1  0.5238500000000  0.5257870000000  0.5495240000000 1.0
C      1  0.5240730000000  0.5964930000000  0.4979790000000 1.0
C      1  0.4205830000000  0.4962290000000  0.5149680000000 1.0
C      1  0.4661920000000  0.4046330000000  0.5093300000000 1.0
C      1  0.5141350000000  0.4570000000000  0.4707510000000 1.0
C      1  0.5740120000000  0.4440460000000  0.5992420000000 1.0
C      1  0.4796170000000  0.5518120000000  0.4856080000000 1.0
C      1  0.4185920000000  0.4553500000000  0.5460750000000 1.0
C      1  0.4768680000000  0.5304280000000  0.4084880000000 1.0
C      1  0.5371240000000  0.5062520000000  0.4321330000000 1.0
C      1  0.4907110000000  0.3824060000000  0.5458830000000 1.0
C      1  0.4694700000000  0.6574530000000  0.5113800000000 1.0
C      1  0.4540010000000  0.5136930000000  0.4032360000000 1.0
C      1  0.5765480000000  0.5290900000000  0.5790250000000 1.0
C      1  0.4813340000000  0.5133510000000  0.5663780000000 1.0
C      1  0.4693090000000  0.4390030000000  0.4663200000000 1.0
C      1  0.4834040000000  0.5713300000000  0.5816880000000 1.0
C      1  0.4619490000000  0.4676580000000  0.4622020000000 1.0
C      1  0.5108680000000  0.5105370000000  0.6220400000000 1.0
C      1  0.5532080000000  0.4610460000000  0.6095300000000 1.0
C      1  0.5268340000000  0.4472220000000  0.6119320000000 1.0
C      1  0.4094610000000  0.4358600000000  0.3831310000000 1.0
C      1  0.5083840000000  0.4638620000000  0.3613530000000 1.0
C      1  0.5704570000000  0.5909150000000  0.4376400000000 1.0
C      1  0.5989540000000  0.4574730000000  0.5250480000000 1.0
C      1  0.4677360000000  0.4128070000000  0.4806800000000 1.0
C      1  0.6009560000000  0.5467040000000  0.5026500000000 1.0
C      1  0.5695040000000  0.3985980000000  0.4958630000000 1.0
C      1  0.4104250000000  0.4715330000000  0.5677030000000 1.0
C      1  0.5009060000000  0.4575020000000  0.6180650000000 1.0
C      1  0.6056460000000  0.5046500000000  0.5216750000000 1.0
C      1  0.5516430000000  0.5297730000000  0.4742750000000 1.0
C      1  0.4232390000000  0.4768110000000  0.4050040000000 1.0
C      1  0.5974970000000  0.4767180000000  0.4503040000000 1.0
C      1  0.4596450000000  0.4777550000000  0.3687800000000 1.0
C      1  0.4149800000000  0.4970290000000  0.5788330000000 1.0
C      1  0.6249190000000  0.5323150000000  0.6045610000000 1.0
C      1  0.5575010000000  0.5215040000000  0.4179040000000 1.0
C      1  0.6066470000000  0.5007590000000  0.4922920000000 1.0
C      1  0.4203820000000  0.4676450000000  0.5203690000000 1.0
C      1  0.5232170000000  0.4832810000000  0.4210310000000 1.0
C      1  0.5017610000000  0.4812540000000  0.4801610000000 1.0
C      1  0.5035110000000  0.5899740000000  0.4452120000000 1.0
C      1  0.4891160000000  0.5821790000000  0.5328350000000 1.0
C      1  0.5555370000000  0.5160100000000  0.5973320000000 1.0
C      1  0.5883120000000  0.4499400000000  0.4970490000000 1.0
C      1  0.4379010000000  0.5342350000000  0.4437380000000 1.0
C      1  0.5140520000000  0.5208340000000  0.5029750000000 1.0
C      1  0.6036690000000  0.5029280000000  0.4404060000000 1.0
C      1  0.4948750000000  0.4801230000000  0.4235810000000 1.0
C      1  0.4760310000000  0.5230660000000  0.5934700000000 1.0
C      1  0.4598070000000  0.5836820000000  0.5410560000000 1.0
C      1  0.4825460000000  0.4693610000000  0.3582000000000 1.0
C      1  0.4108290000000  0.5170750000000  0.4932580000000 1.0
C      1  0.5225910000000  0.4169080000000  0.5532010000000 1.0
C      1  0.5027170000000  0.3987710000000  0.5648440000000 1.0
C      1  0.5201150000000  0.4848430000000  0.5730130000000 1.0
C      1  0.5483420000000  0.4714680000000  0.5145490000000 1.0
C      1  0.4380220000000  0.4527140000000  0.5036520000000 1.0
C      1  0.4728510000000  0.4855650000000  0.4829770000000 1.0
C      1  0.6017030000000  0.5312320000000  0.5927830000000 1.0
C      1  0.5369970000000  0.5729720000000  0.5420210000000 1.0
C      1  0.5078200000000  0.5073230000000  0.5630610000000 1.0
C      1  0.4529120000000  0.5556410000000  0.4514550000000 1.0
C      1  0.5555600000000  0.5660820000000  0.4414350000000 1.0
C      1  0.5171220000000  0.3905580000000  0.5042810000000 1.0
C      1  0.5638850000000  0.5146670000000  0.4944040000000 1.0
C      1  0.4280770000000  0.5400190000000  0.5006040000000 1.0
C      1  0.6044330000000  0.5737080000000  0.5010010000000 1.0
C      1  0.4613420000000  0.4855050000000  0.6117370000000 1.0
C      1  0.4594640000000  0.5683260000000  0.5659670000000 1.0
C      1  0.4140490000000  0.4372480000000  0.4311500000000 1.0
C      1  0.5833040000000  0.4605380000000  0.4319910000000 1.0
C      1  0.5256410000000  0.4213820000000  0.5986460000000 1.0
C      1  0.4963550000000  0.4403650000000  0.4563950000000 1.0
C      1  0.3961890000000  0.4977330000000  0.4475510000000 1.0
C      1  0.4454650000000  0.4314370000000  0.5774690000000 1.0
C      1  0.4336450000000  0.5165070000000  0.4236060000000 1.0
C      1  0.4155670000000  0.4496340000000  0.4059180000000 1.0
C      1  0.5692520000000  0.4262880000000  0.5791960000000 1.0
C      1  0.5102150000000  0.5656530000000  0.4046400000000 1.0
C      1  0.4626190000000  0.5777370000000  0.4106400000000 1.0
C      1  0.4160130000000  0.4347390000000  0.4575970000000 1.0
C      1  0.4826100000000  0.5826110000000  0.4867810000000 1.0
C      1  0.4896930000000  0.4454340000000  0.5252060000000 1.0
C      1  0.5838360000000  0.6131850000000  0.4357490000000 1.0
C      1  0.4656210000000  0.4515010000000  0.5138880000000 1.0
C      1  0.5386040000000  0.4606860000000  0.4065190000000 1.0
C      1  0.5524310000000  0.4994500000000  0.5152390000000 1.0
C      1  0.4367380000000  0.5013060000000  0.5979230000000 1.0
C      1  0.3989120000000  0.5211180000000  0.4652030000000 1.0
C      1  0.5318220000000  0.4332670000000  0.4172840000000 1.0
C      1  0.5771030000000  0.4859140000000  0.3907730000000 1.0
C      1  0.4711410000000  0.4760920000000  0.4361110000000 1.0
C      1  0.4979040000000  0.5423420000000  0.5056920000000 1.0
C      1  0.5224910000000  0.5751270000000  0.4286130000000 1.0
C      1  0.5332190000000  0.5134500000000  0.4593730000000 1.0
C      1  0.5725670000000  0.5410610000000  0.4333780000000 1.0
C      1  0.5238360000000  0.5538890000000  0.6053490000000 1.0
C      1  0.4725240000000  0.4589170000000  0.6109530000000 1.0
C      1  0.5967230000000  0.5315610000000  0.5285210000000 1.0
C      1  0.5947580000000  0.5286600000000  0.4504640000000 1.0
C      1  0.3973880000000  0.5476080000000  0.4492650000000 1.0
C      1  0.5790270000000  0.5408140000000  0.5506430000000 1.0
C      1  0.4705180000000  0.6324190000000  0.5042060000000 1.0
C      1  0.4822670000000  0.5581000000000  0.4005560000000 1.0
C      1  0.5153920000000  0.5051280000000  0.4795380000000 1.0
C      1  0.5077960000000  0.5910700000000  0.4742030000000 1.0
C      1  0.4049490000000  0.5200360000000  0.5635560000000 1.0
C      1  0.5142530000000  0.3987790000000  0.4765380000000 1.0
C      1  0.4836770000000  0.5058090000000  0.6144500000000 1.0
C      1  0.4621200000000  0.4344910000000  0.5998520000000 1.0
C      1  0.4295340000000  0.5954040000000  0.5007150000000 1.0
C      1  0.4250350000000  0.4398410000000  0.4821680000000 1.0
C      1  0.4735900000000  0.5920250000000  0.4354600000000 1.0
C      1  0.5314040000000  0.5157540000000  0.5245130000000 1.0
C      1  0.3749620000000  0.4800630000000  0.4513100000000 1.0
C      1  0.4720260000000  0.6066740000000  0.4976680000000 1.0
C      1  0.5231470000000  0.5531560000000  0.5581270000000 1.0
C      1  0.4483060000000  0.5046390000000  0.5257980000000 1.0
C      1  0.4456060000000  0.4888860000000  0.3899970000000 1.0
C      1  0.6058220000000  0.4808650000000  0.5363050000000 1.0
C      1  0.4776930000000  0.4114020000000  0.6055930000000 1.0
C      1  0.4554380000000  0.5349010000000  0.4935220000000 1.0
C      1  0.4355940000000  0.4318560000000  0.5508830000000 1.0
C      1  0.5683450000000  0.4653410000000  0.4083210000000 1.0
C      1  0.4354240000000  0.5806320000000  0.5245570000000 1.0
C      1  0.4908160000000  0.3898140000000  0.5184640000000 1.0
C      1  0.5384560000000  0.4699440000000  0.5609150000000 1.0
C      1  0.5365450000000  0.4148930000000  0.4674700000000 1.0
C      1  0.4518570000000  0.5844160000000  0.4545120000000 1.0
C      1  0.5606850000000  0.4003500000000  0.4685610000000 1.0
C      1  0.5384180000000  0.4431340000000  0.4759880000000 1.0
C      1  0.4096350000000  0.5635130000000  0.4288000000000 1.0
C      1  0.4627580000000  0.5070100000000  0.5000100000000 1.0
C      1  0.5018890000000  0.4053620000000  0.5930090000000 1.0
C      1  0.5458930000000  0.3900800000000  0.5118350000000 1.0
C      1  0.5352510000000  0.4587910000000  0.5356790000000 1.0
C      1  0.4793170000000  0.5455160000000  0.4568410000000 1.0
C      1  0.5425530000000  0.4194030000000  0.5742850000000 1.0
C      1  0.5181770000000  0.5898380000000  0.5261470000000 1.0
END
