TITL C-247201-3759-225 5031.41890610138 125000 -934.334762207388 0 0 154 (C1) n - 1
REM
REM in /home/nfs/bkarasulu/CARBON/AIRSS/Generating-Clusters/LCBOP/Only-C1/SD-CG/FIRE-HFTN
REM
REM
REM
REM
REM
REM ./C.cell (11c1c37f851c82e70ff6c80c92926a4b)
REM AIRSS Version 0.9.1 bugfix July 2018 build 013d7b7c2542+ Fri, 06 Jul 2018 19:26:36 +0100
REM compiler GCC version 9.2.1 20190827 (Red Hat 9.2.1-1)
REM options -cpp -mtune=generic -march=x86-64 -g -O0 -fpre-include=/usr/include/finclude/math-vector-fortran.h
REM seed -1090067098 1533513446 -1899362485 1646488164 -169678174 -626015917 -586137932 722782589 -22770682 22854584 1919457277 1751868678 -1094539454 621527997 -318616068 1665702584 -1596723733 2050818417 -1525584915 -1891191835 1338607496 -872378538 -66441008 93684715 -1141183239 1890604864 -706685211 299177807 -756553764 1090115619 -1450923407 466820528 -1850881345
REM
CELL 1.54180   50.00000   50.00000   50.00000   90.00000   90.00000   90.00000
LATT -1
SFAC C  
C      1  0.4386670000000  0.5242420000000  0.5533960000000 1.0
C      1  0.4311770000000  0.5681330000000  0.4710750000000 1.0
C      1  0.4464510000000  0.3985480000000  0.5119730000000 1.0
C      1  0.4343730000000  0.4355760000000  0.4384630000000 1.0
C      1  0.5419750000000  0.5074590000000  0.6137800000000 1.0
C      1  0.5877770000000  0.4951890000000  0.4649410000000 1.0
C      1  0.3933880000000  0.4587980000000  0.4562780000000 1.0
C      1  0.5215420000000  0.5370870000000  0.5655310000000 1.0
C      1  0.5011320000000  0.4753420000000  0.4642970000000 1.0
C      1  0.5482070000000  0.4247130000000  0.4500290000000 1.0
C      1  0.3786140000000  0.4913530000000  0.4980740000000 1.0
C      1  0.5217420000000  0.4620080000000  0.4845410000000 1.0
C      1  0.4992260000000  0.5729900000000  0.4157410000000 1.0
C      1  0.4453900000000  0.4545450000000  0.5341130000000 1.0
C      1  0.5382940000000  0.4063480000000  0.4940830000000 1.0
C      1  0.5683550000000  0.6044430000000  0.4653950000000 1.0
C      1  0.4138120000000  0.5386230000000  0.5503130000000 1.0
C      1  0.4873450000000  0.4372020000000  0.5489550000000 1.0
C      1  0.5531800000000  0.4914670000000  0.5042000000000 1.0
C      1  0.4947990000000  0.5151500000000  0.5707850000000 1.0
C      1  0.5675520000000  0.4733500000000  0.4588960000000 1.0
C      1  0.5174820000000  0.5082750000000  0.5222910000000 1.0
C      1  0.4849900000000  0.4948510000000  0.4821130000000 1.0
C      1  0.5383430000000  0.3884700000000  0.5414740000000 1.0
C      1  0.5320840000000  0.5318640000000  0.5152490000000 1.0
C      1  0.4505350000000  0.6170120000000  0.4951590000000 1.0
C      1  0.5391390000000  0.4321540000000  0.5988070000000 1.0
C      1  0.5105200000000  0.4264490000000  0.5942100000000 1.0
C      1  0.4326800000000  0.4922140000000  0.6098640000000 1.0
C      1  0.4199170000000  0.5544960000000  0.4471990000000 1.0
C      1  0.5195140000000  0.4837740000000  0.4410160000000 1.0
C      1  0.4702760000000  0.4365500000000  0.4406140000000 1.0
C      1  0.4289870000000  0.4220550000000  0.5071240000000 1.0
C      1  0.4441300000000  0.5480980000000  0.4875780000000 1.0
C      1  0.5328510000000  0.5718780000000  0.4584210000000 1.0
C      1  0.5863340000000  0.5061860000000  0.4125380000000 1.0
C      1  0.5217050000000  0.4889580000000  0.6204930000000 1.0
C      1  0.3933060000000  0.5295130000000  0.5339140000000 1.0
C      1  0.4175020000000  0.5293280000000  0.4311880000000 1.0
C      1  0.5583660000000  0.4320670000000  0.5363400000000 1.0
C      1  0.5970990000000  0.5211900000000  0.4775660000000 1.0
C      1  0.5834500000000  0.5600610000000  0.5052310000000 1.0
C      1  0.4712450000000  0.5533500000000  0.4943410000000 1.0
C      1  0.5079220000000  0.4503990000000  0.5068510000000 1.0
C      1  0.4360070000000  0.5963450000000  0.4812800000000 1.0
C      1  0.4541680000000  0.5154140000000  0.3982560000000 1.0
C      1  0.4872060000000  0.4140700000000  0.4872360000000 1.0
C      1  0.4813010000000  0.5268850000000  0.4357220000000 1.0
C      1  0.3828840000000  0.5114420000000  0.5161280000000 1.0
C      1  0.5579840000000  0.6028920000000  0.5145480000000 1.0
C      1  0.5665310000000  0.4762700000000  0.5889270000000 1.0
C      1  0.5262220000000  0.4695810000000  0.5486370000000 1.0
C      1  0.5572150000000  0.5035910000000  0.5900830000000 1.0
C      1  0.4054910000000  0.4755860000000  0.4346480000000 1.0
C      1  0.4676330000000  0.4607470000000  0.6011480000000 1.0
C      1  0.5585560000000  0.4109690000000  0.4733550000000 1.0
C      1  0.4777190000000  0.5330400000000  0.6179050000000 1.0
C      1  0.4659740000000  0.3973320000000  0.5343640000000 1.0
C      1  0.5112440000000  0.4747020000000  0.5980390000000 1.0
C      1  0.5951970000000  0.4660160000000  0.5342590000000 1.0
C      1  0.4790480000000  0.5100870000000  0.3837170000000 1.0
C      1  0.4759570000000  0.4641260000000  0.4473320000000 1.0
C      1  0.4340200000000  0.5213030000000  0.4896230000000 1.0
C      1  0.5478020000000  0.5258630000000  0.3915520000000 1.0
C      1  0.4825530000000  0.4386870000000  0.4998240000000 1.0
C      1  0.4433740000000  0.3763390000000  0.4959340000000 1.0
C      1  0.5243010000000  0.5311810000000  0.3798550000000 1.0
C      1  0.5095440000000  0.4505940000000  0.4111680000000 1.0
C      1  0.5054040000000  0.6268190000000  0.5156240000000 1.0
C      1  0.5644800000000  0.5792640000000  0.4243260000000 1.0
C      1  0.5721790000000  0.5339580000000  0.5516200000000 1.0
C      1  0.5489380000000  0.5595480000000  0.4387370000000 1.0
C      1  0.4848320000000  0.5742200000000  0.5073460000000 1.0
C      1  0.5219120000000  0.5497760000000  0.5358550000000 1.0
C      1  0.5480480000000  0.5896350000000  0.4037180000000 1.0
C      1  0.4885380000000  0.5955330000000  0.4889190000000 1.0
C      1  0.4982350000000  0.4830840000000  0.3982830000000 1.0
C      1  0.4467130000000  0.4687140000000  0.4092290000000 1.0
C      1  0.4869860000000  0.5957690000000  0.4609620000000 1.0
C      1  0.5403010000000  0.5985940000000  0.4629670000000 1.0
C      1  0.4474010000000  0.5049620000000  0.5116050000000 1.0
C      1  0.4609920000000  0.4886990000000  0.6067910000000 1.0
C      1  0.4975600000000  0.4286230000000  0.4298670000000 1.0
C      1  0.5536840000000  0.5321170000000  0.4396810000000 1.0
C      1  0.4631970000000  0.4813170000000  0.4287640000000 1.0
C      1  0.4140970000000  0.4364820000000  0.4599760000000 1.0
C      1  0.4326230000000  0.4733060000000  0.4806940000000 1.0
C      1  0.4135760000000  0.4784770000000  0.5958780000000 1.0
C      1  0.5138330000000  0.4845270000000  0.6462030000000 1.0
C      1  0.4230760000000  0.4334130000000  0.5327330000000 1.0
C      1  0.5798090000000  0.4450430000000  0.5230030000000 1.0
C      1  0.4234990000000  0.5006220000000  0.4713550000000 1.0
C      1  0.4132120000000  0.5028510000000  0.4444140000000 1.0
C      1  0.4583280000000  0.4809680000000  0.4940940000000 1.0
C      1  0.4857760000000  0.4090450000000  0.5524090000000 1.0
C      1  0.5732900000000  0.6129850000000  0.4919210000000 1.0
C      1  0.4624850000000  0.4562270000000  0.5096300000000 1.0
C      1  0.5552700000000  0.4518980000000  0.4415310000000 1.0
C      1  0.6057080000000  0.5428040000000  0.4601790000000 1.0
C      1  0.5359950000000  0.4878530000000  0.5274730000000 1.0
C      1  0.4799170000000  0.6197610000000  0.5015640000000 1.0
C      1  0.5452690000000  0.4089480000000  0.5229600000000 1.0
C      1  0.4868970000000  0.5886730000000  0.4353800000000 1.0
C      1  0.4915980000000  0.5433000000000  0.4774420000000 1.0
C      1  0.4633910000000  0.5084970000000  0.4249100000000 1.0
C      1  0.5488050000000  0.5194730000000  0.4937820000000 1.0
C      1  0.5971890000000  0.4928180000000  0.5360500000000 1.0
C      1  0.5883760000000  0.5193610000000  0.5314590000000 1.0
C      1  0.5090080000000  0.5681650000000  0.6078280000000 1.0
C      1  0.4725460000000  0.5157420000000  0.5236790000000 1.0
C      1  0.4858160000000  0.5209500000000  0.4631150000000 1.0
C      1  0.4949510000000  0.4509740000000  0.6007140000000 1.0
C      1  0.4290270000000  0.4763910000000  0.5477220000000 1.0
C      1  0.5471740000000  0.4491460000000  0.5562560000000 1.0
C      1  0.5207660000000  0.5593080000000  0.5855360000000 1.0
C      1  0.5069710000000  0.4516380000000  0.5350560000000 1.0
C      1  0.4897320000000  0.5564950000000  0.6223930000000 1.0
C      1  0.5700680000000  0.5627640000000  0.5484300000000 1.0
C      1  0.4941770000000  0.5061680000000  0.5090560000000 1.0
C      1  0.4288840000000  0.5278790000000  0.4041610000000 1.0
C      1  0.3802370000000  0.4725650000000  0.4781970000000 1.0
C      1  0.5183630000000  0.4172980000000  0.4490050000000 1.0
C      1  0.4506120000000  0.4504950000000  0.5812350000000 1.0
C      1  0.5624330000000  0.5203420000000  0.4150830000000 1.0
C      1  0.5128540000000  0.4075120000000  0.4770420000000 1.0
C      1  0.4209400000000  0.4605520000000  0.5735470000000 1.0
C      1  0.5494480000000  0.5219240000000  0.4656470000000 1.0
C      1  0.5693060000000  0.5774320000000  0.5238780000000 1.0
C      1  0.5525690000000  0.5222740000000  0.5688870000000 1.0
C      1  0.5915080000000  0.5320300000000  0.5050120000000 1.0
C      1  0.5529380000000  0.4680460000000  0.4854940000000 1.0
C      1  0.5025350000000  0.5687940000000  0.5284580000000 1.0
C      1  0.5324890000000  0.4611800000000  0.4275800000000 1.0
C      1  0.5725150000000  0.4485230000000  0.4965090000000 1.0
C      1  0.4975530000000  0.5319410000000  0.3885820000000 1.0
C      1  0.5548890000000  0.4506280000000  0.5833800000000 1.0
C      1  0.4241580000000  0.4570600000000  0.4206370000000 1.0
C      1  0.4633920000000  0.4482420000000  0.5562790000000 1.0
C      1  0.4691770000000  0.5232960000000  0.5514830000000 1.0
C      1  0.5314120000000  0.6161520000000  0.5189460000000 1.0
C      1  0.5831180000000  0.5887980000000  0.4452800000000 1.0
C      1  0.6021990000000  0.5687200000000  0.4527280000000 1.0
C      1  0.5212950000000  0.5845510000000  0.4015940000000 1.0
C      1  0.5114530000000  0.4860430000000  0.5711590000000 1.0
C      1  0.4096210000000  0.4360950000000  0.5586070000000 1.0
C      1  0.4322740000000  0.5008180000000  0.5366610000000 1.0
C      1  0.4928990000000  0.5450090000000  0.4148070000000 1.0
C      1  0.5109110000000  0.4983700000000  0.4186060000000 1.0
C      1  0.4772330000000  0.5113810000000  0.6004370000000 1.0
C      1  0.5257970000000  0.3873470000000  0.5654370000000 1.0
C      1  0.5150340000000  0.5571180000000  0.4730110000000 1.0
C      1  0.6082880000000  0.4938690000000  0.4057590000000 1.0
C      1  0.4260020000000  0.4429260000000  0.4854210000000 1.0
C      1  0.5047030000000  0.4042640000000  0.5743600000000 1.0
END
