TITL C-247202-1916-719 4404.32808577302 125000 -1101.57872085102 0 0 182 (C1) n - 1
REM
REM in /home/nfs/bkarasulu/CARBON/AIRSS/Generating-Clusters/LCBOP/Only-C1/SD-CG/FIRE-HFTN
REM
REM
REM
REM
REM
REM ./C.cell (11c1c37f851c82e70ff6c80c92926a4b)
REM AIRSS Version 0.9.1 bugfix July 2018 build 013d7b7c2542+ Fri, 06 Jul 2018 19:26:36 +0100
REM compiler GCC version 9.2.1 20190827 (Red Hat 9.2.1-1)
REM options -cpp -mtune=generic -march=x86-64 -g -O0 -fpre-include=/usr/include/finclude/math-vector-fortran.h
REM seed -1865123821 1110860864 -118160886 1122854628 -265962219 -1584842027 -1690046520 290053968 61756329 1625496333 -1727150248 -1077181260 1674157892 -535875520 1737273721 1840827261 703918152 -1342337127 1586448043 -512664332 -321864856 1795644839 -1025101019 -1011734856 -2124295482 -108473896 2031370611 -1570088525 1449234751 1659446873 -1587883462 756174974 -1345448219
REM
CELL 1.54180   50.00000   50.00000   50.00000   90.00000   90.00000   90.00000
LATT -1
SFAC C  
C      1  0.3886230000000  0.4616300000000  0.4749440000000 1.0
C      1  0.4373070000000  0.4932640000000  0.4886660000000 1.0
C      1  0.5688970000000  0.4996760000000  0.6205430000000 1.0
C      1  0.6100340000000  0.4764260000000  0.4267890000000 1.0
C      1  0.4177660000000  0.5447950000000  0.5374440000000 1.0
C      1  0.4390840000000  0.5393060000000  0.6017520000000 1.0
C      1  0.4907650000000  0.5517730000000  0.4157350000000 1.0
C      1  0.4997690000000  0.5503270000000  0.4792430000000 1.0
C      1  0.3855630000000  0.4882760000000  0.4639820000000 1.0
C      1  0.5230840000000  0.5114060000000  0.5158140000000 1.0
C      1  0.5943980000000  0.4915230000000  0.5560270000000 1.0
C      1  0.4792560000000  0.5759290000000  0.4285420000000 1.0
C      1  0.4189550000000  0.4288720000000  0.4529230000000 1.0
C      1  0.5651320000000  0.4182840000000  0.5004190000000 1.0
C      1  0.4813970000000  0.4841380000000  0.5228730000000 1.0
C      1  0.4560950000000  0.4352310000000  0.3980750000000 1.0
C      1  0.4433940000000  0.4830910000000  0.4628080000000 1.0
C      1  0.4681490000000  0.4973430000000  0.6166360000000 1.0
C      1  0.4138950000000  0.4821390000000  0.5310540000000 1.0
C      1  0.5400530000000  0.5138960000000  0.3702340000000 1.0
C      1  0.5241300000000  0.5011860000000  0.5680600000000 1.0
C      1  0.5008570000000  0.5789350000000  0.4752660000000 1.0
C      1  0.4635090000000  0.5254330000000  0.4486800000000 1.0
C      1  0.3976110000000  0.5136520000000  0.4235890000000 1.0
C      1  0.5276130000000  0.4527000000000  0.5387060000000 1.0
C      1  0.3868190000000  0.4893830000000  0.4349830000000 1.0
C      1  0.5620990000000  0.6112080000000  0.4400520000000 1.0
C      1  0.3884740000000  0.5405510000000  0.4612380000000 1.0
C      1  0.4718980000000  0.5615460000000  0.5278630000000 1.0
C      1  0.5657160000000  0.5023090000000  0.5929310000000 1.0
C      1  0.4543830000000  0.4098450000000  0.5691200000000 1.0
C      1  0.6109130000000  0.5428720000000  0.5210100000000 1.0
C      1  0.4494390000000  0.4632950000000  0.3988520000000 1.0
C      1  0.5455990000000  0.5798970000000  0.4995250000000 1.0
C      1  0.4256230000000  0.5364130000000  0.5100280000000 1.0
C      1  0.4216410000000  0.4659800000000  0.3942840000000 1.0
C      1  0.5139220000000  0.5169920000000  0.3821860000000 1.0
C      1  0.4973680000000  0.5965950000000  0.5527380000000 1.0
C      1  0.5622710000000  0.5580210000000  0.5789010000000 1.0
C      1  0.5854560000000  0.5205030000000  0.4275720000000 1.0
C      1  0.3834940000000  0.5363100000000  0.4333360000000 1.0
C      1  0.4466410000000  0.5188240000000  0.4971660000000 1.0
C      1  0.5699730000000  0.5890590000000  0.4551520000000 1.0
C      1  0.4003030000000  0.4349580000000  0.4749070000000 1.0
C      1  0.3996270000000  0.5484740000000  0.5607570000000 1.0
C      1  0.5831920000000  0.5669770000000  0.4432210000000 1.0
C      1  0.4548070000000  0.5527260000000  0.4712930000000 1.0
C      1  0.4931760000000  0.5115190000000  0.5212760000000 1.0
C      1  0.4968440000000  0.6176120000000  0.4450810000000 1.0
C      1  0.4580830000000  0.4591000000000  0.4589560000000 1.0
C      1  0.5459810000000  0.6011800000000  0.5510700000000 1.0
C      1  0.5029580000000  0.3873600000000  0.5203850000000 1.0
C      1  0.5644560000000  0.5399350000000  0.4904820000000 1.0
C      1  0.6151370000000  0.5811450000000  0.4943120000000 1.0
C      1  0.5898760000000  0.4339730000000  0.4559390000000 1.0
C      1  0.5172860000000  0.6329790000000  0.4374190000000 1.0
C      1  0.4636230000000  0.5985940000000  0.4989880000000 1.0
C      1  0.4891880000000  0.4702970000000  0.4258290000000 1.0
C      1  0.5827720000000  0.4654120000000  0.5511410000000 1.0
C      1  0.4422280000000  0.3910310000000  0.5217520000000 1.0
C      1  0.5300340000000  0.5080740000000  0.4381950000000 1.0
C      1  0.5015730000000  0.3833650000000  0.4705200000000 1.0
C      1  0.5434520000000  0.4369170000000  0.4272860000000 1.0
C      1  0.4319440000000  0.5112910000000  0.5657780000000 1.0
C      1  0.4983170000000  0.4047450000000  0.4507150000000 1.0
C      1  0.4295940000000  0.4868810000000  0.5540090000000 1.0
C      1  0.5133450000000  0.5376860000000  0.4039340000000 1.0
C      1  0.4291560000000  0.4742960000000  0.5085850000000 1.0
C      1  0.5212930000000  0.6072070000000  0.5395880000000 1.0
C      1  0.4652730000000  0.5261210000000  0.6103680000000 1.0
C      1  0.5605040000000  0.4616920000000  0.5702450000000 1.0
C      1  0.4545570000000  0.3904350000000  0.5480900000000 1.0
C      1  0.5019890000000  0.4172390000000  0.5642880000000 1.0
C      1  0.3851900000000  0.5151470000000  0.4754550000000 1.0
C      1  0.4112000000000  0.4163950000000  0.5479920000000 1.0
C      1  0.4162000000000  0.5482710000000  0.5871430000000 1.0
C      1  0.5642010000000  0.4368220000000  0.6154450000000 1.0
C      1  0.4737670000000  0.4589690000000  0.5153020000000 1.0
C      1  0.4861830000000  0.4601320000000  0.4523280000000 1.0
C      1  0.4937500000000  0.5692660000000  0.5466330000000 1.0
C      1  0.5044270000000  0.5049770000000  0.4489750000000 1.0
C      1  0.4393930000000  0.5333910000000  0.5517140000000 1.0
C      1  0.4632890000000  0.5381730000000  0.5412580000000 1.0
C      1  0.4829560000000  0.5220910000000  0.4932570000000 1.0
C      1  0.5612560000000  0.4406160000000  0.5890590000000 1.0
C      1  0.5912040000000  0.4426820000000  0.5342590000000 1.0
C      1  0.4902340000000  0.5669690000000  0.6271830000000 1.0
C      1  0.5026070000000  0.4503090000000  0.4734080000000 1.0
C      1  0.5739850000000  0.4910950000000  0.4938730000000 1.0
C      1  0.6002410000000  0.4943650000000  0.4970650000000 1.0
C      1  0.3823530000000  0.4659450000000  0.4205300000000 1.0
C      1  0.5424540000000  0.4331850000000  0.4930770000000 1.0
C      1  0.4859770000000  0.5217890000000  0.5486840000000 1.0
C      1  0.4747100000000  0.4734070000000  0.5700540000000 1.0
C      1  0.5357010000000  0.4510900000000  0.5137230000000 1.0
C      1  0.5250530000000  0.4967700000000  0.4916720000000 1.0
C      1  0.4258520000000  0.5179540000000  0.4211170000000 1.0
C      1  0.5661510000000  0.3948430000000  0.5163870000000 1.0
C      1  0.5196600000000  0.5916540000000  0.4936380000000 1.0
C      1  0.4626970000000  0.5699740000000  0.5011550000000 1.0
C      1  0.4168360000000  0.4064200000000  0.5214280000000 1.0
C      1  0.5929280000000  0.5964010000000  0.4960900000000 1.0
C      1  0.5873530000000  0.4907860000000  0.4226620000000 1.0
C      1  0.5829150000000  0.5399380000000  0.5674840000000 1.0
C      1  0.6116980000000  0.5392670000000  0.4695410000000 1.0
C      1  0.3757870000000  0.5332350000000  0.5579430000000 1.0
C      1  0.5880820000000  0.4357880000000  0.5050780000000 1.0
C      1  0.4479570000000  0.4308660000000  0.4623700000000 1.0
C      1  0.5599550000000  0.5065100000000  0.3887240000000 1.0
C      1  0.5846950000000  0.5122640000000  0.5742330000000 1.0
C      1  0.5361240000000  0.5297210000000  0.4205360000000 1.0
C      1  0.4158030000000  0.4286280000000  0.4243090000000 1.0
C      1  0.5954400000000  0.5410360000000  0.4457150000000 1.0
C      1  0.4697510000000  0.5339670000000  0.4216400000000 1.0
C      1  0.4078610000000  0.5609510000000  0.4651110000000 1.0
C      1  0.5393990000000  0.4627240000000  0.4117720000000 1.0
C      1  0.5038310000000  0.4899050000000  0.3846480000000 1.0
C      1  0.3870710000000  0.4906760000000  0.5326970000000 1.0
C      1  0.4461670000000  0.4686960000000  0.5658250000000 1.0
C      1  0.4598260000000  0.3837310000000  0.5005280000000 1.0
C      1  0.4344260000000  0.5657840000000  0.4561190000000 1.0
C      1  0.5597790000000  0.5830530000000  0.5651560000000 1.0
C      1  0.6235060000000  0.4822970000000  0.4912510000000 1.0
C      1  0.5042780000000  0.3958600000000  0.5458590000000 1.0
C      1  0.5498690000000  0.4902250000000  0.4799500000000 1.0
C      1  0.5933450000000  0.4173970000000  0.5484210000000 1.0
C      1  0.4899650000000  0.4791280000000  0.3635090000000 1.0
C      1  0.5387940000000  0.5318580000000  0.5288620000000 1.0
C      1  0.4758180000000  0.6143120000000  0.5436630000000 1.0
C      1  0.3724060000000  0.5097810000000  0.5448280000000 1.0
C      1  0.4939150000000  0.4962620000000  0.5658980000000 1.0
C      1  0.5299820000000  0.5290770000000  0.5563640000000 1.0
C      1  0.5174150000000  0.5371280000000  0.6029370000000 1.0
C      1  0.5990020000000  0.5467190000000  0.5449060000000 1.0
C      1  0.5678200000000  0.4530210000000  0.6365930000000 1.0
C      1  0.4809520000000  0.6149870000000  0.5145990000000 1.0
C      1  0.5104460000000  0.6109110000000  0.5123590000000 1.0
C      1  0.5500930000000  0.5388480000000  0.4677830000000 1.0
C      1  0.4900630000000  0.5420970000000  0.6128520000000 1.0
C      1  0.4455640000000  0.4301820000000  0.4922420000000 1.0
C      1  0.5629770000000  0.5274200000000  0.4098710000000 1.0
C      1  0.5680290000000  0.5907410000000  0.4840150000000 1.0
C      1  0.4026460000000  0.4177280000000  0.4985810000000 1.0
C      1  0.4379260000000  0.4178660000000  0.4092320000000 1.0
C      1  0.5505340000000  0.5526700000000  0.5120750000000 1.0
C      1  0.5414850000000  0.5544970000000  0.6000050000000 1.0
C      1  0.6026960000000  0.4401500000000  0.4807410000000 1.0
C      1  0.4755950000000  0.4704470000000  0.6148070000000 1.0
C      1  0.4782320000000  0.4246940000000  0.5790950000000 1.0
C      1  0.4033840000000  0.4508280000000  0.4104350000000 1.0
C      1  0.4916590000000  0.4463930000000  0.4986360000000 1.0
C      1  0.4312850000000  0.4488200000000  0.5791890000000 1.0
C      1  0.5493570000000  0.4926860000000  0.4520390000000 1.0
C      1  0.4470040000000  0.4520020000000  0.5101070000000 1.0
C      1  0.5704880000000  0.4329090000000  0.4371480000000 1.0
C      1  0.4881670000000  0.3844070000000  0.4962580000000 1.0
C      1  0.5463550000000  0.4862340000000  0.5784780000000 1.0
C      1  0.4289600000000  0.4230040000000  0.5695210000000 1.0
C      1  0.4459350000000  0.5014540000000  0.4402780000000 1.0
C      1  0.5803770000000  0.3949470000000  0.5397050000000 1.0
C      1  0.4565310000000  0.6266830000000  0.5580260000000 1.0
C      1  0.5127700000000  0.5822470000000  0.6293920000000 1.0
C      1  0.5236780000000  0.5423410000000  0.4664820000000 1.0
C      1  0.4632560000000  0.4802370000000  0.4166850000000 1.0
C      1  0.5113640000000  0.4731070000000  0.4073890000000 1.0
C      1  0.5435890000000  0.6294910000000  0.4344110000000 1.0
C      1  0.5174430000000  0.3617960000000  0.4643800000000 1.0
C      1  0.4797920000000  0.4531600000000  0.5912870000000 1.0
C      1  0.4705970000000  0.4137820000000  0.4500260000000 1.0
C      1  0.6158780000000  0.5527280000000  0.4948060000000 1.0
C      1  0.4910270000000  0.5905500000000  0.4501380000000 1.0
C      1  0.5635940000000  0.4815330000000  0.4051240000000 1.0
C      1  0.4434340000000  0.5689600000000  0.4289460000000 1.0
C      1  0.5369690000000  0.5768090000000  0.6179330000000 1.0
C      1  0.5231610000000  0.4220630000000  0.4443770000000 1.0
C      1  0.5000470000000  0.5014280000000  0.4762900000000 1.0
C      1  0.5192750000000  0.4383880000000  0.5592910000000 1.0
C      1  0.5698030000000  0.4797730000000  0.6385330000000 1.0
C      1  0.6252290000000  0.4569160000000  0.4822960000000 1.0
C      1  0.4423960000000  0.5431640000000  0.4141620000000 1.0
C      1  0.5052850000000  0.5444990000000  0.5567320000000 1.0
C      1  0.5265540000000  0.4356730000000  0.4700580000000 1.0
END
