TITL C-247198-3593-351 5.1558773808243e-05 125000 -525.799252706758 0 0 87 (C1) n - 1
REM
REM in /home/nfs/bkarasulu/CARBON/AIRSS/Generating-Clusters/LCBOP/Only-C1/SD-CG/FIRE-HFTN
REM
REM
REM
REM
REM
REM ./C.cell (11c1c37f851c82e70ff6c80c92926a4b)
REM AIRSS Version 0.9.1 bugfix July 2018 build 013d7b7c2542+ Fri, 06 Jul 2018 19:26:36 +0100
REM compiler GCC version 9.2.1 20190827 (Red Hat 9.2.1-1)
REM options -cpp -mtune=generic -march=x86-64 -g -O0 -fpre-include=/usr/include/finclude/math-vector-fortran.h
REM seed 2036964436 1739531123 -720516893 -334178042 2116876696 -1312127347 -1323995990 -1228957245 -1469311582 1478398664 -1677855172 1711665316 1325469674 -228318787 934523637 -1065900211 -357027180 2125680454 1820292920 -434093969 -482491804 -1904545089 57878200 1099852220 -4561099 1284314483 -1622973889 -707927754 1076497321 739986731 -2046512119 -236370851 -1636108139
REM
CELL 1.54180   50.00000   50.00000   50.00000   90.00000   90.00000   90.00000
LATT -1
SFAC C  
C      1  0.5147830000000  0.5359420000000  0.5873650000000 1.0
C      1  0.4900720000000  0.5831090000000  0.5053910000000 1.0
C      1  0.5350540000000  0.4929890000000  0.5720650000000 1.0
C      1  0.5756260000000  0.5125520000000  0.4746770000000 1.0
C      1  0.5140360000000  0.4944510000000  0.4237750000000 1.0
C      1  0.4984070000000  0.4541750000000  0.5304050000000 1.0
C      1  0.5546340000000  0.4673330000000  0.4646490000000 1.0
C      1  0.4376570000000  0.4945270000000  0.5097910000000 1.0
C      1  0.5018240000000  0.4884570000000  0.6054620000000 1.0
C      1  0.5194910000000  0.4993050000000  0.4528290000000 1.0
C      1  0.4328560000000  0.4929790000000  0.4804560000000 1.0
C      1  0.5311390000000  0.5854350000000  0.4451370000000 1.0
C      1  0.4104520000000  0.5249630000000  0.5397640000000 1.0
C      1  0.4817280000000  0.5170700000000  0.4729100000000 1.0
C      1  0.5536470000000  0.5677130000000  0.4991750000000 1.0
C      1  0.4814930000000  0.5759620000000  0.4582780000000 1.0
C      1  0.4720300000000  0.5745900000000  0.4854440000000 1.0
C      1  0.5407090000000  0.4970450000000  0.4128730000000 1.0
C      1  0.4678350000000  0.4138570000000  0.5175420000000 1.0
C      1  0.5166560000000  0.4704060000000  0.5152990000000 1.0
C      1  0.5240790000000  0.5498690000000  0.5641060000000 1.0
C      1  0.4730660000000  0.5031210000000  0.5656100000000 1.0
C      1  0.4713830000000  0.4195260000000  0.5733910000000 1.0
C      1  0.4761630000000  0.5285610000000  0.4494320000000 1.0
C      1  0.5888720000000  0.5346400000000  0.4614840000000 1.0
C      1  0.5092960000000  0.4948460000000  0.5050160000000 1.0
C      1  0.4086720000000  0.5467320000000  0.5557870000000 1.0
C      1  0.6161930000000  0.5362370000000  0.4614990000000 1.0
C      1  0.5279850000000  0.4649400000000  0.5766850000000 1.0
C      1  0.5601490000000  0.5014320000000  0.5251970000000 1.0
C      1  0.5268100000000  0.4726530000000  0.4620230000000 1.0
C      1  0.4672700000000  0.4773750000000  0.5611550000000 1.0
C      1  0.4324860000000  0.5192780000000  0.5229590000000 1.0
C      1  0.5692360000000  0.4905460000000  0.4563440000000 1.0
C      1  0.5555380000000  0.4374480000000  0.5011990000000 1.0
C      1  0.4789720000000  0.5690810000000  0.5547770000000 1.0
C      1  0.4635770000000  0.4278810000000  0.4929600000000 1.0
C      1  0.5481010000000  0.5080160000000  0.5510680000000 1.0
C      1  0.5596590000000  0.4403500000000  0.4732190000000 1.0
C      1  0.5069500000000  0.5676490000000  0.5484410000000 1.0
C      1  0.5038380000000  0.4620970000000  0.5936130000000 1.0
C      1  0.5477850000000  0.5371730000000  0.5542520000000 1.0
C      1  0.4324380000000  0.5436790000000  0.4751270000000 1.0
C      1  0.4507590000000  0.4696530000000  0.5177710000000 1.0
C      1  0.5427480000000  0.4599680000000  0.5125680000000 1.0
C      1  0.5472780000000  0.4126740000000  0.5121710000000 1.0
C      1  0.5124570000000  0.5794840000000  0.5225130000000 1.0
C      1  0.4861840000000  0.4405040000000  0.5869220000000 1.0
C      1  0.4532470000000  0.5427500000000  0.5197000000000 1.0
C      1  0.5678750000000  0.5182190000000  0.5025200000000 1.0
C      1  0.4716770000000  0.4645820000000  0.5364660000000 1.0
C      1  0.5486240000000  0.4185540000000  0.4582990000000 1.0
C      1  0.4472360000000  0.4514730000000  0.4962370000000 1.0
C      1  0.5540420000000  0.5719250000000  0.4433410000000 1.0
C      1  0.4742210000000  0.5542230000000  0.4418030000000 1.0
C      1  0.4690520000000  0.4143210000000  0.5449210000000 1.0
C      1  0.5326770000000  0.4420570000000  0.5616860000000 1.0
C      1  0.5458400000000  0.6133490000000  0.5130690000000 1.0
C      1  0.5731940000000  0.5542290000000  0.4487500000000 1.0
C      1  0.4962260000000  0.4704560000000  0.4261380000000 1.0
C      1  0.4171020000000  0.4910600000000  0.3698850000000 1.0
C      1  0.4414400000000  0.4667160000000  0.4712180000000 1.0
C      1  0.4340170000000  0.4820450000000  0.3881920000000 1.0
C      1  0.5181270000000  0.5081570000000  0.5918130000000 1.0
C      1  0.4503870000000  0.5568410000000  0.4930230000000 1.0
C      1  0.4791620000000  0.5274880000000  0.5213810000000 1.0
C      1  0.4265890000000  0.5179210000000  0.4687710000000 1.0
C      1  0.5637230000000  0.4967230000000  0.4282420000000 1.0
C      1  0.4844940000000  0.5193770000000  0.5477290000000 1.0
C      1  0.4583740000000  0.4536500000000  0.4516490000000 1.0
C      1  0.5681860000000  0.5495080000000  0.5393550000000 1.0
C      1  0.4907690000000  0.5145940000000  0.4991850000000 1.0
C      1  0.4576140000000  0.4021250000000  0.5898580000000 1.0
C      1  0.4680170000000  0.4660230000000  0.4272790000000 1.0
C      1  0.4508510000000  0.4733180000000  0.4066830000000 1.0
C      1  0.5247540000000  0.4105630000000  0.5271740000000 1.0
C      1  0.5374950000000  0.5873540000000  0.5115710000000 1.0
C      1  0.5673440000000  0.5463020000000  0.5109750000000 1.0
C      1  0.4288440000000  0.5647410000000  0.5575550000000 1.0
C      1  0.5008970000000  0.4299050000000  0.4563880000000 1.0
C      1  0.5222630000000  0.4114330000000  0.4567010000000 1.0
C      1  0.5146260000000  0.4324780000000  0.5419430000000 1.0
C      1  0.4535900000000  0.5618630000000  0.5440430000000 1.0
C      1  0.4004640000000  0.4999320000000  0.3518810000000 1.0
C      1  0.5054280000000  0.5889870000000  0.4514040000000 1.0
C      1  0.4737820000000  0.4312820000000  0.4653130000000 1.0
C      1  0.5096780000000  0.4552090000000  0.4472820000000 1.0
END
