TITL C-247201-3759-292 8.57158952789097 125000 -1030.4746257234 0 0 167 (C1) n - 1
REM
REM in /home/nfs/bkarasulu/CARBON/AIRSS/Generating-Clusters/LCBOP/Only-C1/SD-CG/FIRE-HFTN
REM
REM
REM
REM
REM
REM ./C.cell (11c1c37f851c82e70ff6c80c92926a4b)
REM AIRSS Version 0.9.1 bugfix July 2018 build 013d7b7c2542+ Fri, 06 Jul 2018 19:26:36 +0100
REM compiler GCC version 9.2.1 20190827 (Red Hat 9.2.1-1)
REM options -cpp -mtune=generic -march=x86-64 -g -O0 -fpre-include=/usr/include/finclude/math-vector-fortran.h
REM seed -283938022 1797826797 -280535876 2018035678 -1138326593 1387510234 448907746 1211056472 863728760 -100602461 1867632701 105367212 -1223132956 -16933772 -401955768 -1835985554 -417621216 245682217 -451053149 1371707670 -1383391015 -435298583 1710599826 970851569 886565458 -565147079 2106763579 -1994825397 -1968545310 1986171696 -1091486171 304907142 1862965601
REM
CELL 1.54180   50.00000   50.00000   50.00000   90.00000   90.00000   90.00000
LATT -1
SFAC C  
C      1  0.4791420000000  0.3807560000000  0.4680830000000 1.0
C      1  0.4743770000000  0.6389780000000  0.4980070000000 1.0
C      1  0.4541320000000  0.4181770000000  0.4477620000000 1.0
C      1  0.5816700000000  0.5763150000000  0.4375790000000 1.0
C      1  0.5177760000000  0.5381450000000  0.5207840000000 1.0
C      1  0.4259810000000  0.4585220000000  0.5110650000000 1.0
C      1  0.5241730000000  0.4440190000000  0.5608100000000 1.0
C      1  0.4816650000000  0.4645600000000  0.3941520000000 1.0
C      1  0.5683700000000  0.5204190000000  0.6070220000000 1.0
C      1  0.4971210000000  0.5064510000000  0.4040900000000 1.0
C      1  0.4999750000000  0.5898200000000  0.5405500000000 1.0
C      1  0.4003590000000  0.4804640000000  0.4550210000000 1.0
C      1  0.3858860000000  0.4823110000000  0.4798520000000 1.0
C      1  0.3730000000000  0.4469030000000  0.5726750000000 1.0
C      1  0.5449010000000  0.5221590000000  0.5611900000000 1.0
C      1  0.4474040000000  0.5648460000000  0.5886300000000 1.0
C      1  0.5081490000000  0.4013000000000  0.5469280000000 1.0
C      1  0.4914920000000  0.5957200000000  0.5132030000000 1.0
C      1  0.3591740000000  0.4957380000000  0.5600860000000 1.0
C      1  0.5526100000000  0.4991040000000  0.4120530000000 1.0
C      1  0.5979800000000  0.4681620000000  0.4280290000000 1.0
C      1  0.4128160000000  0.4555790000000  0.4471640000000 1.0
C      1  0.5241380000000  0.3831270000000  0.5022820000000 1.0
C      1  0.4533390000000  0.5660020000000  0.4906630000000 1.0
C      1  0.5416830000000  0.5121360000000  0.4358640000000 1.0
C      1  0.5534500000000  0.5359720000000  0.4478780000000 1.0
C      1  0.5411480000000  0.6009620000000  0.6193870000000 1.0
C      1  0.5800850000000  0.5890900000000  0.5932100000000 1.0
C      1  0.5932230000000  0.5327080000000  0.5177800000000 1.0
C      1  0.4770090000000  0.4204660000000  0.4285020000000 1.0
C      1  0.4592190000000  0.4189600000000  0.6169000000000 1.0
C      1  0.5326330000000  0.5346130000000  0.4956880000000 1.0
C      1  0.5359770000000  0.3609960000000  0.5133120000000 1.0
C      1  0.5985760000000  0.5676630000000  0.5518020000000 1.0
C      1  0.5617310000000  0.5244670000000  0.5815540000000 1.0
C      1  0.5317050000000  0.4157340000000  0.5570700000000 1.0
C      1  0.4450920000000  0.4126340000000  0.5248800000000 1.0
C      1  0.4968470000000  0.4399590000000  0.5729340000000 1.0
C      1  0.5977530000000  0.5794550000000  0.5756860000000 1.0
C      1  0.6222000000000  0.4691870000000  0.4873120000000 1.0
C      1  0.5727320000000  0.6001370000000  0.4460310000000 1.0
C      1  0.3644400000000  0.5140420000000  0.5413340000000 1.0
C      1  0.4814960000000  0.5003890000000  0.5084760000000 1.0
C      1  0.5043720000000  0.3880550000000  0.4580750000000 1.0
C      1  0.5684170000000  0.4473810000000  0.5123000000000 1.0
C      1  0.5645390000000  0.4913090000000  0.5105020000000 1.0
C      1  0.5295920000000  0.5839560000000  0.5457950000000 1.0
C      1  0.4687950000000  0.4516940000000  0.4820450000000 1.0
C      1  0.4822970000000  0.5700690000000  0.4991250000000 1.0
C      1  0.5391190000000  0.5478640000000  0.4702120000000 1.0
C      1  0.5236720000000  0.4599580000000  0.5338360000000 1.0
C      1  0.4913670000000  0.5490000000000  0.5193550000000 1.0
C      1  0.4981280000000  0.4814550000000  0.6006360000000 1.0
C      1  0.5408900000000  0.4427860000000  0.5139080000000 1.0
C      1  0.5108330000000  0.5021770000000  0.4731610000000 1.0
C      1  0.5071680000000  0.4002060000000  0.5183360000000 1.0
C      1  0.5475120000000  0.6060380000000  0.4568470000000 1.0
C      1  0.4457380000000  0.4650300000000  0.4915540000000 1.0
C      1  0.5521670000000  0.4032920000000  0.4633510000000 1.0
C      1  0.3960150000000  0.5296890000000  0.4560570000000 1.0
C      1  0.4559320000000  0.5325500000000  0.5545020000000 1.0
C      1  0.4805220000000  0.5465130000000  0.6167560000000 1.0
C      1  0.4845280000000  0.4148220000000  0.5596920000000 1.0
C      1  0.6047460000000  0.4681980000000  0.5422880000000 1.0
C      1  0.5728760000000  0.5504020000000  0.4319870000000 1.0
C      1  0.4736970000000  0.4413360000000  0.6149280000000 1.0
C      1  0.4438540000000  0.5044250000000  0.4047420000000 1.0
C      1  0.4308820000000  0.4352180000000  0.4454900000000 1.0
C      1  0.5450650000000  0.4234830000000  0.4430940000000 1.0
C      1  0.4379120000000  0.4046240000000  0.5730160000000 1.0
C      1  0.5906140000000  0.4584870000000  0.4529740000000 1.0
C      1  0.5366450000000  0.4945390000000  0.6347040000000 1.0
C      1  0.6222490000000  0.4985300000000  0.4906860000000 1.0
C      1  0.4763040000000  0.5255200000000  0.5971390000000 1.0
C      1  0.5654160000000  0.4632030000000  0.4653890000000 1.0
C      1  0.5285610000000  0.5069630000000  0.4923410000000 1.0
C      1  0.3914690000000  0.5410900000000  0.5077110000000 1.0
C      1  0.4534030000000  0.5363370000000  0.5820080000000 1.0
C      1  0.5523870000000  0.5927960000000  0.5959200000000 1.0
C      1  0.4499980000000  0.4019210000000  0.4988870000000 1.0
C      1  0.4979430000000  0.5046950000000  0.5559280000000 1.0
C      1  0.5815630000000  0.5366590000000  0.4087440000000 1.0
C      1  0.6153620000000  0.5119800000000  0.5166370000000 1.0
C      1  0.5255990000000  0.4162260000000  0.4237600000000 1.0
C      1  0.5237880000000  0.5140830000000  0.5421780000000 1.0
C      1  0.5830460000000  0.5575980000000  0.5307850000000 1.0
C      1  0.4466000000000  0.5790160000000  0.5627000000000 1.0
C      1  0.4461470000000  0.5762710000000  0.4648280000000 1.0
C      1  0.3796330000000  0.5166610000000  0.5179300000000 1.0
C      1  0.5167120000000  0.4515430000000  0.4684670000000 1.0
C      1  0.5145830000000  0.4852090000000  0.6231000000000 1.0
C      1  0.5216720000000  0.4369640000000  0.4925290000000 1.0
C      1  0.4105850000000  0.4102770000000  0.5696370000000 1.0
C      1  0.4964990000000  0.5676380000000  0.4739150000000 1.0
C      1  0.5060360000000  0.4819180000000  0.3909080000000 1.0
C      1  0.5441900000000  0.6120310000000  0.4847350000000 1.0
C      1  0.4887040000000  0.4550450000000  0.5955400000000 1.0
C      1  0.4942240000000  0.4494150000000  0.5245890000000 1.0
C      1  0.4567900000000  0.4798410000000  0.3959650000000 1.0
C      1  0.4519660000000  0.5340580000000  0.4450820000000 1.0
C      1  0.4580800000000  0.3998580000000  0.4714750000000 1.0
C      1  0.6172800000000  0.5099210000000  0.4397870000000 1.0
C      1  0.4511090000000  0.5076050000000  0.5431580000000 1.0
C      1  0.5172480000000  0.5036540000000  0.4464590000000 1.0
C      1  0.4826770000000  0.5878510000000  0.4158180000000 1.0
C      1  0.4773800000000  0.4988510000000  0.5362630000000 1.0
C      1  0.4777490000000  0.4793890000000  0.4446110000000 1.0
C      1  0.4376330000000  0.5152350000000  0.4982220000000 1.0
C      1  0.4537120000000  0.6545130000000  0.4947300000000 1.0
C      1  0.4890250000000  0.4593660000000  0.4629870000000 1.0
C      1  0.4449570000000  0.5287640000000  0.3897630000000 1.0
C      1  0.4569860000000  0.4087250000000  0.5516270000000 1.0
C      1  0.4432270000000  0.4914870000000  0.4795910000000 1.0
C      1  0.4376410000000  0.5092270000000  0.4341370000000 1.0
C      1  0.4751360000000  0.5500650000000  0.5424080000000 1.0
C      1  0.4126400000000  0.4818010000000  0.5201510000000 1.0
C      1  0.5420430000000  0.4501330000000  0.4544020000000 1.0
C      1  0.4949730000000  0.4978000000000  0.4309210000000 1.0
C      1  0.4252330000000  0.5708580000000  0.5424410000000 1.0
C      1  0.6151950000000  0.4928760000000  0.5382390000000 1.0
C      1  0.5533530000000  0.5777370000000  0.5270980000000 1.0
C      1  0.5586100000000  0.5085950000000  0.6289060000000 1.0
C      1  0.5552230000000  0.5950150000000  0.5045590000000 1.0
C      1  0.5368790000000  0.5874200000000  0.5731640000000 1.0
C      1  0.5284500000000  0.3892020000000  0.4743230000000 1.0
C      1  0.3896860000000  0.5427960000000  0.4789030000000 1.0
C      1  0.4599030000000  0.5709720000000  0.4155660000000 1.0
C      1  0.4262770000000  0.4338360000000  0.5235730000000 1.0
C      1  0.4953720000000  0.6209920000000  0.5011310000000 1.0
C      1  0.5065460000000  0.5955180000000  0.4258170000000 1.0
C      1  0.4085790000000  0.5067340000000  0.4442640000000 1.0
C      1  0.4710460000000  0.5270050000000  0.4654280000000 1.0
C      1  0.5324420000000  0.4898720000000  0.5244230000000 1.0
C      1  0.4313250000000  0.5028090000000  0.5242070000000 1.0
C      1  0.5118790000000  0.5503930000000  0.3782950000000 1.0
C      1  0.4373880000000  0.5447600000000  0.5014720000000 1.0
C      1  0.4867010000000  0.4385880000000  0.4054260000000 1.0
C      1  0.4495850000000  0.5619730000000  0.4406310000000 1.0
C      1  0.5148220000000  0.4303210000000  0.4015330000000 1.0
C      1  0.5014910000000  0.5312400000000  0.3926340000000 1.0
C      1  0.5002280000000  0.4260130000000  0.5076550000000 1.0
C      1  0.6091840000000  0.4478960000000  0.4723510000000 1.0
C      1  0.5688650000000  0.4694750000000  0.4933940000000 1.0
C      1  0.6010970000000  0.4952290000000  0.4214930000000 1.0
C      1  0.5723750000000  0.5172610000000  0.5067290000000 1.0
C      1  0.4749870000000  0.5775880000000  0.5526560000000 1.0
C      1  0.5797350000000  0.5082920000000  0.4077680000000 1.0
C      1  0.6013190000000  0.4206990000000  0.4780570000000 1.0
C      1  0.4471530000000  0.4026150000000  0.5995000000000 1.0
C      1  0.4916510000000  0.5043750000000  0.5846250000000 1.0
C      1  0.3891430000000  0.4914790000000  0.5066500000000 1.0
C      1  0.5209730000000  0.5679350000000  0.4618460000000 1.0
C      1  0.5017290000000  0.4048500000000  0.4356450000000 1.0
C      1  0.5213720000000  0.6267630000000  0.4921410000000 1.0
C      1  0.5789460000000  0.4053740000000  0.4736890000000 1.0
C      1  0.6233110000000  0.5124330000000  0.4659220000000 1.0
C      1  0.3627790000000  0.4713470000000  0.5701880000000 1.0
C      1  0.5882000000000  0.4491880000000  0.5323940000000 1.0
C      1  0.4515930000000  0.4891640000000  0.4517820000000 1.0
C      1  0.4854110000000  0.5095680000000  0.4822210000000 1.0
C      1  0.4713410000000  0.4570480000000  0.5363020000000 1.0
C      1  0.4516400000000  0.5547410000000  0.3936910000000 1.0
C      1  0.5350700000000  0.4828210000000  0.3953310000000 1.0
C      1  0.4157840000000  0.5540980000000  0.5196790000000 1.0
C      1  0.5259540000000  0.5907290000000  0.4457790000000 1.0
C      1  0.4638590000000  0.5684660000000  0.6122580000000 1.0
C      1  0.3888700000000  0.4256060000000  0.5711290000000 1.0
END
