TITL C-247202-1916-661 2.31170110866812e-06 125000 -755.116765588948 0 0 123 (C1) n - 1
REM
REM in /home/nfs/bkarasulu/CARBON/AIRSS/Generating-Clusters/LCBOP/Only-C1/SD-CG/FIRE-HFTN
REM
REM
REM
REM
REM
REM ./C.cell (11c1c37f851c82e70ff6c80c92926a4b)
REM AIRSS Version 0.9.1 bugfix July 2018 build 013d7b7c2542+ Fri, 06 Jul 2018 19:26:36 +0100
REM compiler GCC version 9.2.1 20190827 (Red Hat 9.2.1-1)
REM options -cpp -mtune=generic -march=x86-64 -g -O0 -fpre-include=/usr/include/finclude/math-vector-fortran.h
REM seed 1176635481 -841620053 -1211129297 -910317044 610289000 -1086435324 -961093060 759437509 1098674873 -1567597014 -968010802 1339211660 2133744602 -1655043166 -556655117 -1984445182 1926758197 -805033331 16040004 990994432 836079234 1595903710 -947095290 1152622809 887351243 -2093981159 -762056181 553036497 -980439307 -1671174151 -2077975554 1461605640 311133078
REM
CELL 1.54180   50.00000   50.00000   50.00000   90.00000   90.00000   90.00000
LATT -1
SFAC C  
C      1  0.4678500000000  0.4822760000000  0.5201590000000 1.0
C      1  0.5271590000000  0.4359540000000  0.5443830000000 1.0
C      1  0.5677850000000  0.4884230000000  0.5107090000000 1.0
C      1  0.5722540000000  0.5145230000000  0.4320660000000 1.0
C      1  0.5066680000000  0.4009960000000  0.5239220000000 1.0
C      1  0.4401270000000  0.4544510000000  0.6243600000000 1.0
C      1  0.5297150000000  0.5209210000000  0.6025780000000 1.0
C      1  0.5802000000000  0.4627860000000  0.5158440000000 1.0
C      1  0.5087280000000  0.5094540000000  0.6153900000000 1.0
C      1  0.5019360000000  0.5091950000000  0.5461540000000 1.0
C      1  0.5482900000000  0.4787950000000  0.4428050000000 1.0
C      1  0.4982860000000  0.6506880000000  0.5129590000000 1.0
C      1  0.5383680000000  0.5166460000000  0.5758600000000 1.0
C      1  0.3903010000000  0.5632980000000  0.5200560000000 1.0
C      1  0.5637780000000  0.5482670000000  0.5378160000000 1.0
C      1  0.4743520000000  0.5028740000000  0.5389100000000 1.0
C      1  0.4300870000000  0.4477840000000  0.6479530000000 1.0
C      1  0.4267700000000  0.4434100000000  0.4279100000000 1.0
C      1  0.5196650000000  0.5622280000000  0.4269290000000 1.0
C      1  0.4197100000000  0.5232640000000  0.5095120000000 1.0
C      1  0.5094490000000  0.4229780000000  0.4782740000000 1.0
C      1  0.5564210000000  0.5316920000000  0.5600060000000 1.0
C      1  0.4610970000000  0.5404630000000  0.4997660000000 1.0
C      1  0.5979550000000  0.4303440000000  0.4533560000000 1.0
C      1  0.5483030000000  0.4308800000000  0.5047020000000 1.0
C      1  0.4248760000000  0.4400910000000  0.4546020000000 1.0
C      1  0.5826140000000  0.4493380000000  0.4669880000000 1.0
C      1  0.4537300000000  0.5649370000000  0.4452660000000 1.0
C      1  0.4585590000000  0.3962640000000  0.5038650000000 1.0
C      1  0.4997500000000  0.5819410000000  0.4291940000000 1.0
C      1  0.3962110000000  0.5377790000000  0.5136160000000 1.0
C      1  0.4583120000000  0.5266330000000  0.5433910000000 1.0
C      1  0.5120840000000  0.4552960000000  0.5273490000000 1.0
C      1  0.4636430000000  0.5213150000000  0.4248360000000 1.0
C      1  0.4663120000000  0.4893300000000  0.3789170000000 1.0
C      1  0.5478980000000  0.4624600000000  0.5851190000000 1.0
C      1  0.4504250000000  0.4793000000000  0.4000690000000 1.0
C      1  0.5024230000000  0.4778390000000  0.4750740000000 1.0
C      1  0.4213510000000  0.4568720000000  0.5540920000000 1.0
C      1  0.5122900000000  0.4515110000000  0.4798110000000 1.0
C      1  0.4681590000000  0.5745910000000  0.5542890000000 1.0
C      1  0.5698490000000  0.4617220000000  0.5670350000000 1.0
C      1  0.5834310000000  0.5112010000000  0.5154670000000 1.0
C      1  0.5701480000000  0.5957520000000  0.5473150000000 1.0
C      1  0.4763540000000  0.5480460000000  0.5523970000000 1.0
C      1  0.4790300000000  0.4683480000000  0.5988620000000 1.0
C      1  0.4704210000000  0.4401990000000  0.5446480000000 1.0
C      1  0.5026680000000  0.5388290000000  0.5434850000000 1.0
C      1  0.6118540000000  0.4123080000000  0.4398160000000 1.0
C      1  0.4208710000000  0.5919940000000  0.4742740000000 1.0
C      1  0.5407650000000  0.4856870000000  0.5018790000000 1.0
C      1  0.4496360000000  0.5362320000000  0.4454050000000 1.0
C      1  0.5313410000000  0.5276170000000  0.4551580000000 1.0
C      1  0.4051260000000  0.5868530000000  0.5239630000000 1.0
C      1  0.4310580000000  0.4372550000000  0.4821750000000 1.0
C      1  0.5912270000000  0.4984030000000  0.4474820000000 1.0
C      1  0.5218440000000  0.4704510000000  0.5753200000000 1.0
C      1  0.4221920000000  0.5963240000000  0.5024130000000 1.0
C      1  0.5185750000000  0.4982150000000  0.4882000000000 1.0
C      1  0.5178070000000  0.5249590000000  0.4800470000000 1.0
C      1  0.5513460000000  0.4555620000000  0.6113860000000 1.0
C      1  0.3998240000000  0.5970400000000  0.4579940000000 1.0
C      1  0.5375660000000  0.5548740000000  0.4485140000000 1.0
C      1  0.5452890000000  0.5077770000000  0.4403080000000 1.0
C      1  0.4501080000000  0.5905610000000  0.5402750000000 1.0
C      1  0.5024380000000  0.4251880000000  0.4115310000000 1.0
C      1  0.4446260000000  0.4826280000000  0.5006870000000 1.0
C      1  0.4828890000000  0.4583480000000  0.5264260000000 1.0
C      1  0.5211060000000  0.4969610000000  0.5629930000000 1.0
C      1  0.5730510000000  0.5377350000000  0.5127980000000 1.0
C      1  0.5253950000000  0.5339070000000  0.3839200000000 1.0
C      1  0.4731860000000  0.5774950000000  0.4291150000000 1.0
C      1  0.4290980000000  0.4581030000000  0.5019010000000 1.0
C      1  0.6077440000000  0.5149410000000  0.4630990000000 1.0
C      1  0.4202510000000  0.4412520000000  0.6711960000000 1.0
C      1  0.5303040000000  0.4573780000000  0.5034200000000 1.0
C      1  0.4355530000000  0.4557890000000  0.4054240000000 1.0
C      1  0.5084580000000  0.6272070000000  0.5179290000000 1.0
C      1  0.4219650000000  0.5904150000000  0.5473280000000 1.0
C      1  0.5103580000000  0.5162620000000  0.3689100000000 1.0
C      1  0.5288230000000  0.5778810000000  0.5277270000000 1.0
C      1  0.5744590000000  0.4436580000000  0.4937460000000 1.0
C      1  0.5549710000000  0.5751450000000  0.5380720000000 1.0
C      1  0.4180080000000  0.4534780000000  0.5276590000000 1.0
C      1  0.4587020000000  0.4799170000000  0.4469040000000 1.0
C      1  0.4853810000000  0.5269730000000  0.4069290000000 1.0
C      1  0.4462430000000  0.5813290000000  0.4667450000000 1.0
C      1  0.5348280000000  0.4618920000000  0.4252740000000 1.0
C      1  0.4511010000000  0.5946330000000  0.5114230000000 1.0
C      1  0.5535320000000  0.4310880000000  0.5348910000000 1.0
C      1  0.5068290000000  0.5473830000000  0.4955280000000 1.0
C      1  0.5192560000000  0.4459130000000  0.4108750000000 1.0
C      1  0.5085310000000  0.4150960000000  0.5502950000000 1.0
C      1  0.5153810000000  0.5532970000000  0.5224040000000 1.0
C      1  0.4512360000000  0.4616900000000  0.5996940000000 1.0
C      1  0.5581490000000  0.5625850000000  0.4678290000000 1.0
C      1  0.6006420000000  0.5388810000000  0.4737620000000 1.0
C      1  0.4853800000000  0.5101090000000  0.3817930000000 1.0
C      1  0.5174030000000  0.6027270000000  0.5226790000000 1.0
C      1  0.4658210000000  0.5829910000000  0.4888430000000 1.0
C      1  0.4436700000000  0.5335440000000  0.5205660000000 1.0
C      1  0.4773020000000  0.4802500000000  0.4652260000000 1.0
C      1  0.6254740000000  0.3945770000000  0.4264100000000 1.0
C      1  0.6341460000000  0.5059390000000  0.5335830000000 1.0
C      1  0.4930980000000  0.4095990000000  0.4311970000000 1.0
C      1  0.5736160000000  0.4506860000000  0.5415550000000 1.0
C      1  0.4298290000000  0.5200640000000  0.4614830000000 1.0
C      1  0.5116120000000  0.5418630000000  0.4080940000000 1.0
C      1  0.4418470000000  0.4126950000000  0.4911110000000 1.0
C      1  0.4549610000000  0.4942310000000  0.4236780000000 1.0
C      1  0.4344830000000  0.4616960000000  0.5769370000000 1.0
C      1  0.5241020000000  0.4104930000000  0.5010020000000 1.0
C      1  0.4896410000000  0.4905520000000  0.6131690000000 1.0
C      1  0.5755930000000  0.4735330000000  0.4534160000000 1.0
C      1  0.5769660000000  0.5494940000000  0.4861120000000 1.0
C      1  0.4306310000000  0.5062830000000  0.4881540000000 1.0
C      1  0.4807840000000  0.5584260000000  0.4914070000000 1.0
C      1  0.4814970000000  0.3903650000000  0.5163130000000 1.0
C      1  0.4883630000000  0.4310510000000  0.5652390000000 1.0
C      1  0.4975920000000  0.4544490000000  0.5815800000000 1.0
C      1  0.4048480000000  0.5180290000000  0.4490020000000 1.0
C      1  0.6097650000000  0.5083340000000  0.5247020000000 1.0
C      1  0.4968620000000  0.4092780000000  0.4576370000000 1.0
END
