TITL C-247200-3482-6 826.973707759995 125000 -1178.84394859672 0 0 193 (C1) n - 1
REM
REM in /home/nfs/bkarasulu/CARBON/AIRSS/Generating-Clusters/LCBOP/Only-C1/SD-CG/FIRE-HFTN
REM
REM
REM
REM
REM
REM ./C.cell (11c1c37f851c82e70ff6c80c92926a4b)
REM AIRSS Version 0.9.1 bugfix July 2018 build 013d7b7c2542+ Fri, 06 Jul 2018 19:26:36 +0100
REM compiler GCC version 9.2.1 20190827 (Red Hat 9.2.1-1)
REM options -cpp -mtune=generic -march=x86-64 -g -O0 -fpre-include=/usr/include/finclude/math-vector-fortran.h
REM seed 1575589957 1131854352 1725061272 1641773746 88371167 125719381 -2110754867 -1598052656 -1013420958 -2004541566 1404724514 -997487679 2038298028 998497768 -1233729840 -1043859515 1015607962 652209136 -1019738811 -646458078 745547932 -856959200 1061504018 1358170852 55058679 -2007067169 591676101 1621916857 -215008417 -1401229212 254133693 -705072873 2146977962
REM
CELL 1.54180   50.00000   50.00000   50.00000   90.00000   90.00000   90.00000
LATT -1
SFAC C  
C      1  0.5889980000000  0.4573120000000  0.5058770000000 1.0
C      1  0.4358040000000  0.4912040000000  0.5677220000000 1.0
C      1  0.4693490000000  0.6524510000000  0.5087650000000 1.0
C      1  0.5042700000000  0.3968280000000  0.5919060000000 1.0
C      1  0.5002760000000  0.4805850000000  0.3701770000000 1.0
C      1  0.4101840000000  0.4264700000000  0.5645640000000 1.0
C      1  0.4690930000000  0.4097310000000  0.5156070000000 1.0
C      1  0.5563180000000  0.5395100000000  0.5104990000000 1.0
C      1  0.5614960000000  0.5738870000000  0.4192370000000 1.0
C      1  0.4325010000000  0.5042160000000  0.4774390000000 1.0
C      1  0.4650420000000  0.5532950000000  0.4144540000000 1.0
C      1  0.4918120000000  0.5064450000000  0.5270060000000 1.0
C      1  0.5282140000000  0.4784510000000  0.5428930000000 1.0
C      1  0.4388140000000  0.4724510000000  0.5133990000000 1.0
C      1  0.5457690000000  0.5016090000000  0.4616640000000 1.0
C      1  0.5087100000000  0.5047240000000  0.3571280000000 1.0
C      1  0.5058470000000  0.4275390000000  0.4845840000000 1.0
C      1  0.6307470000000  0.5464020000000  0.5042940000000 1.0
C      1  0.4537480000000  0.5112320000000  0.4606790000000 1.0
C      1  0.5567030000000  0.5768370000000  0.4729450000000 1.0
C      1  0.4809720000000  0.5736640000000  0.4933670000000 1.0
C      1  0.4126350000000  0.4622950000000  0.4248890000000 1.0
C      1  0.5749450000000  0.4736950000000  0.5536980000000 1.0
C      1  0.4473490000000  0.3673230000000  0.5004670000000 1.0
C      1  0.5160820000000  0.4731730000000  0.6368740000000 1.0
C      1  0.5333070000000  0.6259370000000  0.5409050000000 1.0
C      1  0.4078820000000  0.4619900000000  0.4528620000000 1.0
C      1  0.3856620000000  0.5164880000000  0.5316070000000 1.0
C      1  0.5062780000000  0.5216620000000  0.4852410000000 1.0
C      1  0.4728960000000  0.4725890000000  0.5880230000000 1.0
C      1  0.4296020000000  0.4118010000000  0.5760360000000 1.0
C      1  0.5627830000000  0.4715300000000  0.5043010000000 1.0
C      1  0.4345860000000  0.6166750000000  0.5102730000000 1.0
C      1  0.4082130000000  0.5378220000000  0.4554400000000 1.0
C      1  0.4521850000000  0.5009210000000  0.4359950000000 1.0
C      1  0.5315500000000  0.3818400000000  0.4889800000000 1.0
C      1  0.5616760000000  0.5878980000000  0.4453400000000 1.0
C      1  0.5146960000000  0.4767750000000  0.4975480000000 1.0
C      1  0.4744080000000  0.4735710000000  0.4390250000000 1.0
C      1  0.5606490000000  0.4995130000000  0.4046280000000 1.0
C      1  0.5835150000000  0.5189280000000  0.5784310000000 1.0
C      1  0.5450090000000  0.4265610000000  0.4042850000000 1.0
C      1  0.4138200000000  0.4853760000000  0.4674540000000 1.0
C      1  0.5071840000000  0.3817010000000  0.5029660000000 1.0
C      1  0.4158660000000  0.5506010000000  0.5504140000000 1.0
C      1  0.4782370000000  0.3926220000000  0.5863140000000 1.0
C      1  0.4473270000000  0.5620850000000  0.5218430000000 1.0
C      1  0.5672910000000  0.4458100000000  0.5619250000000 1.0
C      1  0.5280090000000  0.5465780000000  0.4510900000000 1.0
C      1  0.5785950000000  0.4910810000000  0.5770440000000 1.0
C      1  0.4944740000000  0.5558870000000  0.5595990000000 1.0
C      1  0.4675100000000  0.5487940000000  0.4852100000000 1.0
C      1  0.4688310000000  0.5347460000000  0.4615630000000 1.0
C      1  0.4628600000000  0.4480880000000  0.4487920000000 1.0
C      1  0.4042400000000  0.4376250000000  0.4671210000000 1.0
C      1  0.6012090000000  0.5819640000000  0.5344680000000 1.0
C      1  0.5083390000000  0.5722170000000  0.4864020000000 1.0
C      1  0.5777520000000  0.5966470000000  0.5294680000000 1.0
C      1  0.5184950000000  0.5517080000000  0.6033310000000 1.0
C      1  0.4984300000000  0.5648170000000  0.5865080000000 1.0
C      1  0.3923350000000  0.5352730000000  0.5514910000000 1.0
C      1  0.4491400000000  0.4703710000000  0.3875130000000 1.0
C      1  0.4649650000000  0.4363010000000  0.5240960000000 1.0
C      1  0.6006020000000  0.5170220000000  0.4413870000000 1.0
C      1  0.4406770000000  0.5171020000000  0.5803220000000 1.0
C      1  0.4944460000000  0.4430260000000  0.5632160000000 1.0
C      1  0.4481760000000  0.6050490000000  0.5339730000000 1.0
C      1  0.5629020000000  0.5148510000000  0.5232570000000 1.0
C      1  0.5362130000000  0.4592580000000  0.5010210000000 1.0
C      1  0.4569080000000  0.6175960000000  0.4567170000000 1.0
C      1  0.3969650000000  0.4398290000000  0.5452440000000 1.0
C      1  0.4733620000000  0.4768530000000  0.3780710000000 1.0
C      1  0.5640980000000  0.5273460000000  0.4107600000000 1.0
C      1  0.6830460000000  0.5593490000000  0.5087730000000 1.0
C      1  0.5034460000000  0.4712030000000  0.4485110000000 1.0
C      1  0.5074980000000  0.4431810000000  0.4588660000000 1.0
C      1  0.4363510000000  0.5986750000000  0.4615960000000 1.0
C      1  0.4295650000000  0.5177530000000  0.5025610000000 1.0
C      1  0.4039620000000  0.4063430000000  0.5016330000000 1.0
C      1  0.5059410000000  0.5056140000000  0.5746070000000 1.0
C      1  0.5322860000000  0.5875550000000  0.4853450000000 1.0
C      1  0.4246600000000  0.5980520000000  0.4888840000000 1.0
C      1  0.4725950000000  0.5662280000000  0.6001240000000 1.0
C      1  0.5676470000000  0.4121980000000  0.5202020000000 1.0
C      1  0.4875060000000  0.4485600000000  0.5913030000000 1.0
C      1  0.3973100000000  0.4521090000000  0.5193880000000 1.0
C      1  0.6229400000000  0.4975500000000  0.5021510000000 1.0
C      1  0.4277940000000  0.4651960000000  0.4029220000000 1.0
C      1  0.5567150000000  0.3962130000000  0.4965150000000 1.0
C      1  0.4918710000000  0.4059360000000  0.4990000000000 1.0
C      1  0.5198610000000  0.5003520000000  0.6273570000000 1.0
C      1  0.4714490000000  0.4258050000000  0.6369710000000 1.0
C      1  0.4999820000000  0.3808200000000  0.4466070000000 1.0
C      1  0.4524940000000  0.3988060000000  0.5814900000000 1.0
C      1  0.4816660000000  0.4343520000000  0.6145130000000 1.0
C      1  0.4680320000000  0.5847340000000  0.5201070000000 1.0
C      1  0.5106660000000  0.4249800000000  0.4371100000000 1.0
C      1  0.4933870000000  0.5983060000000  0.5306280000000 1.0
C      1  0.5569970000000  0.4506860000000  0.5901250000000 1.0
C      1  0.4629300000000  0.4204820000000  0.4383440000000 1.0
C      1  0.5370430000000  0.4171140000000  0.4293480000000 1.0
C      1  0.5205960000000  0.5685280000000  0.4355770000000 1.0
C      1  0.5752960000000  0.5297180000000  0.4372970000000 1.0
C      1  0.6168660000000  0.5239310000000  0.4628300000000 1.0
C      1  0.4322310000000  0.5800330000000  0.4398720000000 1.0
C      1  0.5534990000000  0.5311390000000  0.4579320000000 1.0
C      1  0.5609560000000  0.4787880000000  0.5974320000000 1.0
C      1  0.3977480000000  0.4345160000000  0.4961450000000 1.0
C      1  0.4932440000000  0.6445760000000  0.5181740000000 1.0
C      1  0.4716450000000  0.5251810000000  0.5295070000000 1.0
C      1  0.5368830000000  0.6438950000000  0.5613350000000 1.0
C      1  0.5109540000000  0.5811370000000  0.4140990000000 1.0
C      1  0.5943840000000  0.4067730000000  0.4631680000000 1.0
C      1  0.4382620000000  0.5563960000000  0.4239080000000 1.0
C      1  0.4476940000000  0.3908950000000  0.5171640000000 1.0
C      1  0.5603750000000  0.4199400000000  0.5484950000000 1.0
C      1  0.4192980000000  0.5651790000000  0.5253190000000 1.0
C      1  0.4549930000000  0.5853940000000  0.5861360000000 1.0
C      1  0.6578510000000  0.5530660000000  0.5065710000000 1.0
C      1  0.5377670000000  0.5542900000000  0.5261440000000 1.0
C      1  0.5403990000000  0.5396920000000  0.5893490000000 1.0
C      1  0.4214010000000  0.3997700000000  0.5228730000000 1.0
C      1  0.4445440000000  0.6426390000000  0.5045190000000 1.0
C      1  0.4368620000000  0.4092920000000  0.4391490000000 1.0
C      1  0.4693070000000  0.5421350000000  0.5527180000000 1.0
C      1  0.4107640000000  0.3918350000000  0.4769760000000 1.0
C      1  0.5132290000000  0.5461200000000  0.4753310000000 1.0
C      1  0.5015110000000  0.5004110000000  0.5016190000000 1.0
C      1  0.4479490000000  0.5999020000000  0.5632730000000 1.0
C      1  0.5375050000000  0.4880110000000  0.4164030000000 1.0
C      1  0.5056130000000  0.5652980000000  0.3915300000000 1.0
C      1  0.5445760000000  0.4041000000000  0.5662380000000 1.0
C      1  0.5629000000000  0.4885410000000  0.4797870000000 1.0
C      1  0.5230120000000  0.5252660000000  0.3701960000000 1.0
C      1  0.6119530000000  0.4734430000000  0.5050470000000 1.0
C      1  0.5253730000000  0.4490920000000  0.6266510000000 1.0
C      1  0.4689210000000  0.3499310000000  0.5038010000000 1.0
C      1  0.5164710000000  0.5569690000000  0.5419720000000 1.0
C      1  0.5038250000000  0.5319860000000  0.6221100000000 1.0
C      1  0.5292300000000  0.4331550000000  0.4993760000000 1.0
C      1  0.5541660000000  0.6154150000000  0.4433530000000 1.0
C      1  0.4650180000000  0.5559180000000  0.3656270000000 1.0
C      1  0.4077130000000  0.5051790000000  0.5179690000000 1.0
C      1  0.5304530000000  0.5131340000000  0.5858880000000 1.0
C      1  0.5283290000000  0.5486880000000  0.3851020000000 1.0
C      1  0.6144740000000  0.5860140000000  0.5581430000000 1.0
C      1  0.4804060000000  0.6289370000000  0.4513510000000 1.0
C      1  0.5553200000000  0.6108240000000  0.5320420000000 1.0
C      1  0.5477640000000  0.3987140000000  0.4482940000000 1.0
C      1  0.4870950000000  0.3570430000000  0.4422890000000 1.0
C      1  0.4409270000000  0.5403200000000  0.5631270000000 1.0
C      1  0.5400670000000  0.4960360000000  0.6062780000000 1.0
C      1  0.5324360000000  0.6310310000000  0.4444550000000 1.0
C      1  0.5026580000000  0.5078530000000  0.3305170000000 1.0
C      1  0.4264310000000  0.5317150000000  0.4338570000000 1.0
C      1  0.4116220000000  0.4768250000000  0.5182470000000 1.0
C      1  0.3598430000000  0.5101420000000  0.5256100000000 1.0
C      1  0.4575190000000  0.4489780000000  0.4765980000000 1.0
C      1  0.4106780000000  0.5734210000000  0.4979620000000 1.0
C      1  0.5621330000000  0.5484960000000  0.4827880000000 1.0
C      1  0.4888140000000  0.4063260000000  0.4370960000000 1.0
C      1  0.4535900000000  0.5363160000000  0.5085530000000 1.0
C      1  0.5273950000000  0.4875720000000  0.4431710000000 1.0
C      1  0.4686840000000  0.4483150000000  0.5493590000000 1.0
C      1  0.4146780000000  0.4119180000000  0.4566090000000 1.0
C      1  0.5856980000000  0.4857930000000  0.4063910000000 1.0
C      1  0.4629570000000  0.5173580000000  0.5988430000000 1.0
C      1  0.5680220000000  0.5407130000000  0.5839730000000 1.0
C      1  0.5188790000000  0.4596560000000  0.3736150000000 1.0
C      1  0.5181280000000  0.4527460000000  0.5508790000000 1.0
C      1  0.5373290000000  0.4349250000000  0.6041260000000 1.0
C      1  0.5681700000000  0.4020820000000  0.4688570000000 1.0
C      1  0.4034480000000  0.5542420000000  0.4771370000000 1.0
C      1  0.5885140000000  0.4299490000000  0.5113800000000 1.0
C      1  0.4794440000000  0.5434690000000  0.4369390000000 1.0
C      1  0.4780030000000  0.5578680000000  0.3895260000000 1.0
C      1  0.6237840000000  0.5228340000000  0.4899770000000 1.0
C      1  0.5084810000000  0.4983610000000  0.5477760000000 1.0
C      1  0.4828960000000  0.4985580000000  0.5903050000000 1.0
C      1  0.4739950000000  0.5390930000000  0.6144030000000 1.0
C      1  0.5356020000000  0.4418030000000  0.3843380000000 1.0
C      1  0.5577620000000  0.4858920000000  0.5313870000000 1.0
C      1  0.6116610000000  0.5632880000000  0.5161880000000 1.0
C      1  0.5525840000000  0.5516930000000  0.4017260000000 1.0
C      1  0.4557300000000  0.4533170000000  0.5038510000000 1.0
C      1  0.5291110000000  0.4104280000000  0.5897430000000 1.0
C      1  0.4942800000000  0.3574590000000  0.5087150000000 1.0
C      1  0.4541420000000  0.4692580000000  0.5655430000000 1.0
C      1  0.5061640000000  0.6345730000000  0.4474910000000 1.0
C      1  0.5073400000000  0.6228980000000  0.5296470000000 1.0
C      1  0.5265480000000  0.3819230000000  0.4596960000000 1.0
C      1  0.6046760000000  0.4946950000000  0.4240120000000 1.0
C      1  0.4270840000000  0.3688280000000  0.4806070000000 1.0
END
