TITL C-247198-3593-197 0.0523423978815463 125000 -206.609919589862 0 0 36 (C1) n - 1
REM
REM in /home/nfs/bkarasulu/CARBON/AIRSS/Generating-Clusters/LCBOP/Only-C1/SD-CG/FIRE-HFTN
REM
REM
REM
REM
REM
REM ./C.cell (11c1c37f851c82e70ff6c80c92926a4b)
REM AIRSS Version 0.9.1 bugfix July 2018 build 013d7b7c2542+ Fri, 06 Jul 2018 19:26:36 +0100
REM compiler GCC version 9.2.1 20190827 (Red Hat 9.2.1-1)
REM options -cpp -mtune=generic -march=x86-64 -g -O0 -fpre-include=/usr/include/finclude/math-vector-fortran.h
REM seed -1147995083 -19705256 -1270404667 474190811 -1120412965 760366961 404043432 -28160344 381988556 1247265123 -145015659 73770910 -292260410 18762570 1258140393 504783956 1185709238 1604956998 224848598 -1910616436 -2060094609 -1056949419 -565095763 -539288096 394122766 -1926231517 -685337862 251509161 532582783 1837353203 -921165262 -1081202911 -721533012
REM
CELL 1.54180   50.00000   50.00000   50.00000   90.00000   90.00000   90.00000
LATT -1
SFAC C  
C      1  0.5473860000000  0.5055880000000  0.4655580000000 1.0
C      1  0.4272280000000  0.4956880000000  0.6293940000000 1.0
C      1  0.5553690000000  0.4913440000000  0.5176130000000 1.0
C      1  0.4718720000000  0.5126600000000  0.5725140000000 1.0
C      1  0.4966450000000  0.4538170000000  0.5327780000000 1.0
C      1  0.4939780000000  0.4801540000000  0.5413560000000 1.0
C      1  0.5337520000000  0.5390680000000  0.4005920000000 1.0
C      1  0.5204010000000  0.4274350000000  0.4584350000000 1.0
C      1  0.4748330000000  0.4779470000000  0.4326860000000 1.0
C      1  0.5282530000000  0.4966130000000  0.5101300000000 1.0
C      1  0.4592730000000  0.5527150000000  0.5936870000000 1.0
C      1  0.5194190000000  0.5683130000000  0.5032230000000 1.0
C      1  0.4766740000000  0.5583150000000  0.5713340000000 1.0
C      1  0.4773000000000  0.4870610000000  0.5630070000000 1.0
C      1  0.5102860000000  0.5499820000000  0.5193400000000 1.0
C      1  0.5241120000000  0.4964160000000  0.4819140000000 1.0
C      1  0.4513220000000  0.4691860000000  0.4242040000000 1.0
C      1  0.5507000000000  0.5365360000000  0.4224480000000 1.0
C      1  0.5297490000000  0.4528370000000  0.4615510000000 1.0
C      1  0.5748690000000  0.4860680000000  0.4991490000000 1.0
C      1  0.4848740000000  0.5344170000000  0.5577190000000 1.0
C      1  0.4480460000000  0.5706880000000  0.6105790000000 1.0
C      1  0.5671840000000  0.4848810000000  0.4716540000000 1.0
C      1  0.4564630000000  0.5237190000000  0.5940790000000 1.0
C      1  0.5403380000000  0.5167390000000  0.4408190000000 1.0
C      1  0.5124790000000  0.4759060000000  0.4647500000000 1.0
C      1  0.4999310000000  0.4292090000000  0.5248580000000 1.0
C      1  0.4278230000000  0.4603560000000  0.4156960000000 1.0
C      1  0.4414030000000  0.5092860000000  0.6122690000000 1.0
C      1  0.5077980000000  0.5018650000000  0.5287400000000 1.0
C      1  0.5122810000000  0.5216770000000  0.4034860000000 1.0
C      1  0.5147450000000  0.5067530000000  0.4282340000000 1.0
C      1  0.5577160000000  0.4594680000000  0.4621420000000 1.0
C      1  0.5010520000000  0.5290200000000  0.5353410000000 1.0
C      1  0.4047110000000  0.4516700000000  0.4073270000000 1.0
C      1  0.4997350000000  0.4866030000000  0.4413920000000 1.0
END
