TITL C-247202-1916-509 59112.8497474095 125000 -570.270772730292 0 0 95 (C1) n - 1
REM
REM in /home/nfs/bkarasulu/CARBON/AIRSS/Generating-Clusters/LCBOP/Only-C1/SD-CG/FIRE-HFTN
REM
REM
REM
REM
REM
REM ./C.cell (11c1c37f851c82e70ff6c80c92926a4b)
REM AIRSS Version 0.9.1 bugfix July 2018 build 013d7b7c2542+ Fri, 06 Jul 2018 19:26:36 +0100
REM compiler GCC version 9.2.1 20190827 (Red Hat 9.2.1-1)
REM options -cpp -mtune=generic -march=x86-64 -g -O0 -fpre-include=/usr/include/finclude/math-vector-fortran.h
REM seed -392511378 622432691 -1464790121 1663570928 1697304055 -1410436846 -844268094 -917017295 -1720296943 1530974891 -1988404066 -1604042598 -1231977398 643347415 -101318048 182402437 1324063032 2052640506 -758536970 -956689638 -328334327 -1878282311 -274386300 1966987862 1340569126 103489997 -739385119 497428321 964005666 737257946 -1107103851 1229333794 1473385594
REM
CELL 1.54180   50.00000   50.00000   50.00000   90.00000   90.00000   90.00000
LATT -1
SFAC C  
C      1  0.5378560000000  0.5568250000000  0.5525800000000 1.0
C      1  0.5093170000000  0.4983930000000  0.3602630000000 1.0
C      1  0.5370040000000  0.4435980000000  0.5442420000000 1.0
C      1  0.5515320000000  0.4692270000000  0.5479250000000 1.0
C      1  0.4408200000000  0.5879000000000  0.4866860000000 1.0
C      1  0.6274050000000  0.4178310000000  0.4423920000000 1.0
C      1  0.4716040000000  0.5886810000000  0.5402410000000 1.0
C      1  0.5768110000000  0.5083160000000  0.5248960000000 1.0
C      1  0.4621730000000  0.4809330000000  0.5528220000000 1.0
C      1  0.4510390000000  0.4935090000000  0.5092220000000 1.0
C      1  0.4418940000000  0.4190020000000  0.4699020000000 1.0
C      1  0.5099750000000  0.5334500000000  0.4787720000000 1.0
C      1  0.4910760000000  0.4278400000000  0.5650680000000 1.0
C      1  0.5225410000000  0.5824460000000  0.4408840000000 1.0
C      1  0.5986200000000  0.4214060000000  0.4434160000000 1.0
C      1  0.3884040000000  0.5030370000000  0.5014000000000 1.0
C      1  0.5148320000000  0.5246530000000  0.3573910000000 1.0
C      1  0.4398920000000  0.5620080000000  0.5628720000000 1.0
C      1  0.3940830000000  0.4831640000000  0.4841560000000 1.0
C      1  0.4407080000000  0.4870150000000  0.5350210000000 1.0
C      1  0.4308840000000  0.3821200000000  0.4314100000000 1.0
C      1  0.4935220000000  0.5812290000000  0.5564490000000 1.0
C      1  0.5019760000000  0.5522170000000  0.4958920000000 1.0
C      1  0.5150910000000  0.5714540000000  0.5420830000000 1.0
C      1  0.5762830000000  0.4624060000000  0.4568710000000 1.0
C      1  0.4913840000000  0.5301490000000  0.6076140000000 1.0
C      1  0.4360240000000  0.4004030000000  0.4498840000000 1.0
C      1  0.6115190000000  0.3936220000000  0.4055410000000 1.0
C      1  0.5073520000000  0.5471340000000  0.5903370000000 1.0
C      1  0.5510860000000  0.5100850000000  0.4638660000000 1.0
C      1  0.5175040000000  0.5440940000000  0.3759080000000 1.0
C      1  0.5643780000000  0.4859690000000  0.4589230000000 1.0
C      1  0.5895560000000  0.4060710000000  0.4202210000000 1.0
C      1  0.5363410000000  0.4857660000000  0.5672150000000 1.0
C      1  0.4133280000000  0.4907220000000  0.5393950000000 1.0
C      1  0.5049980000000  0.4699460000000  0.4575120000000 1.0
C      1  0.4057660000000  0.5378540000000  0.5348220000000 1.0
C      1  0.5393820000000  0.5125750000000  0.5749030000000 1.0
C      1  0.4659230000000  0.4378440000000  0.5568060000000 1.0
C      1  0.4902750000000  0.5240290000000  0.5354720000000 1.0
C      1  0.4077490000000  0.4616050000000  0.4760770000000 1.0
C      1  0.5644460000000  0.5338690000000  0.4578080000000 1.0
C      1  0.5698650000000  0.4834260000000  0.5321250000000 1.0
C      1  0.4876930000000  0.5671180000000  0.5804670000000 1.0
C      1  0.4662390000000  0.5948970000000  0.4800480000000 1.0
C      1  0.5813990000000  0.5519260000000  0.4496820000000 1.0
C      1  0.4061180000000  0.5595630000000  0.5157130000000 1.0
C      1  0.4232140000000  0.5388160000000  0.5583890000000 1.0
C      1  0.5049390000000  0.4838180000000  0.3825460000000 1.0
C      1  0.5656330000000  0.6064640000000  0.4790670000000 1.0
C      1  0.4517030000000  0.5222780000000  0.5043450000000 1.0
C      1  0.5088040000000  0.5185350000000  0.4151770000000 1.0
C      1  0.6347290000000  0.4020100000000  0.4208220000000 1.0
C      1  0.4428850000000  0.5185680000000  0.5648490000000 1.0
C      1  0.4191740000000  0.5763270000000  0.4985540000000 1.0
C      1  0.5342810000000  0.4276300000000  0.5207540000000 1.0
C      1  0.5199030000000  0.5919950000000  0.4673350000000 1.0
C      1  0.4809950000000  0.4245110000000  0.5068050000000 1.0
C      1  0.4647520000000  0.4151360000000  0.4859770000000 1.0
C      1  0.5154510000000  0.5436840000000  0.4041190000000 1.0
C      1  0.5085290000000  0.4200420000000  0.5112650000000 1.0
C      1  0.3983470000000  0.5112390000000  0.5264910000000 1.0
C      1  0.5831750000000  0.4357310000000  0.4616460000000 1.0
C      1  0.4528290000000  0.5476300000000  0.5157590000000 1.0
C      1  0.4595940000000  0.5581170000000  0.5857260000000 1.0
C      1  0.5200330000000  0.5660630000000  0.4201060000000 1.0
C      1  0.4478810000000  0.5085790000000  0.5917700000000 1.0
C      1  0.4259640000000  0.3639020000000  0.4134240000000 1.0
C      1  0.5439150000000  0.5906390000000  0.4842480000000 1.0
C      1  0.4551920000000  0.4609250000000  0.5719060000000 1.0
C      1  0.5144710000000  0.4434700000000  0.5631690000000 1.0
C      1  0.4973070000000  0.4839990000000  0.5044040000000 1.0
C      1  0.4928970000000  0.5979320000000  0.4756660000000 1.0
C      1  0.5246880000000  0.5101490000000  0.4742510000000 1.0
C      1  0.4248090000000  0.4411840000000  0.4735600000000 1.0
C      1  0.5048750000000  0.4909670000000  0.4098560000000 1.0
C      1  0.5732990000000  0.4236400000000  0.4848350000000 1.0
C      1  0.4479500000000  0.4788420000000  0.5944290000000 1.0
C      1  0.4683240000000  0.5250380000000  0.5514370000000 1.0
C      1  0.4709820000000  0.4720420000000  0.5061940000000 1.0
C      1  0.5729910000000  0.5348230000000  0.5243950000000 1.0
C      1  0.5307570000000  0.5396110000000  0.5746680000000 1.0
C      1  0.6103680000000  0.3782140000000  0.3833450000000 1.0
C      1  0.5563570000000  0.5571140000000  0.5287730000000 1.0
C      1  0.5432190000000  0.5730630000000  0.5068140000000 1.0
C      1  0.5566910000000  0.4213300000000  0.5053640000000 1.0
C      1  0.5150470000000  0.5689390000000  0.5138710000000 1.0
C      1  0.5107430000000  0.4859560000000  0.4798710000000 1.0
C      1  0.5004480000000  0.4985610000000  0.5288400000000 1.0
C      1  0.4908810000000  0.4835350000000  0.5516660000000 1.0
C      1  0.4519300000000  0.5688030000000  0.5368920000000 1.0
C      1  0.4625280000000  0.5318480000000  0.6026340000000 1.0
C      1  0.4694420000000  0.4459890000000  0.5216770000000 1.0
C      1  0.5107480000000  0.4720880000000  0.5680740000000 1.0
C      1  0.5026590000000  0.4728890000000  0.4310400000000 1.0
END
