TITL C-247198-3593-694 4.95847908605531e-07 125000 -855.712319317952 0 0 139 (C1) n - 1
REM
REM in /home/nfs/bkarasulu/CARBON/AIRSS/Generating-Clusters/LCBOP/Only-C1/SD-CG/FIRE-HFTN
REM
REM
REM
REM
REM
REM ./C.cell (11c1c37f851c82e70ff6c80c92926a4b)
REM AIRSS Version 0.9.1 bugfix July 2018 build 013d7b7c2542+ Fri, 06 Jul 2018 19:26:36 +0100
REM compiler GCC version 9.2.1 20190827 (Red Hat 9.2.1-1)
REM options -cpp -mtune=generic -march=x86-64 -g -O0 -fpre-include=/usr/include/finclude/math-vector-fortran.h
REM seed 92756744 1831370501 1765006407 797339868 -1416869128 -207963241 -222107672 -892502038 -633903935 1986711851 -1814142830 -2116152240 -2041998876 1195214678 -1014587674 1382049577 -1073204026 -685088146 -1566935008 587836897 1652357300 -632794125 114493763 -641854144 -1237553175 1821523683 -1521862688 -621701032 1027987372 -1350832019 317526524 -579378807 1137926432
REM
CELL 1.54180   50.00000   50.00000   50.00000   90.00000   90.00000   90.00000
LATT -1
SFAC C  
C      1  0.5262610000000  0.4135850000000  0.5398230000000 1.0
C      1  0.4508280000000  0.5267880000000  0.5932140000000 1.0
C      1  0.4178110000000  0.5282050000000  0.5092510000000 1.0
C      1  0.4123040000000  0.5103270000000  0.5663430000000 1.0
C      1  0.3924860000000  0.4145210000000  0.4915580000000 1.0
C      1  0.4204900000000  0.5029860000000  0.4962130000000 1.0
C      1  0.5630430000000  0.5254540000000  0.5106370000000 1.0
C      1  0.5330390000000  0.5297830000000  0.3934360000000 1.0
C      1  0.5420570000000  0.4758270000000  0.5191710000000 1.0
C      1  0.4082120000000  0.5378200000000  0.5672780000000 1.0
C      1  0.4534400000000  0.5487610000000  0.5753050000000 1.0
C      1  0.4213320000000  0.6073490000000  0.4942200000000 1.0
C      1  0.4758060000000  0.5483060000000  0.4367000000000 1.0
C      1  0.4396780000000  0.6136250000000  0.5129440000000 1.0
C      1  0.4354710000000  0.5213420000000  0.4344850000000 1.0
C      1  0.5796960000000  0.5243810000000  0.4651120000000 1.0
C      1  0.4989460000000  0.4929680000000  0.4406390000000 1.0
C      1  0.5609010000000  0.4089060000000  0.4706310000000 1.0
C      1  0.4811200000000  0.5374670000000  0.4848880000000 1.0
C      1  0.4788940000000  0.5612720000000  0.5716960000000 1.0
C      1  0.5846430000000  0.5654370000000  0.4980480000000 1.0
C      1  0.5389480000000  0.5497890000000  0.4566170000000 1.0
C      1  0.4073950000000  0.4614110000000  0.5222730000000 1.0
C      1  0.4352560000000  0.5372090000000  0.5298740000000 1.0
C      1  0.5769000000000  0.4707020000000  0.4205500000000 1.0
C      1  0.4938360000000  0.5448560000000  0.6162220000000 1.0
C      1  0.4900270000000  0.4887300000000  0.4682820000000 1.0
C      1  0.5735060000000  0.6061270000000  0.4692100000000 1.0
C      1  0.4859800000000  0.4705800000000  0.5447110000000 1.0
C      1  0.4612260000000  0.4410520000000  0.5133260000000 1.0
C      1  0.4804790000000  0.5986500000000  0.5403580000000 1.0
C      1  0.4867960000000  0.5708950000000  0.5458840000000 1.0
C      1  0.5803950000000  0.5377100000000  0.4911760000000 1.0
C      1  0.4576830000000  0.4306990000000  0.5716990000000 1.0
C      1  0.5906910000000  0.4199490000000  0.5877880000000 1.0
C      1  0.5820020000000  0.5577910000000  0.5466880000000 1.0
C      1  0.5524120000000  0.4893870000000  0.5417040000000 1.0
C      1  0.4403300000000  0.4708580000000  0.5498120000000 1.0
C      1  0.4349620000000  0.4975080000000  0.5541080000000 1.0
C      1  0.4519830000000  0.6018950000000  0.5354830000000 1.0
C      1  0.4634370000000  0.5249890000000  0.4295190000000 1.0
C      1  0.6014140000000  0.4691830000000  0.4318590000000 1.0
C      1  0.5607750000000  0.4662200000000  0.5013330000000 1.0
C      1  0.4831420000000  0.5379790000000  0.5129800000000 1.0
C      1  0.5669760000000  0.5134840000000  0.5361040000000 1.0
C      1  0.5018140000000  0.4893850000000  0.3898240000000 1.0
C      1  0.4066610000000  0.4779420000000  0.4984160000000 1.0
C      1  0.5417870000000  0.3952140000000  0.4531960000000 1.0
C      1  0.6004410000000  0.5055910000000  0.4614370000000 1.0
C      1  0.6485460000000  0.4613210000000  0.4820430000000 1.0
C      1  0.5246980000000  0.5044790000000  0.4019980000000 1.0
C      1  0.4618430000000  0.4583030000000  0.5364490000000 1.0
C      1  0.5884490000000  0.5866290000000  0.4800630000000 1.0
C      1  0.4779200000000  0.5137600000000  0.5269800000000 1.0
C      1  0.3795830000000  0.3918050000000  0.4817990000000 1.0
C      1  0.4979340000000  0.5607600000000  0.5930660000000 1.0
C      1  0.5446260000000  0.5797850000000  0.5234930000000 1.0
C      1  0.5764880000000  0.4518470000000  0.4839400000000 1.0
C      1  0.4445050000000  0.4993430000000  0.4819270000000 1.0
C      1  0.3962020000000  0.4371870000000  0.4747930000000 1.0
C      1  0.4796500000000  0.4239200000000  0.4423170000000 1.0
C      1  0.5150920000000  0.4774950000000  0.5096070000000 1.0
C      1  0.5179200000000  0.4830220000000  0.5800540000000 1.0
C      1  0.4736760000000  0.5544890000000  0.4644550000000 1.0
C      1  0.4671570000000  0.5087320000000  0.6050910000000 1.0
C      1  0.5019110000000  0.5995380000000  0.4479130000000 1.0
C      1  0.5622150000000  0.5283780000000  0.5812660000000 1.0
C      1  0.5273040000000  0.5796080000000  0.4072860000000 1.0
C      1  0.6011950000000  0.4315560000000  0.5167740000000 1.0
C      1  0.6105230000000  0.4795890000000  0.4566370000000 1.0
C      1  0.5248870000000  0.5586600000000  0.5844060000000 1.0
C      1  0.4240550000000  0.5455330000000  0.4474970000000 1.0
C      1  0.4138670000000  0.5893360000000  0.4754700000000 1.0
C      1  0.5158580000000  0.4005910000000  0.4659520000000 1.0
C      1  0.5087120000000  0.4026520000000  0.5174910000000 1.0
C      1  0.5866670000000  0.4202340000000  0.5620420000000 1.0
C      1  0.4302230000000  0.5714810000000  0.4609350000000 1.0
C      1  0.5362940000000  0.5323890000000  0.5044630000000 1.0
C      1  0.5314920000000  0.5940840000000  0.5449140000000 1.0
C      1  0.4476690000000  0.4775380000000  0.4090890000000 1.0
C      1  0.4819370000000  0.3980560000000  0.5258940000000 1.0
C      1  0.5440780000000  0.4498570000000  0.4490650000000 1.0
C      1  0.6216280000000  0.4625900000000  0.4775200000000 1.0
C      1  0.6027950000000  0.4473560000000  0.4929210000000 1.0
C      1  0.3678530000000  0.3704050000000  0.4726540000000 1.0
C      1  0.4583540000000  0.5781170000000  0.4647800000000 1.0
C      1  0.4035160000000  0.4644720000000  0.4724230000000 1.0
C      1  0.5349840000000  0.4944760000000  0.4711660000000 1.0
C      1  0.5264260000000  0.5616530000000  0.5068600000000 1.0
C      1  0.5547240000000  0.5268700000000  0.4492340000000 1.0
C      1  0.4609910000000  0.4546410000000  0.4886920000000 1.0
C      1  0.5160010000000  0.5087280000000  0.5940420000000 1.0
C      1  0.4330830000000  0.4288180000000  0.5573930000000 1.0
C      1  0.5134030000000  0.4727910000000  0.4793970000000 1.0
C      1  0.4617850000000  0.4122540000000  0.5123110000000 1.0
C      1  0.4463320000000  0.3984660000000  0.4943620000000 1.0
C      1  0.5510710000000  0.4045820000000  0.4982800000000 1.0
C      1  0.5279250000000  0.5693250000000  0.4759100000000 1.0
C      1  0.4306590000000  0.5545390000000  0.5549520000000 1.0
C      1  0.5072900000000  0.6101640000000  0.5403060000000 1.0
C      1  0.5224510000000  0.3983990000000  0.4938810000000 1.0
C      1  0.4639000000000  0.4798350000000  0.4770340000000 1.0
C      1  0.5428550000000  0.4805790000000  0.5665100000000 1.0
C      1  0.4342170000000  0.5835840000000  0.5491160000000 1.0
C      1  0.4472610000000  0.4492330000000  0.4112390000000 1.0
C      1  0.5726490000000  0.5721580000000  0.5238430000000 1.0
C      1  0.4948800000000  0.4898320000000  0.5264060000000 1.0
C      1  0.5182950000000  0.4485940000000  0.4621430000000 1.0
C      1  0.5029070000000  0.4246750000000  0.4576840000000 1.0
C      1  0.4518950000000  0.5147830000000  0.5386610000000 1.0
C      1  0.5507890000000  0.4716880000000  0.4313400000000 1.0
C      1  0.4750210000000  0.6007570000000  0.4589400000000 1.0
C      1  0.5042420000000  0.5863720000000  0.4221560000000 1.0
C      1  0.4881750000000  0.4364260000000  0.5744360000000 1.0
C      1  0.4973730000000  0.4642320000000  0.5703020000000 1.0
C      1  0.4853660000000  0.3946050000000  0.5542040000000 1.0
C      1  0.4134650000000  0.4354160000000  0.5350980000000 1.0
C      1  0.4991520000000  0.5579210000000  0.5236650000000 1.0
C      1  0.5747310000000  0.5320150000000  0.5564060000000 1.0
C      1  0.4746200000000  0.4885610000000  0.4015580000000 1.0
C      1  0.5349240000000  0.5313730000000  0.5876230000000 1.0
C      1  0.5242070000000  0.5958380000000  0.4653380000000 1.0
C      1  0.4124040000000  0.4774120000000  0.4478400000000 1.0
C      1  0.5354260000000  0.4974190000000  0.4357440000000 1.0
C      1  0.5355610000000  0.5563710000000  0.3962440000000 1.0
C      1  0.4936860000000  0.5166030000000  0.6106160000000 1.0
C      1  0.5249180000000  0.5167560000000  0.4844740000000 1.0
C      1  0.5540740000000  0.4139250000000  0.5261730000000 1.0
C      1  0.5475060000000  0.6116420000000  0.4651110000000 1.0
C      1  0.4019230000000  0.4151660000000  0.5184740000000 1.0
C      1  0.5053700000000  0.4150380000000  0.5630560000000 1.0
C      1  0.5347390000000  0.5809780000000  0.5701500000000 1.0
C      1  0.4287960000000  0.4926460000000  0.4288130000000 1.0
C      1  0.5646110000000  0.4363340000000  0.4639350000000 1.0
C      1  0.5806140000000  0.4217540000000  0.5347510000000 1.0
C      1  0.4801190000000  0.5037230000000  0.4248420000000 1.0
C      1  0.4834940000000  0.5676730000000  0.4182660000000 1.0
C      1  0.4972110000000  0.5159510000000  0.4783770000000 1.0
C      1  0.4604720000000  0.4306320000000  0.4251580000000 1.0
END
