TITL C-247197-3123-320 1.00332694339894e-06 125000 -620.807476211281 0 0 101 (C1) n - 1
REM
REM in /home/nfs/bkarasulu/CARBON/AIRSS/Generating-Clusters/LCBOP/Only-C1/SD-CG/FIRE-HFTN
REM
REM
REM
REM
REM
REM ./C.cell (11c1c37f851c82e70ff6c80c92926a4b)
REM AIRSS Version 0.9.1 bugfix July 2018 build 013d7b7c2542+ Fri, 06 Jul 2018 19:26:36 +0100
REM compiler GCC version 9.2.1 20190827 (Red Hat 9.2.1-1)
REM options -cpp -mtune=generic -march=x86-64 -g -O0 -fpre-include=/usr/include/finclude/math-vector-fortran.h
REM seed -1978239990 1133932279 1805249392 716068529 1145484526 -1448666368 1819220180 1647080290 -1446262397 -1681272511 432493249 286173912 1042492732 -617333791 367626575 1530319039 2126380632 -626428506 143188664 -1080762492 247702633 -1803543013 1091736821 -2004851972 -1649533720 -918120426 -628227597 1936691827 1498812186 -1766516719 1500081264 467714109 -1612162134
REM
CELL 1.54180   50.00000   50.00000   50.00000   90.00000   90.00000   90.00000
LATT -1
SFAC C  
C      1  0.5339100000000  0.4171730000000  0.5182870000000 1.0
C      1  0.4672760000000  0.5843520000000  0.5506220000000 1.0
C      1  0.5621110000000  0.4170310000000  0.4528760000000 1.0
C      1  0.6078750000000  0.5459180000000  0.5250640000000 1.0
C      1  0.5724700000000  0.5052820000000  0.5562430000000 1.0
C      1  0.5334210000000  0.6022910000000  0.5125270000000 1.0
C      1  0.5139760000000  0.4852980000000  0.5451750000000 1.0
C      1  0.5823700000000  0.5502400000000  0.5348740000000 1.0
C      1  0.4804900000000  0.5775100000000  0.4692460000000 1.0
C      1  0.4901320000000  0.4815610000000  0.5298580000000 1.0
C      1  0.4385100000000  0.5272900000000  0.4338260000000 1.0
C      1  0.5283270000000  0.5464820000000  0.5856480000000 1.0
C      1  0.5648040000000  0.5713820000000  0.5272220000000 1.0
C      1  0.4284370000000  0.4951920000000  0.5421080000000 1.0
C      1  0.6083980000000  0.4869960000000  0.6174120000000 1.0
C      1  0.4636290000000  0.4544960000000  0.5018480000000 1.0
C      1  0.5891520000000  0.4892840000000  0.5999910000000 1.0
C      1  0.5254770000000  0.4914250000000  0.4204240000000 1.0
C      1  0.4949480000000  0.4352110000000  0.4576720000000 1.0
C      1  0.4777290000000  0.4186910000000  0.4721780000000 1.0
C      1  0.5354830000000  0.4973290000000  0.5293920000000 1.0
C      1  0.5578480000000  0.5391710000000  0.4304610000000 1.0
C      1  0.5168710000000  0.4835990000000  0.5737050000000 1.0
C      1  0.4666220000000  0.4658600000000  0.5282870000000 1.0
C      1  0.5688560000000  0.4921180000000  0.5812870000000 1.0
C      1  0.5063220000000  0.5554060000000  0.5979530000000 1.0
C      1  0.4655690000000  0.4904450000000  0.4039370000000 1.0
C      1  0.4590690000000  0.5471360000000  0.4376810000000 1.0
C      1  0.4554030000000  0.5700380000000  0.4556030000000 1.0
C      1  0.5589350000000  0.5923300000000  0.5085970000000 1.0
C      1  0.4603190000000  0.4059320000000  0.5389010000000 1.0
C      1  0.4794350000000  0.5411750000000  0.5017140000000 1.0
C      1  0.4671580000000  0.4864130000000  0.5939870000000 1.0
C      1  0.4692650000000  0.4610960000000  0.4063260000000 1.0
C      1  0.4602030000000  0.4733140000000  0.4799770000000 1.0
C      1  0.4927010000000  0.5918720000000  0.5403590000000 1.0
C      1  0.4479790000000  0.5408180000000  0.5436580000000 1.0
C      1  0.5624950000000  0.4903130000000  0.5338120000000 1.0
C      1  0.4352610000000  0.4750610000000  0.4659840000000 1.0
C      1  0.4432820000000  0.4690750000000  0.5474190000000 1.0
C      1  0.5397870000000  0.5696840000000  0.5442010000000 1.0
C      1  0.4367160000000  0.4755180000000  0.4375030000000 1.0
C      1  0.4284930000000  0.5199870000000  0.4813840000000 1.0
C      1  0.4948760000000  0.4868070000000  0.5908230000000 1.0
C      1  0.5087700000000  0.4109580000000  0.5251020000000 1.0
C      1  0.4928750000000  0.5181180000000  0.4608540000000 1.0
C      1  0.4564290000000  0.5237800000000  0.4901370000000 1.0
C      1  0.5085980000000  0.5360260000000  0.4217680000000 1.0
C      1  0.4747690000000  0.5001370000000  0.4808850000000 1.0
C      1  0.4204000000000  0.5301340000000  0.4556870000000 1.0
C      1  0.4493290000000  0.5749260000000  0.5054600000000 1.0
C      1  0.5105650000000  0.5116900000000  0.4068470000000 1.0
C      1  0.4810010000000  0.4127100000000  0.5210290000000 1.0
C      1  0.4375530000000  0.4264740000000  0.4245760000000 1.0
C      1  0.4846010000000  0.5354080000000  0.4381150000000 1.0
C      1  0.4724430000000  0.4276700000000  0.4982950000000 1.0
C      1  0.5458390000000  0.4510560000000  0.4192680000000 1.0
C      1  0.4464660000000  0.4527180000000  0.4223420000000 1.0
C      1  0.4433750000000  0.4046130000000  0.4388860000000 1.0
C      1  0.4668360000000  0.5811150000000  0.5787690000000 1.0
C      1  0.5205160000000  0.4409930000000  0.4085360000000 1.0
C      1  0.4942860000000  0.4473020000000  0.4031720000000 1.0
C      1  0.4533740000000  0.4703620000000  0.5756130000000 1.0
C      1  0.4177700000000  0.5259820000000  0.5778440000000 1.0
C      1  0.4871910000000  0.5045520000000  0.3929670000000 1.0
C      1  0.5020270000000  0.5245200000000  0.5099020000000 1.0
C      1  0.4514850000000  0.5052050000000  0.6079090000000 1.0
C      1  0.5193950000000  0.4814170000000  0.4469240000000 1.0
C      1  0.5369550000000  0.5103940000000  0.4814950000000 1.0
C      1  0.4187210000000  0.4927720000000  0.4810760000000 1.0
C      1  0.4298930000000  0.5198550000000  0.6011740000000 1.0
C      1  0.4372920000000  0.4180110000000  0.5459840000000 1.0
C      1  0.5739010000000  0.5215880000000  0.4178170000000 1.0
C      1  0.4833650000000  0.5690720000000  0.5962260000000 1.0
C      1  0.4448900000000  0.5006190000000  0.4232130000000 1.0
C      1  0.5397240000000  0.4852150000000  0.4675400000000 1.0
C      1  0.5426860000000  0.4823160000000  0.5850230000000 1.0
C      1  0.4773730000000  0.5689360000000  0.4964350000000 1.0
C      1  0.5564470000000  0.4623090000000  0.4695080000000 1.0
C      1  0.5296700000000  0.5162520000000  0.5087200000000 1.0
C      1  0.5020050000000  0.4600880000000  0.4516030000000 1.0
C      1  0.5567290000000  0.4440210000000  0.4456880000000 1.0
C      1  0.5197130000000  0.5885500000000  0.5342050000000 1.0
C      1  0.4900850000000  0.4979790000000  0.5069690000000 1.0
C      1  0.4608640000000  0.4007390000000  0.4588620000000 1.0
C      1  0.4271580000000  0.5224790000000  0.5512360000000 1.0
C      1  0.5446540000000  0.5482790000000  0.5631150000000 1.0
C      1  0.4489040000000  0.5684900000000  0.5339760000000 1.0
C      1  0.5623350000000  0.4522900000000  0.4962560000000 1.0
C      1  0.5716260000000  0.4961740000000  0.4088770000000 1.0
C      1  0.5689740000000  0.5336850000000  0.5547890000000 1.0
C      1  0.5608320000000  0.4080200000000  0.4784580000000 1.0
C      1  0.4359680000000  0.5751780000000  0.4786400000000 1.0
C      1  0.4729800000000  0.5316360000000  0.5519930000000 1.0
C      1  0.5217420000000  0.5267600000000  0.4638420000000 1.0
C      1  0.5498230000000  0.4787590000000  0.4113170000000 1.0
C      1  0.6315510000000  0.5406760000000  0.5155210000000 1.0
C      1  0.5714460000000  0.4694180000000  0.5170330000000 1.0
C      1  0.5314250000000  0.5398280000000  0.4397550000000 1.0
C      1  0.5542390000000  0.4248400000000  0.5004600000000 1.0
C      1  0.4277440000000  0.4433060000000  0.5462550000000 1.0
END
