TITL C-247197-3123-474 -1.07208270187008e-07 125000 -171.17512229907 0 0 29 (C1) n - 1
REM
REM in /home/nfs/bkarasulu/CARBON/AIRSS/Generating-Clusters/LCBOP/Only-C1/SD-CG/FIRE-HFTN
REM
REM
REM
REM
REM
REM ./C.cell (11c1c37f851c82e70ff6c80c92926a4b)
REM AIRSS Version 0.9.1 bugfix July 2018 build 013d7b7c2542+ Fri, 06 Jul 2018 19:26:36 +0100
REM compiler GCC version 9.2.1 20190827 (Red Hat 9.2.1-1)
REM options -cpp -mtune=generic -march=x86-64 -g -O0 -fpre-include=/usr/include/finclude/math-vector-fortran.h
REM seed 412432621 746891227 1955003623 493019556 2039841423 -771420234 788623907 -402027366 -1698641077 1964548314 2015373062 912842263 -1447734419 -459515456 967489984 -533077292 -2127573092 940915749 -1730298337 -1597387724 596541143 1752613767 -548134426 2002149977 1127084317 291493894 574785493 867853443 -217052294 647197130 -922733076 439552055 933117175
REM
CELL 1.54180   50.00000   50.00000   50.00000   90.00000   90.00000   90.00000
LATT -1
SFAC C  
C      1  0.5277270000000  0.4617250000000  0.4372330000000 1.0
C      1  0.4920470000000  0.5786690000000  0.5415260000000 1.0
C      1  0.5338940000000  0.4156930000000  0.4184730000000 1.0
C      1  0.4507930000000  0.5616900000000  0.5135350000000 1.0
C      1  0.4996730000000  0.4742560000000  0.5472230000000 1.0
C      1  0.4406820000000  0.5177070000000  0.5412650000000 1.0
C      1  0.5309100000000  0.4331150000000  0.4390150000000 1.0
C      1  0.5250670000000  0.4739950000000  0.4630590000000 1.0
C      1  0.5296850000000  0.5454710000000  0.5518510000000 1.0
C      1  0.4753050000000  0.4818160000000  0.5547570000000 1.0
C      1  0.4695990000000  0.5772190000000  0.5273290000000 1.0
C      1  0.4642100000000  0.5512780000000  0.4681660000000 1.0
C      1  0.5360250000000  0.5215410000000  0.5421040000000 1.0
C      1  0.4391130000000  0.5400700000000  0.5269860000000 1.0
C      1  0.5249370000000  0.4559980000000  0.5096340000000 1.0
C      1  0.4538020000000  0.4972110000000  0.5519660000000 1.0
C      1  0.5347400000000  0.3781390000000  0.4891820000000 1.0
C      1  0.5034570000000  0.5179880000000  0.4588990000000 1.0
C      1  0.5302190000000  0.4270980000000  0.4674800000000 1.0
C      1  0.5218100000000  0.5007240000000  0.4709700000000 1.0
C      1  0.4833760000000  0.5353860000000  0.4589400000000 1.0
C      1  0.4470630000000  0.5650370000000  0.4855630000000 1.0
C      1  0.4272650000000  0.5812550000000  0.4759650000000 1.0
C      1  0.5267030000000  0.4517080000000  0.4821700000000 1.0
C      1  0.5138380000000  0.5668390000000  0.5511790000000 1.0
C      1  0.5325560000000  0.4018620000000  0.4786200000000 1.0
C      1  0.5333480000000  0.5083720000000  0.4954740000000 1.0
C      1  0.5204420000000  0.4762540000000  0.5286340000000 1.0
C      1  0.5317150000000  0.5018850000000  0.5228010000000 1.0
END
