TITL C-247196-3112-195 3.18130244406048e-07 125000 -1040.41399648466 0 0 170 (C1) n - 1
REM
REM in /home/nfs/bkarasulu/CARBON/AIRSS/Generating-Clusters/LCBOP/Only-C1/SD-CG/FIRE-HFTN
REM
REM
REM
REM
REM
REM ./C.cell (11c1c37f851c82e70ff6c80c92926a4b)
REM AIRSS Version 0.9.1 bugfix July 2018 build 013d7b7c2542+ Fri, 06 Jul 2018 19:26:36 +0100
REM compiler GCC version 9.2.1 20190827 (Red Hat 9.2.1-1)
REM options -cpp -mtune=generic -march=x86-64 -g -O0 -fpre-include=/usr/include/finclude/math-vector-fortran.h
REM seed -1497219476 699341636 -705509419 1298675948 1826534664 895585712 -1263924357 1370050038 -771768286 1882244693 -765082328 -39625230 -1914673983 -1405446148 -1809775581 -509482396 1797917469 -1167603110 -1285639997 1705815358 -1875058585 -1968826248 -937484535 289023718 -1388162327 -1396945376 526436256 -351494278 374433190 -681248097 1846110829 -1049657774 -1112039600
REM
CELL 1.54180   50.00000   50.00000   50.00000   90.00000   90.00000   90.00000
LATT -1
SFAC C  
C      1  0.5959350000000  0.5632230000000  0.5261770000000 1.0
C      1  0.5994690000000  0.5351960000000  0.5283170000000 1.0
C      1  0.5478480000000  0.6094500000000  0.5212200000000 1.0
C      1  0.5007520000000  0.4109620000000  0.5785510000000 1.0
C      1  0.5484000000000  0.5362480000000  0.5925470000000 1.0
C      1  0.4907450000000  0.5602140000000  0.6039640000000 1.0
C      1  0.4532090000000  0.4891140000000  0.3870360000000 1.0
C      1  0.5124690000000  0.5310560000000  0.4519730000000 1.0
C      1  0.5795230000000  0.5666060000000  0.5749480000000 1.0
C      1  0.4696220000000  0.3970680000000  0.5411960000000 1.0
C      1  0.4547630000000  0.5076520000000  0.5258930000000 1.0
C      1  0.4631930000000  0.5647340000000  0.6096160000000 1.0
C      1  0.4699510000000  0.5943940000000  0.5674230000000 1.0
C      1  0.4496250000000  0.5520230000000  0.5179580000000 1.0
C      1  0.5180620000000  0.4278520000000  0.4617300000000 1.0
C      1  0.5608070000000  0.4395020000000  0.6387090000000 1.0
C      1  0.5924790000000  0.5795310000000  0.4753180000000 1.0
C      1  0.4714980000000  0.5262210000000  0.4113660000000 1.0
C      1  0.4477140000000  0.3911960000000  0.4745830000000 1.0
C      1  0.4792590000000  0.4881980000000  0.3749470000000 1.0
C      1  0.4139000000000  0.4729360000000  0.4658280000000 1.0
C      1  0.5300560000000  0.4172540000000  0.5776580000000 1.0
C      1  0.4817610000000  0.5211520000000  0.5822400000000 1.0
C      1  0.4191860000000  0.5435230000000  0.6155600000000 1.0
C      1  0.4588870000000  0.5780640000000  0.3913780000000 1.0
C      1  0.4968150000000  0.4662750000000  0.3813040000000 1.0
C      1  0.4994680000000  0.4185360000000  0.4411980000000 1.0
C      1  0.4944640000000  0.4264450000000  0.5118480000000 1.0
C      1  0.4275480000000  0.5482990000000  0.4999300000000 1.0
C      1  0.3944280000000  0.4924200000000  0.4735830000000 1.0
C      1  0.5312020000000  0.4401560000000  0.5371200000000 1.0
C      1  0.4847850000000  0.3634780000000  0.4880520000000 1.0
C      1  0.5438890000000  0.5632910000000  0.5095500000000 1.0
C      1  0.5184750000000  0.3790880000000  0.5515790000000 1.0
C      1  0.5538910000000  0.5422320000000  0.4907420000000 1.0
C      1  0.5448490000000  0.4362510000000  0.4550350000000 1.0
C      1  0.4829580000000  0.5060980000000  0.6073980000000 1.0
C      1  0.4472670000000  0.4229990000000  0.4381240000000 1.0
C      1  0.4137670000000  0.3872570000000  0.4397350000000 1.0
C      1  0.4643620000000  0.4849670000000  0.5130380000000 1.0
C      1  0.4244770000000  0.4251270000000  0.5406190000000 1.0
C      1  0.5657300000000  0.4208250000000  0.4655050000000 1.0
C      1  0.4014720000000  0.6026790000000  0.5475210000000 1.0
C      1  0.5020890000000  0.4401000000000  0.4854640000000 1.0
C      1  0.5430630000000  0.5911600000000  0.5001380000000 1.0
C      1  0.5619050000000  0.5867180000000  0.5877010000000 1.0
C      1  0.4830490000000  0.4790570000000  0.5979890000000 1.0
C      1  0.5630660000000  0.4731350000000  0.5514370000000 1.0
C      1  0.5459840000000  0.4686760000000  0.5751170000000 1.0
C      1  0.5015500000000  0.4743580000000  0.4403020000000 1.0
C      1  0.4888260000000  0.5148800000000  0.3679150000000 1.0
C      1  0.4827550000000  0.5637260000000  0.3853590000000 1.0
C      1  0.5481850000000  0.4607130000000  0.5293960000000 1.0
C      1  0.4292560000000  0.4721210000000  0.4413240000000 1.0
C      1  0.4845700000000  0.5876850000000  0.5074700000000 1.0
C      1  0.4723630000000  0.5314830000000  0.5197820000000 1.0
C      1  0.5813340000000  0.4965240000000  0.5529340000000 1.0
C      1  0.5377460000000  0.4737970000000  0.5065310000000 1.0
C      1  0.5638310000000  0.3958670000000  0.5439120000000 1.0
C      1  0.5235370000000  0.4663760000000  0.4224680000000 1.0
C      1  0.4026490000000  0.5447650000000  0.5129980000000 1.0
C      1  0.4501510000000  0.4462860000000  0.4868770000000 1.0
C      1  0.4385060000000  0.5548300000000  0.5989900000000 1.0
C      1  0.4666630000000  0.5970110000000  0.4348980000000 1.0
C      1  0.6106350000000  0.3744610000000  0.4925250000000 1.0
C      1  0.4961100000000  0.4161910000000  0.3932410000000 1.0
C      1  0.5454050000000  0.5746060000000  0.4555090000000 1.0
C      1  0.5440670000000  0.4792320000000  0.3794050000000 1.0
C      1  0.4952960000000  0.5227740000000  0.5388080000000 1.0
C      1  0.4811560000000  0.5675070000000  0.4880640000000 1.0
C      1  0.4944590000000  0.6062010000000  0.5691840000000 1.0
C      1  0.4692240000000  0.3864110000000  0.4923980000000 1.0
C      1  0.5339540000000  0.5118900000000  0.3445180000000 1.0
C      1  0.4281450000000  0.5990240000000  0.5432440000000 1.0
C      1  0.5482220000000  0.4596540000000  0.4379800000000 1.0
C      1  0.5151160000000  0.5403280000000  0.5547040000000 1.0
C      1  0.5495760000000  0.4951080000000  0.3585300000000 1.0
C      1  0.4888910000000  0.4511970000000  0.5584070000000 1.0
C      1  0.4443790000000  0.5825680000000  0.5601300000000 1.0
C      1  0.4481270000000  0.4950870000000  0.4375620000000 1.0
C      1  0.4343280000000  0.5568100000000  0.5703180000000 1.0
C      1  0.4481330000000  0.5849150000000  0.4169150000000 1.0
C      1  0.5088140000000  0.5752890000000  0.4258700000000 1.0
C      1  0.5096510000000  0.6058270000000  0.4626050000000 1.0
C      1  0.4867380000000  0.5403180000000  0.4946590000000 1.0
C      1  0.4546590000000  0.4234290000000  0.5776310000000 1.0
C      1  0.4253900000000  0.4562810000000  0.4854520000000 1.0
C      1  0.4951670000000  0.5201320000000  0.6286850000000 1.0
C      1  0.4282880000000  0.4858490000000  0.5599550000000 1.0
C      1  0.4864390000000  0.5035860000000  0.5591510000000 1.0
C      1  0.4493140000000  0.5064940000000  0.4092680000000 1.0
C      1  0.5302070000000  0.5070550000000  0.4510520000000 1.0
C      1  0.4816420000000  0.4315780000000  0.5781310000000 1.0
C      1  0.5332230000000  0.5940450000000  0.4735940000000 1.0
C      1  0.4927890000000  0.3900580000000  0.5586340000000 1.0
C      1  0.5520960000000  0.4404970000000  0.6141700000000 1.0
C      1  0.5075230000000  0.5454390000000  0.6226960000000 1.0
C      1  0.4013220000000  0.5314330000000  0.6301820000000 1.0
C      1  0.5058530000000  0.5738620000000  0.3980670000000 1.0
C      1  0.5718050000000  0.3940640000000  0.4717100000000 1.0
C      1  0.4333880000000  0.4463820000000  0.4298710000000 1.0
C      1  0.5331940000000  0.5220270000000  0.5725770000000 1.0
C      1  0.5407150000000  0.3961540000000  0.5595670000000 1.0
C      1  0.4738100000000  0.4410680000000  0.4729160000000 1.0
C      1  0.4334870000000  0.5361220000000  0.4751500000000 1.0
C      1  0.4898690000000  0.4389050000000  0.3802780000000 1.0
C      1  0.5060900000000  0.4051760000000  0.4171820000000 1.0
C      1  0.5500290000000  0.4982530000000  0.5019190000000 1.0
C      1  0.5241820000000  0.3838190000000  0.4190820000000 1.0
C      1  0.5579620000000  0.5079820000000  0.4501010000000 1.0
C      1  0.4769480000000  0.4035130000000  0.5140090000000 1.0
C      1  0.5961190000000  0.4957560000000  0.4821500000000 1.0
C      1  0.5240040000000  0.5602750000000  0.5325680000000 1.0
C      1  0.5472790000000  0.6028120000000  0.5689230000000 1.0
C      1  0.4793340000000  0.4922510000000  0.4409450000000 1.0
C      1  0.4862120000000  0.4769200000000  0.5687220000000 1.0
C      1  0.5011820000000  0.3435920000000  0.4842090000000 1.0
C      1  0.3869630000000  0.5130420000000  0.4557210000000 1.0
C      1  0.4880190000000  0.5208740000000  0.4349670000000 1.0
C      1  0.5906320000000  0.4757670000000  0.4625710000000 1.0
C      1  0.5209460000000  0.6136640000000  0.5616830000000 1.0
C      1  0.5826020000000  0.5769430000000  0.5473320000000 1.0
C      1  0.3952880000000  0.4983200000000  0.5283220000000 1.0
C      1  0.5999390000000  0.5754690000000  0.5008760000000 1.0
C      1  0.3876180000000  0.4938430000000  0.5011580000000 1.0
C      1  0.5251120000000  0.5581080000000  0.4422630000000 1.0
C      1  0.6216220000000  0.5341530000000  0.4625620000000 1.0
C      1  0.5679530000000  0.4805050000000  0.4459180000000 1.0
C      1  0.5706540000000  0.5296590000000  0.4672600000000 1.0
C      1  0.4413250000000  0.5174860000000  0.4575800000000 1.0
C      1  0.4095010000000  0.4477580000000  0.5384990000000 1.0
C      1  0.4942200000000  0.5952190000000  0.4409870000000 1.0
C      1  0.4234720000000  0.5739700000000  0.4249820000000 1.0
C      1  0.5031650000000  0.4399160000000  0.5357170000000 1.0
C      1  0.4075440000000  0.4758550000000  0.5431810000000 1.0
C      1  0.5422820000000  0.4422240000000  0.5877400000000 1.0
C      1  0.5435760000000  0.3726120000000  0.4336900000000 1.0
C      1  0.4042510000000  0.5564690000000  0.4314240000000 1.0
C      1  0.5864730000000  0.3871370000000  0.4950460000000 1.0
C      1  0.5788400000000  0.4979390000000  0.5048560000000 1.0
C      1  0.4353700000000  0.4000030000000  0.4504550000000 1.0
C      1  0.4734360000000  0.4277910000000  0.4474670000000 1.0
C      1  0.5220380000000  0.4708480000000  0.3945910000000 1.0
C      1  0.5170550000000  0.4835550000000  0.4632200000000 1.0
C      1  0.5324600000000  0.4938260000000  0.5779760000000 1.0
C      1  0.5766450000000  0.3933230000000  0.5206720000000 1.0
C      1  0.4888070000000  0.4809250000000  0.5033720000000 1.0
C      1  0.5127740000000  0.4692270000000  0.4899680000000 1.0
C      1  0.5987040000000  0.5224160000000  0.4708860000000 1.0
C      1  0.4403410000000  0.5096390000000  0.5508450000000 1.0
C      1  0.4944950000000  0.5480200000000  0.5780510000000 1.0
C      1  0.4420500000000  0.6116080000000  0.5222410000000 1.0
C      1  0.5260490000000  0.6236480000000  0.5343870000000 1.0
C      1  0.5861170000000  0.5145780000000  0.5749580000000 1.0
C      1  0.3910890000000  0.5353330000000  0.4413720000000 1.0
C      1  0.4237540000000  0.5332410000000  0.5550460000000 1.0
C      1  0.5751600000000  0.5396970000000  0.5835830000000 1.0
C      1  0.5083570000000  0.5189710000000  0.3483010000000 1.0
C      1  0.5609000000000  0.3750910000000  0.4539410000000 1.0
C      1  0.5028400000000  0.5797580000000  0.5274680000000 1.0
C      1  0.4810570000000  0.5355680000000  0.3862370000000 1.0
C      1  0.5351490000000  0.5447750000000  0.6159610000000 1.0
C      1  0.4465840000000  0.4117420000000  0.5527620000000 1.0
C      1  0.5736670000000  0.5763150000000  0.4561120000000 1.0
C      1  0.4014530000000  0.5271820000000  0.5356590000000 1.0
C      1  0.5340060000000  0.5210790000000  0.4952420000000 1.0
C      1  0.5892350000000  0.5088040000000  0.5284860000000 1.0
C      1  0.5090750000000  0.5298370000000  0.4826460000000 1.0
C      1  0.4656140000000  0.6080040000000  0.5100530000000 1.0
C      1  0.5637340000000  0.5989970000000  0.5435570000000 1.0
END
