TITL C-247198-3593-10 -2.18627438208997e-07 125000 -596.8194218583 0 0 99 (C1) n - 1
REM
REM in /home/nfs/bkarasulu/CARBON/AIRSS/Generating-Clusters/LCBOP/Only-C1/SD-CG/FIRE-HFTN
REM
REM
REM
REM
REM
REM ./C.cell (11c1c37f851c82e70ff6c80c92926a4b)
REM AIRSS Version 0.9.1 bugfix July 2018 build 013d7b7c2542+ Fri, 06 Jul 2018 19:26:36 +0100
REM compiler GCC version 9.2.1 20190827 (Red Hat 9.2.1-1)
REM options -cpp -mtune=generic -march=x86-64 -g -O0 -fpre-include=/usr/include/finclude/math-vector-fortran.h
REM seed -1876179869 83126286 -155962132 325286680 -2117629985 -1030891037 1515567442 1376599945 235330150 1852480195 -1509043409 352428567 66996107 1792740516 119071624 -111957103 1564289838 -1354204484 716914788 -1130417989 -747083844 -2034903606 -845397016 2068593439 1474232711 1223057704 -1394489503 1337416606 232996630 -1224205133 939491003 423212543 2052402708
REM
CELL 1.54180   50.00000   50.00000   50.00000   90.00000   90.00000   90.00000
LATT -1
SFAC C  
C      1  0.5203370000000  0.5995030000000  0.5374380000000 1.0
C      1  0.4276470000000  0.4469420000000  0.4972170000000 1.0
C      1  0.4962910000000  0.4085880000000  0.4334380000000 1.0
C      1  0.5337740000000  0.4939470000000  0.6094210000000 1.0
C      1  0.5014700000000  0.5150920000000  0.4590260000000 1.0
C      1  0.4459690000000  0.4248740000000  0.4971580000000 1.0
C      1  0.5812240000000  0.5499390000000  0.4830670000000 1.0
C      1  0.5051720000000  0.5338330000000  0.6120990000000 1.0
C      1  0.5649260000000  0.5010020000000  0.5466840000000 1.0
C      1  0.4798440000000  0.5136740000000  0.4780000000000 1.0
C      1  0.5443280000000  0.4924990000000  0.4165450000000 1.0
C      1  0.5108230000000  0.5787450000000  0.5546190000000 1.0
C      1  0.5729360000000  0.4977890000000  0.4964280000000 1.0
C      1  0.4113950000000  0.5119090000000  0.5205510000000 1.0
C      1  0.5373970000000  0.4485990000000  0.4663760000000 1.0
C      1  0.4892420000000  0.4044370000000  0.5095390000000 1.0
C      1  0.5201800000000  0.4685350000000  0.5393410000000 1.0
C      1  0.4653090000000  0.4686560000000  0.5492330000000 1.0
C      1  0.5532550000000  0.5620620000000  0.5362570000000 1.0
C      1  0.4374510000000  0.5535090000000  0.5273290000000 1.0
C      1  0.5393930000000  0.5133220000000  0.5440420000000 1.0
C      1  0.4193150000000  0.4854650000000  0.5256350000000 1.0
C      1  0.5811090000000  0.5068660000000  0.5234210000000 1.0
C      1  0.5165530000000  0.5678320000000  0.5807170000000 1.0
C      1  0.5253790000000  0.4717110000000  0.4239980000000 1.0
C      1  0.4961100000000  0.5517980000000  0.5152510000000 1.0
C      1  0.4384600000000  0.4710070000000  0.5095100000000 1.0
C      1  0.5702280000000  0.5520510000000  0.5769320000000 1.0
C      1  0.5319070000000  0.5537400000000  0.4842770000000 1.0
C      1  0.5458920000000  0.4982220000000  0.4852520000000 1.0
C      1  0.5240300000000  0.4966280000000  0.4657230000000 1.0
C      1  0.4433190000000  0.4933790000000  0.4161910000000 1.0
C      1  0.5629740000000  0.5052040000000  0.4348970000000 1.0
C      1  0.5566500000000  0.5311930000000  0.4457240000000 1.0
C      1  0.4889590000000  0.4915140000000  0.4958590000000 1.0
C      1  0.5086430000000  0.5541490000000  0.5399140000000 1.0
C      1  0.4785250000000  0.5712980000000  0.5030970000000 1.0
C      1  0.4739530000000  0.4250530000000  0.4269990000000 1.0
C      1  0.4219250000000  0.5233820000000  0.3844780000000 1.0
C      1  0.5160450000000  0.5246490000000  0.3907190000000 1.0
C      1  0.5371410000000  0.4040780000000  0.5235890000000 1.0
C      1  0.4679200000000  0.5302040000000  0.3979470000000 1.0
C      1  0.4200040000000  0.5364690000000  0.5091870000000 1.0
C      1  0.4660620000000  0.5015520000000  0.5849810000000 1.0
C      1  0.4986410000000  0.5291950000000  0.4351170000000 1.0
C      1  0.4631420000000  0.5264260000000  0.4971300000000 1.0
C      1  0.5934620000000  0.5327630000000  0.5297580000000 1.0
C      1  0.5690240000000  0.4888680000000  0.5716810000000 1.0
C      1  0.5103530000000  0.5055760000000  0.5087090000000 1.0
C      1  0.4246600000000  0.5181310000000  0.4582250000000 1.0
C      1  0.4437620000000  0.5159900000000  0.3990660000000 1.0
C      1  0.4523530000000  0.4788860000000  0.5731000000000 1.0
C      1  0.4779180000000  0.4498960000000  0.4121700000000 1.0
C      1  0.4522130000000  0.4189800000000  0.4446150000000 1.0
C      1  0.4846940000000  0.4934920000000  0.6048730000000 1.0
C      1  0.4205770000000  0.5343600000000  0.4800050000000 1.0
C      1  0.4761520000000  0.4440150000000  0.5372740000000 1.0
C      1  0.4182660000000  0.4552680000000  0.4711670000000 1.0
C      1  0.5899600000000  0.5537110000000  0.5095670000000 1.0
C      1  0.5292010000000  0.5981220000000  0.5113360000000 1.0
C      1  0.4573130000000  0.4694000000000  0.4089010000000 1.0
C      1  0.4959640000000  0.5481950000000  0.5893730000000 1.0
C      1  0.5368660000000  0.5079540000000  0.3940180000000 1.0
C      1  0.5454650000000  0.5616520000000  0.5853420000000 1.0
C      1  0.5345760000000  0.5411820000000  0.5415650000000 1.0
C      1  0.5908710000000  0.4911830000000  0.4750980000000 1.0
C      1  0.5553520000000  0.4876250000000  0.5948390000000 1.0
C      1  0.5885890000000  0.5421600000000  0.5582770000000 1.0
C      1  0.4713170000000  0.4927740000000  0.5353120000000 1.0
C      1  0.5085810000000  0.5059170000000  0.6126290000000 1.0
C      1  0.5014150000000  0.3970650000000  0.4573020000000 1.0
C      1  0.5215760000000  0.4954950000000  0.5320920000000 1.0
C      1  0.4938180000000  0.5847660000000  0.4832730000000 1.0
C      1  0.4376810000000  0.4707430000000  0.4571630000000 1.0
C      1  0.5223510000000  0.5821090000000  0.4880950000000 1.0
C      1  0.5196730000000  0.4686950000000  0.4536690000000 1.0
C      1  0.4524930000000  0.5740090000000  0.5137550000000 1.0
C      1  0.4476560000000  0.4133330000000  0.4708430000000 1.0
C      1  0.4331600000000  0.4950030000000  0.4430510000000 1.0
C      1  0.5501020000000  0.4337950000000  0.4844540000000 1.0
C      1  0.5560960000000  0.5465210000000  0.4697960000000 1.0
C      1  0.4696690000000  0.5318780000000  0.5730840000000 1.0
C      1  0.4901490000000  0.4617670000000  0.4573850000000 1.0
C      1  0.5843530000000  0.4921780000000  0.4485860000000 1.0
C      1  0.5109340000000  0.3988190000000  0.5267870000000 1.0
C      1  0.5740930000000  0.5729010000000  0.5232140000000 1.0
C      1  0.4644120000000  0.5179430000000  0.5256310000000 1.0
C      1  0.5141570000000  0.5344980000000  0.4997720000000 1.0
C      1  0.4106010000000  0.4747030000000  0.5503920000000 1.0
C      1  0.5045150000000  0.4469120000000  0.5409710000000 1.0
C      1  0.4553420000000  0.5371030000000  0.5456220000000 1.0
C      1  0.4683960000000  0.4238120000000  0.5164240000000 1.0
C      1  0.4652210000000  0.4747290000000  0.4957850000000 1.0
C      1  0.4941960000000  0.5306740000000  0.4073810000000 1.0
C      1  0.4642930000000  0.4666390000000  0.4676700000000 1.0
C      1  0.5516450000000  0.4180170000000  0.5059040000000 1.0
C      1  0.4246580000000  0.4742410000000  0.5734790000000 1.0
C      1  0.4936270000000  0.3958630000000  0.4828930000000 1.0
C      1  0.5049810000000  0.4591660000000  0.4082740000000 1.0
END
