TITL C-247197-3123-133 0.00406009666929985 125000 -313.642933582588 0 0 52 (C1) n - 1
REM
REM in /home/nfs/bkarasulu/CARBON/AIRSS/Generating-Clusters/LCBOP/Only-C1/SD-CG/FIRE-HFTN
REM
REM
REM
REM
REM
REM ./C.cell (11c1c37f851c82e70ff6c80c92926a4b)
REM AIRSS Version 0.9.1 bugfix July 2018 build 013d7b7c2542+ Fri, 06 Jul 2018 19:26:36 +0100
REM compiler GCC version 9.2.1 20190827 (Red Hat 9.2.1-1)
REM options -cpp -mtune=generic -march=x86-64 -g -O0 -fpre-include=/usr/include/finclude/math-vector-fortran.h
REM seed 238010463 1934947277 -1052056895 889005166 297333063 -2074327097 1782593773 1369913456 -1535734602 1721044433 1282514844 -491592487 770738889 -1266282341 -1545746674 595632005 1946266614 844942236 -1750384660 696820940 1975770546 -1597580649 479713086 1592190806 1784124049 -822746078 1814974193 1453880159 -1376848504 83419384 -1994979272 972294673 -1158764478
REM
CELL 1.54180   50.00000   50.00000   50.00000   90.00000   90.00000   90.00000
LATT -1
SFAC C  
C      1  0.5591650000000  0.5337630000000  0.5342490000000 1.0
C      1  0.4543220000000  0.5066270000000  0.4980840000000 1.0
C      1  0.4482510000000  0.5428340000000  0.4662450000000 1.0
C      1  0.5742580000000  0.5253030000000  0.5097390000000 1.0
C      1  0.5547490000000  0.5228430000000  0.4643950000000 1.0
C      1  0.5101770000000  0.5175010000000  0.4766340000000 1.0
C      1  0.5176360000000  0.4983480000000  0.4166410000000 1.0
C      1  0.4482900000000  0.5530390000000  0.5149620000000 1.0
C      1  0.4858930000000  0.4275360000000  0.4926140000000 1.0
C      1  0.4460980000000  0.4956920000000  0.4276500000000 1.0
C      1  0.5112550000000  0.4181940000000  0.4500440000000 1.0
C      1  0.4868420000000  0.4688160000000  0.6227430000000 1.0
C      1  0.4596630000000  0.4639620000000  0.4739970000000 1.0
C      1  0.4517530000000  0.5353500000000  0.4937100000000 1.0
C      1  0.4333580000000  0.5003970000000  0.4525650000000 1.0
C      1  0.5318280000000  0.5310780000000  0.5387070000000 1.0
C      1  0.4919630000000  0.4510230000000  0.6410960000000 1.0
C      1  0.5094910000000  0.4892770000000  0.4771940000000 1.0
C      1  0.4588890000000  0.5459390000000  0.5652800000000 1.0
C      1  0.4496990000000  0.5571020000000  0.5412290000000 1.0
C      1  0.4545000000000  0.5580440000000  0.5893450000000 1.0
C      1  0.4889860000000  0.4575040000000  0.4290500000000 1.0
C      1  0.5146190000000  0.5238300000000  0.4307100000000 1.0
C      1  0.5804530000000  0.4656110000000  0.5323340000000 1.0
C      1  0.4816860000000  0.4868540000000  0.6040200000000 1.0
C      1  0.5639260000000  0.5098870000000  0.4885640000000 1.0
C      1  0.4706090000000  0.4962810000000  0.5196190000000 1.0
C      1  0.5017520000000  0.4149530000000  0.4749850000000 1.0
C      1  0.5542350000000  0.4832970000000  0.4949200000000 1.0
C      1  0.5050390000000  0.4636180000000  0.5319710000000 1.0
C      1  0.5277400000000  0.5264480000000  0.4558180000000 1.0
C      1  0.5055120000000  0.5328520000000  0.4992410000000 1.0
C      1  0.4810520000000  0.4695030000000  0.5181550000000 1.0
C      1  0.5789780000000  0.5466970000000  0.5511910000000 1.0
C      1  0.4263590000000  0.5278190000000  0.4556420000000 1.0
C      1  0.4838720000000  0.5145740000000  0.5375850000000 1.0
C      1  0.4459510000000  0.4889000000000  0.4763550000000 1.0
C      1  0.4724310000000  0.5031350000000  0.4209560000000 1.0
C      1  0.5066700000000  0.5279420000000  0.5268860000000 1.0
C      1  0.6015460000000  0.5344070000000  0.5139500000000 1.0
C      1  0.4730360000000  0.4523650000000  0.4966400000000 1.0
C      1  0.4701900000000  0.5452890000000  0.4480560000000 1.0
C      1  0.4680130000000  0.4559160000000  0.4482460000000 1.0
C      1  0.4849340000000  0.5281140000000  0.4307730000000 1.0
C      1  0.4733150000000  0.5214100000000  0.5629940000000 1.0
C      1  0.5564070000000  0.4711180000000  0.5207090000000 1.0
C      1  0.5317810000000  0.4645590000000  0.5330480000000 1.0
C      1  0.5318870000000  0.4744250000000  0.4799200000000 1.0
C      1  0.4769160000000  0.5044800000000  0.5848370000000 1.0
C      1  0.4932330000000  0.4827670000000  0.4169110000000 1.0
C      1  0.5070550000000  0.4359150000000  0.4301410000000 1.0
C      1  0.6037380000000  0.5468620000000  0.5386500000000 1.0
END
