TITL C-247196-3112-247 3.35491212091434 125000 -992.744632462475 0 0 161 (C1) n - 1
REM
REM in /home/nfs/bkarasulu/CARBON/AIRSS/Generating-Clusters/LCBOP/Only-C1/SD-CG/FIRE-HFTN
REM
REM
REM
REM
REM
REM ./C.cell (11c1c37f851c82e70ff6c80c92926a4b)
REM AIRSS Version 0.9.1 bugfix July 2018 build 013d7b7c2542+ Fri, 06 Jul 2018 19:26:36 +0100
REM compiler GCC version 9.2.1 20190827 (Red Hat 9.2.1-1)
REM options -cpp -mtune=generic -march=x86-64 -g -O0 -fpre-include=/usr/include/finclude/math-vector-fortran.h
REM seed -797525627 362325898 720705374 403365569 1084635582 -883805330 -385663172 1707327933 1246684328 -1720687538 -1096133555 -632525404 -897063739 -1453394306 1554474810 716182011 -1219829525 -1247177630 997664357 -1023705856 -113195134 332045784 -845300142 -1589568386 -30303090 1616263923 822840250 1108050874 -453766456 1908879661 -52558584 -1724937657 -71704808
REM
CELL 1.54180   50.00000   50.00000   50.00000   90.00000   90.00000   90.00000
LATT -1
SFAC C  
C      1  0.6103720000000  0.4770690000000  0.4010650000000 1.0
C      1  0.4081940000000  0.5635920000000  0.4395900000000 1.0
C      1  0.3966580000000  0.5687950000000  0.4862230000000 1.0
C      1  0.5529170000000  0.5625430000000  0.5560150000000 1.0
C      1  0.6156910000000  0.5159610000000  0.4245100000000 1.0
C      1  0.4470780000000  0.4074720000000  0.4482450000000 1.0
C      1  0.5951790000000  0.4960980000000  0.4175200000000 1.0
C      1  0.4800890000000  0.4881470000000  0.5433210000000 1.0
C      1  0.5179730000000  0.4956150000000  0.4798450000000 1.0
C      1  0.4022670000000  0.4559760000000  0.5887680000000 1.0
C      1  0.6403030000000  0.5088870000000  0.4132480000000 1.0
C      1  0.5463940000000  0.4542550000000  0.4940250000000 1.0
C      1  0.4855150000000  0.4194220000000  0.3954990000000 1.0
C      1  0.5814630000000  0.4962370000000  0.6081450000000 1.0
C      1  0.5687320000000  0.4952100000000  0.4251380000000 1.0
C      1  0.4974070000000  0.4512870000000  0.4921450000000 1.0
C      1  0.4965990000000  0.5921780000000  0.5494710000000 1.0
C      1  0.4776930000000  0.4713250000000  0.5970900000000 1.0
C      1  0.5109860000000  0.4091350000000  0.5703460000000 1.0
C      1  0.5782830000000  0.6024350000000  0.5305910000000 1.0
C      1  0.4896010000000  0.5643620000000  0.5886310000000 1.0
C      1  0.4495450000000  0.6185080000000  0.5393900000000 1.0
C      1  0.3821450000000  0.5016350000000  0.4966030000000 1.0
C      1  0.5385840000000  0.4853670000000  0.5498020000000 1.0
C      1  0.4728400000000  0.4977860000000  0.4194660000000 1.0
C      1  0.4929820000000  0.4802750000000  0.4851110000000 1.0
C      1  0.4954580000000  0.5160970000000  0.6028990000000 1.0
C      1  0.4567840000000  0.4911790000000  0.5896640000000 1.0
C      1  0.4371830000000  0.5079660000000  0.5073910000000 1.0
C      1  0.4948880000000  0.5507140000000  0.3969360000000 1.0
C      1  0.4622070000000  0.5810000000000  0.5155210000000 1.0
C      1  0.5270180000000  0.6079650000000  0.4929890000000 1.0
C      1  0.5522470000000  0.4233340000000  0.4325590000000 1.0
C      1  0.4162210000000  0.4557830000000  0.4489680000000 1.0
C      1  0.5213880000000  0.4663370000000  0.5369780000000 1.0
C      1  0.5424930000000  0.4981370000000  0.4346000000000 1.0
C      1  0.3842110000000  0.5266980000000  0.5064130000000 1.0
C      1  0.5303180000000  0.5324630000000  0.5235740000000 1.0
C      1  0.4307900000000  0.4956780000000  0.5786750000000 1.0
C      1  0.4257210000000  0.5160850000000  0.5569810000000 1.0
C      1  0.5038650000000  0.5424510000000  0.4810390000000 1.0
C      1  0.5227270000000  0.4542790000000  0.5099870000000 1.0
C      1  0.4170640000000  0.4803740000000  0.4671340000000 1.0
C      1  0.5250760000000  0.4723800000000  0.6114950000000 1.0
C      1  0.4310580000000  0.6220750000000  0.5196900000000 1.0
C      1  0.4479440000000  0.5921860000000  0.4384000000000 1.0
C      1  0.5748410000000  0.3896610000000  0.4799930000000 1.0
C      1  0.5347810000000  0.4842280000000  0.4583290000000 1.0
C      1  0.4744020000000  0.5127090000000  0.5831460000000 1.0
C      1  0.5341450000000  0.5691360000000  0.5769540000000 1.0
C      1  0.5536640000000  0.4280760000000  0.5608980000000 1.0
C      1  0.4927170000000  0.5782590000000  0.4486310000000 1.0
C      1  0.6024090000000  0.5389920000000  0.5413820000000 1.0
C      1  0.5960010000000  0.6361100000000  0.5007500000000 1.0
C      1  0.4778000000000  0.5697860000000  0.4049520000000 1.0
C      1  0.4857430000000  0.5398970000000  0.5475160000000 1.0
C      1  0.4106630000000  0.5358340000000  0.3963580000000 1.0
C      1  0.4679080000000  0.4892420000000  0.4756750000000 1.0
C      1  0.5800570000000  0.5138770000000  0.4882300000000 1.0
C      1  0.4485820000000  0.4521300000000  0.5317010000000 1.0
C      1  0.5128250000000  0.5322240000000  0.4039800000000 1.0
C      1  0.4545350000000  0.5332900000000  0.5025420000000 1.0
C      1  0.4317740000000  0.5220510000000  0.4358220000000 1.0
C      1  0.4076530000000  0.4764620000000  0.5432730000000 1.0
C      1  0.4515320000000  0.3830090000000  0.5525070000000 1.0
C      1  0.4260660000000  0.4110250000000  0.4913480000000 1.0
C      1  0.4725670000000  0.5821440000000  0.4296870000000 1.0
C      1  0.6110510000000  0.4537990000000  0.4662410000000 1.0
C      1  0.4814680000000  0.5133040000000  0.5554600000000 1.0
C      1  0.5801770000000  0.5211920000000  0.5461690000000 1.0
C      1  0.4701560000000  0.5147480000000  0.4625070000000 1.0
C      1  0.4307040000000  0.4492490000000  0.4254830000000 1.0
C      1  0.5807260000000  0.4853870000000  0.4841150000000 1.0
C      1  0.5513210000000  0.6185560000000  0.4948610000000 1.0
C      1  0.4799820000000  0.5893270000000  0.4946660000000 1.0
C      1  0.3978880000000  0.5516350000000  0.5091040000000 1.0
C      1  0.4149110000000  0.5909520000000  0.4788090000000 1.0
C      1  0.5007390000000  0.4392880000000  0.4587650000000 1.0
C      1  0.4258160000000  0.4641450000000  0.4021100000000 1.0
C      1  0.4117210000000  0.5114650000000  0.3847220000000 1.0
C      1  0.5645250000000  0.4420450000000  0.4498650000000 1.0
C      1  0.5797450000000  0.4709800000000  0.5673080000000 1.0
C      1  0.4181510000000  0.5432390000000  0.4225430000000 1.0
C      1  0.6297360000000  0.5623110000000  0.5080750000000 1.0
C      1  0.4246080000000  0.5442930000000  0.5540850000000 1.0
C      1  0.5045170000000  0.5433520000000  0.6035070000000 1.0
C      1  0.4716530000000  0.5559620000000  0.5680660000000 1.0
C      1  0.4456590000000  0.5579870000000  0.5140320000000 1.0
C      1  0.5320420000000  0.5505840000000  0.5990610000000 1.0
C      1  0.4042760000000  0.4292100000000  0.4870600000000 1.0
C      1  0.5696530000000  0.5831110000000  0.5466080000000 1.0
C      1  0.4491700000000  0.4272680000000  0.4280610000000 1.0
C      1  0.5705990000000  0.4649930000000  0.5023560000000 1.0
C      1  0.4934480000000  0.4268030000000  0.5801110000000 1.0
C      1  0.5078760000000  0.5831540000000  0.5744780000000 1.0
C      1  0.5897720000000  0.4927180000000  0.5501890000000 1.0
C      1  0.5276950000000  0.4000210000000  0.5262850000000 1.0
C      1  0.5325160000000  0.4108380000000  0.5521200000000 1.0
C      1  0.4239820000000  0.5856800000000  0.4511890000000 1.0
C      1  0.5277860000000  0.5229170000000  0.4929880000000 1.0
C      1  0.4879430000000  0.4538940000000  0.5763160000000 1.0
C      1  0.4594140000000  0.5156760000000  0.4366350000000 1.0
C      1  0.5454550000000  0.4991320000000  0.5722760000000 1.0
C      1  0.4004860000000  0.4345430000000  0.4594550000000 1.0
C      1  0.4180130000000  0.4855940000000  0.3880950000000 1.0
C      1  0.5601120000000  0.5088110000000  0.5950820000000 1.0
C      1  0.4625160000000  0.4289070000000  0.5266920000000 1.0
C      1  0.5502150000000  0.3829110000000  0.4879850000000 1.0
C      1  0.5077910000000  0.5490590000000  0.5316600000000 1.0
C      1  0.4582040000000  0.4055850000000  0.5413160000000 1.0
C      1  0.4209550000000  0.6116420000000  0.4969410000000 1.0
C      1  0.3951360000000  0.4522050000000  0.5018050000000 1.0
C      1  0.5540400000000  0.5361130000000  0.5418060000000 1.0
C      1  0.5097220000000  0.5776710000000  0.5276580000000 1.0
C      1  0.6011360000000  0.4880720000000  0.6231870000000 1.0
C      1  0.4574680000000  0.4771440000000  0.5321050000000 1.0
C      1  0.4437570000000  0.5582260000000  0.5693350000000 1.0
C      1  0.6140140000000  0.5415850000000  0.5158610000000 1.0
C      1  0.3954690000000  0.4556890000000  0.5293150000000 1.0
C      1  0.5902990000000  0.4578200000000  0.5211710000000 1.0
C      1  0.4687750000000  0.5974590000000  0.5396670000000 1.0
C      1  0.6070070000000  0.5197960000000  0.4994550000000 1.0
C      1  0.5084580000000  0.3964870000000  0.3541510000000 1.0
C      1  0.6190060000000  0.4927790000000  0.5051350000000 1.0
C      1  0.5464490000000  0.4586940000000  0.4651300000000 1.0
C      1  0.6092270000000  0.4775300000000  0.4812930000000 1.0
C      1  0.5386590000000  0.5656360000000  0.4560400000000 1.0
C      1  0.5036310000000  0.3974700000000  0.4807130000000 1.0
C      1  0.4202230000000  0.5546520000000  0.5273500000000 1.0
C      1  0.4754190000000  0.4314120000000  0.4183970000000 1.0
C      1  0.3942920000000  0.4775630000000  0.4873590000000 1.0
C      1  0.4789470000000  0.4298320000000  0.5038290000000 1.0
C      1  0.6370610000000  0.4851890000000  0.3989590000000 1.0
C      1  0.4149900000000  0.5044170000000  0.4498680000000 1.0
C      1  0.4766400000000  0.4058270000000  0.4880080000000 1.0
C      1  0.4212130000000  0.5008470000000  0.5320370000000 1.0
C      1  0.5006710000000  0.4871290000000  0.6097740000000 1.0
C      1  0.5257600000000  0.5152840000000  0.4199870000000 1.0
C      1  0.4411830000000  0.4875220000000  0.4860310000000 1.0
C      1  0.5915110000000  0.4084500000000  0.4706260000000 1.0
C      1  0.5442550000000  0.4575340000000  0.5992860000000 1.0
C      1  0.4880910000000  0.4762290000000  0.4248390000000 1.0
C      1  0.5591710000000  0.5516110000000  0.4659140000000 1.0
C      1  0.3888430000000  0.5578420000000  0.4603960000000 1.0
C      1  0.5757820000000  0.6195430000000  0.5085220000000 1.0
C      1  0.4968210000000  0.4079020000000  0.3744940000000 1.0
C      1  0.5072400000000  0.5911100000000  0.5026350000000 1.0
C      1  0.5114700000000  0.4129790000000  0.4578830000000 1.0
C      1  0.6067260000000  0.4806690000000  0.5291020000000 1.0
C      1  0.5524260000000  0.5334060000000  0.6057540000000 1.0
C      1  0.5113950000000  0.5624270000000  0.4617960000000 1.0
C      1  0.4761760000000  0.5337220000000  0.4825730000000 1.0
C      1  0.5309220000000  0.4079070000000  0.4384050000000 1.0
C      1  0.4499260000000  0.4038640000000  0.4763090000000 1.0
C      1  0.4902980000000  0.4499350000000  0.4344540000000 1.0
C      1  0.5255380000000  0.3913160000000  0.4992020000000 1.0
C      1  0.5907020000000  0.4347360000000  0.4601930000000 1.0
C      1  0.5610340000000  0.4508900000000  0.5767650000000 1.0
C      1  0.5572410000000  0.5292450000000  0.4827570000000 1.0
C      1  0.4971450000000  0.4671290000000  0.5521500000000 1.0
C      1  0.4126420000000  0.4743420000000  0.5717000000000 1.0
END
