TITL C-247202-1916-292 0.264291298205017 125000 -740.780565899469 0 0 123 (C1) n - 1
REM
REM in /home/nfs/bkarasulu/CARBON/AIRSS/Generating-Clusters/LCBOP/Only-C1/SD-CG/FIRE-HFTN
REM
REM
REM
REM
REM
REM ./C.cell (11c1c37f851c82e70ff6c80c92926a4b)
REM AIRSS Version 0.9.1 bugfix July 2018 build 013d7b7c2542+ Fri, 06 Jul 2018 19:26:36 +0100
REM compiler GCC version 9.2.1 20190827 (Red Hat 9.2.1-1)
REM options -cpp -mtune=generic -march=x86-64 -g -O0 -fpre-include=/usr/include/finclude/math-vector-fortran.h
REM seed -635688 849345940 523656176 1166001625 -894771463 1114823757 -796346566 1983961227 423294129 -1207712694 625806880 -114519973 -1452402090 1978724607 105507137 1671395317 -28161532 1665514590 976569349 268465344 -1513540407 -2089926526 -1599916584 1297024311 -742696714 1757863907 -1202443082 1294413432 1665328913 -745933811 -1694049674 201351257 1677349466
REM
CELL 1.54180   50.00000   50.00000   50.00000   90.00000   90.00000   90.00000
LATT -1
SFAC C  
C      1  0.5206170000000  0.5825410000000  0.5748220000000 1.0
C      1  0.6184030000000  0.4562530000000  0.5282140000000 1.0
C      1  0.5414910000000  0.4021850000000  0.4845150000000 1.0
C      1  0.4625270000000  0.5297300000000  0.5204730000000 1.0
C      1  0.5513150000000  0.4774110000000  0.5634470000000 1.0
C      1  0.5961840000000  0.4483450000000  0.4846840000000 1.0
C      1  0.4667880000000  0.5341500000000  0.5482620000000 1.0
C      1  0.6114750000000  0.5047180000000  0.4951200000000 1.0
C      1  0.4370550000000  0.4076050000000  0.4898270000000 1.0
C      1  0.4463830000000  0.4346880000000  0.6299270000000 1.0
C      1  0.5651370000000  0.5891110000000  0.4732540000000 1.0
C      1  0.5084540000000  0.4577450000000  0.5799880000000 1.0
C      1  0.5177740000000  0.5633550000000  0.5965460000000 1.0
C      1  0.5582310000000  0.5165040000000  0.4896550000000 1.0
C      1  0.4518800000000  0.4286260000000  0.4458610000000 1.0
C      1  0.4271640000000  0.4761470000000  0.5721360000000 1.0
C      1  0.4989210000000  0.4325130000000  0.5697780000000 1.0
C      1  0.5297570000000  0.4369610000000  0.5185940000000 1.0
C      1  0.5143320000000  0.5229760000000  0.5553610000000 1.0
C      1  0.4349000000000  0.5809000000000  0.4752380000000 1.0
C      1  0.5177640000000  0.4665530000000  0.4113610000000 1.0
C      1  0.4980770000000  0.4214760000000  0.4499800000000 1.0
C      1  0.4400540000000  0.4505730000000  0.5787810000000 1.0
C      1  0.5434380000000  0.4089390000000  0.4579950000000 1.0
C      1  0.4288650000000  0.4144990000000  0.5142530000000 1.0
C      1  0.5768890000000  0.4637480000000  0.4714890000000 1.0
C      1  0.4502190000000  0.5233410000000  0.5683000000000 1.0
C      1  0.4959460000000  0.4091190000000  0.5020610000000 1.0
C      1  0.5261700000000  0.5869810000000  0.4368480000000 1.0
C      1  0.3743670000000  0.5087970000000  0.3546660000000 1.0
C      1  0.6141360000000  0.4826120000000  0.5380610000000 1.0
C      1  0.5539550000000  0.5553830000000  0.5184640000000 1.0
C      1  0.4088420000000  0.5600030000000  0.5224260000000 1.0
C      1  0.5724540000000  0.5261760000000  0.4355780000000 1.0
C      1  0.4723390000000  0.5942600000000  0.5540740000000 1.0
C      1  0.4252240000000  0.4617720000000  0.5262150000000 1.0
C      1  0.3572800000000  0.5135510000000  0.3355590000000 1.0
C      1  0.5199480000000  0.4627980000000  0.5238520000000 1.0
C      1  0.5342880000000  0.4703930000000  0.5860160000000 1.0
C      1  0.6025160000000  0.5055590000000  0.5238220000000 1.0
C      1  0.5875710000000  0.5058580000000  0.4490110000000 1.0
C      1  0.5422180000000  0.4953300000000  0.4817470000000 1.0
C      1  0.4081280000000  0.5236850000000  0.4821210000000 1.0
C      1  0.5030140000000  0.4888390000000  0.4103310000000 1.0
C      1  0.4732390000000  0.4807040000000  0.5543050000000 1.0
C      1  0.4710050000000  0.4754650000000  0.5269310000000 1.0
C      1  0.4879780000000  0.4771310000000  0.5763260000000 1.0
C      1  0.5356290000000  0.4799570000000  0.5395740000000 1.0
C      1  0.5343520000000  0.5758330000000  0.5240250000000 1.0
C      1  0.4536370000000  0.5652650000000  0.4874680000000 1.0
C      1  0.4458000000000  0.4764500000000  0.5129070000000 1.0
C      1  0.4770280000000  0.4238060000000  0.5526730000000 1.0
C      1  0.3689990000000  0.5003770000000  0.4526630000000 1.0
C      1  0.4915510000000  0.5101850000000  0.4216910000000 1.0
C      1  0.4849450000000  0.4122540000000  0.4757270000000 1.0
C      1  0.4469090000000  0.5883980000000  0.5470100000000 1.0
C      1  0.5372410000000  0.4513790000000  0.4253500000000 1.0
C      1  0.4991260000000  0.5002660000000  0.5000110000000 1.0
C      1  0.4826370000000  0.4111360000000  0.5273910000000 1.0
C      1  0.4544630000000  0.4715860000000  0.4657570000000 1.0
C      1  0.5064390000000  0.5656310000000  0.5321670000000 1.0
C      1  0.4016950000000  0.5420900000000  0.5034080000000 1.0
C      1  0.3505520000000  0.4890270000000  0.4381560000000 1.0
C      1  0.5078480000000  0.5265730000000  0.4634720000000 1.0
C      1  0.4546580000000  0.5214820000000  0.4519610000000 1.0
C      1  0.4885220000000  0.5251010000000  0.5086490000000 1.0
C      1  0.5635370000000  0.4641340000000  0.4268450000000 1.0
C      1  0.5279830000000  0.5068880000000  0.5394360000000 1.0
C      1  0.5817320000000  0.5175620000000  0.5407980000000 1.0
C      1  0.5303970000000  0.4511710000000  0.4716370000000 1.0
C      1  0.4959810000000  0.4759110000000  0.5138280000000 1.0
C      1  0.4239860000000  0.4940090000000  0.4165870000000 1.0
C      1  0.6184910000000  0.4566960000000  0.4996930000000 1.0
C      1  0.5357260000000  0.6000190000000  0.5089070000000 1.0
C      1  0.6188900000000  0.5402120000000  0.4638610000000 1.0
C      1  0.5425050000000  0.5672540000000  0.4277190000000 1.0
C      1  0.4367950000000  0.5021720000000  0.5784890000000 1.0
C      1  0.4495900000000  0.4336220000000  0.5566530000000 1.0
C      1  0.4766760000000  0.4252710000000  0.4305720000000 1.0
C      1  0.4251670000000  0.5760870000000  0.5367670000000 1.0
C      1  0.4084150000000  0.4990720000000  0.3940840000000 1.0
C      1  0.5613440000000  0.5513970000000  0.4418700000000 1.0
C      1  0.6285700000000  0.4817450000000  0.4905780000000 1.0
C      1  0.5337810000000  0.4895470000000  0.6071190000000 1.0
C      1  0.5304710000000  0.5157770000000  0.6122840000000 1.0
C      1  0.4122630000000  0.4748090000000  0.5477530000000 1.0
C      1  0.5242450000000  0.4134620000000  0.5040860000000 1.0
C      1  0.4950040000000  0.5416470000000  0.5497180000000 1.0
C      1  0.5408170000000  0.6018460000000  0.4810260000000 1.0
C      1  0.5154030000000  0.5023500000000  0.4773840000000 1.0
C      1  0.4405300000000  0.4547560000000  0.4473820000000 1.0
C      1  0.5719290000000  0.4979280000000  0.5609830000000 1.0
C      1  0.5269790000000  0.4325350000000  0.4481640000000 1.0
C      1  0.4808480000000  0.5730530000000  0.4886370000000 1.0
C      1  0.4483870000000  0.5391580000000  0.4980510000000 1.0
C      1  0.4784300000000  0.4235280000000  0.4035290000000 1.0
C      1  0.4327260000000  0.4347500000000  0.5329790000000 1.0
C      1  0.4382600000000  0.5177210000000  0.4794120000000 1.0
C      1  0.4423570000000  0.4421650000000  0.6052920000000 1.0
C      1  0.5645430000000  0.5587840000000  0.5654770000000 1.0
C      1  0.6218270000000  0.4341720000000  0.5436210000000 1.0
C      1  0.4842830000000  0.5229850000000  0.4463410000000 1.0
C      1  0.5505860000000  0.5449270000000  0.4902660000000 1.0
C      1  0.6050820000000  0.5170720000000  0.4699800000000 1.0
C      1  0.5484650000000  0.5829660000000  0.5661560000000 1.0
C      1  0.3916790000000  0.5039550000000  0.3741440000000 1.0
C      1  0.4256980000000  0.4681170000000  0.4277470000000 1.0
C      1  0.3887880000000  0.5116150000000  0.4662300000000 1.0
C      1  0.4385100000000  0.5145680000000  0.4293400000000 1.0
C      1  0.5692640000000  0.5443320000000  0.5404640000000 1.0
C      1  0.5190610000000  0.5981100000000  0.4621820000000 1.0
C      1  0.4934640000000  0.5929480000000  0.4730250000000 1.0
C      1  0.4998620000000  0.5871110000000  0.5539270000000 1.0
C      1  0.4438800000000  0.4879880000000  0.4867460000000 1.0
C      1  0.4561530000000  0.4138810000000  0.4706610000000 1.0
C      1  0.4816530000000  0.4711070000000  0.4626230000000 1.0
C      1  0.5200580000000  0.5468890000000  0.4816140000000 1.0
C      1  0.5803600000000  0.4775210000000  0.4462700000000 1.0
C      1  0.5360110000000  0.5416840000000  0.6027470000000 1.0
C      1  0.4991020000000  0.5538660000000  0.5033410000000 1.0
C      1  0.5649300000000  0.5610160000000  0.4688970000000 1.0
C      1  0.5614800000000  0.5445760000000  0.5898460000000 1.0
C      1  0.5503000000000  0.4687450000000  0.4798940000000 1.0
END
