TITL C-247201-3759-498 1.08536776048323e-06 125000 -1020.58568796394 0 0 166 (C1) n - 1
REM
REM in /home/nfs/bkarasulu/CARBON/AIRSS/Generating-Clusters/LCBOP/Only-C1/SD-CG/FIRE-HFTN
REM
REM
REM
REM
REM
REM ./C.cell (11c1c37f851c82e70ff6c80c92926a4b)
REM AIRSS Version 0.9.1 bugfix July 2018 build 013d7b7c2542+ Fri, 06 Jul 2018 19:26:36 +0100
REM compiler GCC version 9.2.1 20190827 (Red Hat 9.2.1-1)
REM options -cpp -mtune=generic -march=x86-64 -g -O0 -fpre-include=/usr/include/finclude/math-vector-fortran.h
REM seed -1369211379 2100694843 -1625245709 -1260801722 -2067736013 -1763575404 414343979 -55818269 158796287 1306800096 1753086331 666070085 -1928235801 1122941752 954503555 -516082688 -1803124153 -1831531077 1633789367 2042174078 507290515 -783082463 -1190480000 1648785780 1198854829 -1014562228 -1085810410 1091378744 -279637286 -1621957976 -1678745049 303353996 -30719957
REM
CELL 1.54180   50.00000   50.00000   50.00000   90.00000   90.00000   90.00000
LATT -1
SFAC C  
C      1  0.4946110000000  0.5063550000000  0.5281450000000 1.0
C      1  0.4751490000000  0.5814580000000  0.5945510000000 1.0
C      1  0.4350230000000  0.4107920000000  0.5317770000000 1.0
C      1  0.5733310000000  0.4231900000000  0.4407280000000 1.0
C      1  0.6246060000000  0.5064340000000  0.4591980000000 1.0
C      1  0.4987350000000  0.4542430000000  0.5399050000000 1.0
C      1  0.5055450000000  0.5453890000000  0.6002490000000 1.0
C      1  0.5303810000000  0.5809570000000  0.4191210000000 1.0
C      1  0.5964700000000  0.5722090000000  0.5932540000000 1.0
C      1  0.4792720000000  0.6119540000000  0.4525070000000 1.0
C      1  0.4906060000000  0.4948450000000  0.3694510000000 1.0
C      1  0.6182620000000  0.4767790000000  0.4648390000000 1.0
C      1  0.5294150000000  0.4861750000000  0.5580340000000 1.0
C      1  0.4839070000000  0.3959820000000  0.5876630000000 1.0
C      1  0.4467720000000  0.3954030000000  0.4692670000000 1.0
C      1  0.5247720000000  0.4483660000000  0.4601860000000 1.0
C      1  0.5354640000000  0.4906520000000  0.5076170000000 1.0
C      1  0.5216320000000  0.4408020000000  0.5793480000000 1.0
C      1  0.4999030000000  0.3978580000000  0.5638920000000 1.0
C      1  0.5135910000000  0.5231810000000  0.4479610000000 1.0
C      1  0.5368570000000  0.5742880000000  0.4647560000000 1.0
C      1  0.4669810000000  0.5261060000000  0.6191220000000 1.0
C      1  0.4513570000000  0.5089390000000  0.5468740000000 1.0
C      1  0.4914560000000  0.4403750000000  0.4937090000000 1.0
C      1  0.4563380000000  0.3968530000000  0.5432510000000 1.0
C      1  0.5238430000000  0.4136240000000  0.5686850000000 1.0
C      1  0.5365830000000  0.5331880000000  0.3990750000000 1.0
C      1  0.4029710000000  0.5342520000000  0.4881380000000 1.0
C      1  0.4061390000000  0.4845590000000  0.5911500000000 1.0
C      1  0.4840160000000  0.3915060000000  0.5396760000000 1.0
C      1  0.5113460000000  0.6094830000000  0.4909230000000 1.0
C      1  0.5167830000000  0.4717650000000  0.6175770000000 1.0
C      1  0.4796620000000  0.5550950000000  0.4222500000000 1.0
C      1  0.4832180000000  0.4884640000000  0.4602060000000 1.0
C      1  0.5782380000000  0.5663100000000  0.5739300000000 1.0
C      1  0.5017070000000  0.4353250000000  0.4674870000000 1.0
C      1  0.5986590000000  0.5152050000000  0.5248770000000 1.0
C      1  0.5263050000000  0.4335810000000  0.3845590000000 1.0
C      1  0.4741350000000  0.5812300000000  0.4118870000000 1.0
C      1  0.4367420000000  0.5942880000000  0.4706010000000 1.0
C      1  0.4493730000000  0.4904290000000  0.4951060000000 1.0
C      1  0.4178300000000  0.5539250000000  0.4475600000000 1.0
C      1  0.5774410000000  0.4517020000000  0.4341050000000 1.0
C      1  0.5335230000000  0.5280250000000  0.4687100000000 1.0
C      1  0.5349540000000  0.4614230000000  0.5090180000000 1.0
C      1  0.5949480000000  0.4696230000000  0.4478480000000 1.0
C      1  0.4094760000000  0.4355580000000  0.4142650000000 1.0
C      1  0.4000040000000  0.5498780000000  0.5099770000000 1.0
C      1  0.4948060000000  0.5227500000000  0.6152260000000 1.0
C      1  0.4464350000000  0.4505480000000  0.4491870000000 1.0
C      1  0.5462280000000  0.5075540000000  0.4075270000000 1.0
C      1  0.5080160000000  0.4948230000000  0.4442910000000 1.0
C      1  0.4150370000000  0.5773990000000  0.4640050000000 1.0
C      1  0.5250730000000  0.5486580000000  0.5523610000000 1.0
C      1  0.5920260000000  0.5621960000000  0.4849590000000 1.0
C      1  0.4122470000000  0.5117690000000  0.5924400000000 1.0
C      1  0.4120410000000  0.5291460000000  0.4611150000000 1.0
C      1  0.4526300000000  0.6022160000000  0.4482680000000 1.0
C      1  0.6297530000000  0.5189800000000  0.4845320000000 1.0
C      1  0.5553860000000  0.5820500000000  0.5690170000000 1.0
C      1  0.4091150000000  0.4804680000000  0.4718900000000 1.0
C      1  0.4869630000000  0.5170630000000  0.3865010000000 1.0
C      1  0.5237320000000  0.5900120000000  0.4458130000000 1.0
C      1  0.5553530000000  0.4140500000000  0.4200880000000 1.0
C      1  0.4654560000000  0.4132440000000  0.5970610000000 1.0
C      1  0.5635820000000  0.5182170000000  0.5576490000000 1.0
C      1  0.4606660000000  0.5658460000000  0.5014680000000 1.0
C      1  0.5394520000000  0.5279150000000  0.5397640000000 1.0
C      1  0.5087210000000  0.5400640000000  0.5730030000000 1.0
C      1  0.5803400000000  0.5438730000000  0.5570950000000 1.0
C      1  0.5783690000000  0.5543660000000  0.4618860000000 1.0
C      1  0.4094150000000  0.4763010000000  0.5206420000000 1.0
C      1  0.5291250000000  0.5961330000000  0.5111310000000 1.0
C      1  0.5588580000000  0.4455300000000  0.5095590000000 1.0
C      1  0.4178290000000  0.5014220000000  0.4526790000000 1.0
C      1  0.5239290000000  0.5031170000000  0.5321690000000 1.0
C      1  0.4062920000000  0.4283970000000  0.4743350000000 1.0
C      1  0.5016800000000  0.5388910000000  0.4271570000000 1.0
C      1  0.4454870000000  0.5822980000000  0.5540370000000 1.0
C      1  0.5423450000000  0.4357310000000  0.4063150000000 1.0
C      1  0.5723220000000  0.4240000000000  0.5648340000000 1.0
C      1  0.5181520000000  0.4602350000000  0.5592330000000 1.0
C      1  0.4582900000000  0.4534820000000  0.5673910000000 1.0
C      1  0.4701290000000  0.4399900000000  0.4122290000000 1.0
C      1  0.5718730000000  0.4156910000000  0.4677250000000 1.0
C      1  0.4741820000000  0.5014170000000  0.4855520000000 1.0
C      1  0.5059170000000  0.6064930000000  0.4614820000000 1.0
C      1  0.5089310000000  0.4500800000000  0.5137860000000 1.0
C      1  0.5148150000000  0.3735110000000  0.5033600000000 1.0
C      1  0.5172470000000  0.5935260000000  0.5381000000000 1.0
C      1  0.5144090000000  0.5006850000000  0.6155960000000 1.0
C      1  0.4739010000000  0.4931320000000  0.5433150000000 1.0
C      1  0.5176560000000  0.3769720000000  0.4762650000000 1.0
C      1  0.5799070000000  0.5643170000000  0.5106080000000 1.0
C      1  0.4921830000000  0.6001470000000  0.5503510000000 1.0
C      1  0.5899800000000  0.5440980000000  0.5293010000000 1.0
C      1  0.4554720000000  0.4362830000000  0.5876370000000 1.0
C      1  0.5006100000000  0.5731060000000  0.6047870000000 1.0
C      1  0.4004130000000  0.4681560000000  0.5708340000000 1.0
C      1  0.4549670000000  0.5402420000000  0.4159020000000 1.0
C      1  0.4644900000000  0.4659910000000  0.3993620000000 1.0
C      1  0.4284370000000  0.4127990000000  0.4834260000000 1.0
C      1  0.4715480000000  0.3860910000000  0.4828470000000 1.0
C      1  0.5516820000000  0.4606280000000  0.4190080000000 1.0
C      1  0.4647930000000  0.4368200000000  0.5017360000000 1.0
C      1  0.5508920000000  0.4073490000000  0.5628540000000 1.0
C      1  0.4833780000000  0.5201600000000  0.5054670000000 1.0
C      1  0.5391730000000  0.5080510000000  0.6022590000000 1.0
C      1  0.4655660000000  0.5416000000000  0.5142380000000 1.0
C      1  0.5470560000000  0.5012810000000  0.5763000000000 1.0
C      1  0.4485210000000  0.5863600000000  0.4247490000000 1.0
C      1  0.3921260000000  0.5477540000000  0.5577870000000 1.0
C      1  0.5464710000000  0.5596910000000  0.4065630000000 1.0
C      1  0.4224510000000  0.4834450000000  0.4971450000000 1.0
C      1  0.4727090000000  0.4175170000000  0.4307150000000 1.0
C      1  0.4895160000000  0.3819290000000  0.5134280000000 1.0
C      1  0.6060050000000  0.4558380000000  0.5095990000000 1.0
C      1  0.5327220000000  0.5757280000000  0.5538060000000 1.0
C      1  0.5428980000000  0.5054910000000  0.4839200000000 1.0
C      1  0.5503890000000  0.5504310000000  0.4660470000000 1.0
C      1  0.5869180000000  0.5597290000000  0.4356610000000 1.0
C      1  0.4198050000000  0.5852490000000  0.5408410000000 1.0
C      1  0.5796380000000  0.4951390000000  0.4501370000000 1.0
C      1  0.5749400000000  0.4520190000000  0.5714500000000 1.0
C      1  0.5574620000000  0.4891650000000  0.4662880000000 1.0
C      1  0.5807730000000  0.4694410000000  0.5484050000000 1.0
C      1  0.5335310000000  0.4532740000000  0.6024960000000 1.0
C      1  0.4375220000000  0.5225590000000  0.5987610000000 1.0
C      1  0.4700090000000  0.5925340000000  0.5670960000000 1.0
C      1  0.4594650000000  0.4755210000000  0.4501170000000 1.0
C      1  0.4854830000000  0.5956700000000  0.3920370000000 1.0
C      1  0.6162230000000  0.4766860000000  0.4943650000000 1.0
C      1  0.4455330000000  0.5540000000000  0.5592480000000 1.0
C      1  0.5817670000000  0.4548910000000  0.5236240000000 1.0
C      1  0.4508730000000  0.4006580000000  0.4408750000000 1.0
C      1  0.4609130000000  0.5171160000000  0.4002930000000 1.0
C      1  0.4794170000000  0.4708610000000  0.3753460000000 1.0
C      1  0.4348870000000  0.5590820000000  0.4254220000000 1.0
C      1  0.4409680000000  0.4229160000000  0.5069420000000 1.0
C      1  0.5633400000000  0.4238890000000  0.4918360000000 1.0
C      1  0.6168050000000  0.5042740000000  0.5057580000000 1.0
C      1  0.3986130000000  0.4540440000000  0.4687980000000 1.0
C      1  0.4508640000000  0.4915090000000  0.4091090000000 1.0
C      1  0.4936100000000  0.4140220000000  0.4507140000000 1.0
C      1  0.5617040000000  0.4580610000000  0.5965510000000 1.0
C      1  0.5561310000000  0.5825530000000  0.5104560000000 1.0
C      1  0.4510760000000  0.5914890000000  0.4948780000000 1.0
C      1  0.4409020000000  0.5482330000000  0.5859620000000 1.0
C      1  0.5741630000000  0.5616130000000  0.4120930000000 1.0
C      1  0.4403750000000  0.4929360000000  0.4360480000000 1.0
C      1  0.4637350000000  0.6142320000000  0.5056800000000 1.0
C      1  0.3952280000000  0.5295270000000  0.5774140000000 1.0
C      1  0.5082940000000  0.5304410000000  0.3998170000000 1.0
C      1  0.4517890000000  0.5358830000000  0.5390840000000 1.0
C      1  0.5834000000000  0.4982140000000  0.5442930000000 1.0
C      1  0.4100360000000  0.4104840000000  0.5426320000000 1.0
C      1  0.5352610000000  0.4850390000000  0.4219030000000 1.0
C      1  0.4579930000000  0.5604180000000  0.6042870000000 1.0
C      1  0.4891740000000  0.6228780000000  0.5033980000000 1.0
C      1  0.4012620000000  0.4673550000000  0.5442370000000 1.0
C      1  0.4740950000000  0.4655500000000  0.5477260000000 1.0
C      1  0.4017730000000  0.5627500000000  0.5353860000000 1.0
C      1  0.4270230000000  0.4410070000000  0.4328500000000 1.0
C      1  0.4946770000000  0.3889010000000  0.4643620000000 1.0
C      1  0.5454860000000  0.4641550000000  0.4635990000000 1.0
C      1  0.6001680000000  0.5144630000000  0.4459970000000 1.0
END
