TITL C-247195-3186-370 1.52629502268272e-07 125000 -348.036615420882 0 0 58 (C1) n - 1
REM
REM in /home/nfs/bkarasulu/CARBON/AIRSS/Generating-Clusters/LCBOP/Only-C1/SD-CG/FIRE-HFTN
REM
REM
REM
REM
REM
REM ./C.cell (11c1c37f851c82e70ff6c80c92926a4b)
REM AIRSS Version 0.9.1 bugfix July 2018 build 013d7b7c2542+ Fri, 06 Jul 2018 19:26:36 +0100
REM compiler GCC version 9.2.1 20190827 (Red Hat 9.2.1-1)
REM options -cpp -mtune=generic -march=x86-64 -g -O0 -fpre-include=/usr/include/finclude/math-vector-fortran.h
REM seed -1784110114 1279046883 551410483 143465877 -1454058919 1937221469 -1487910064 -2031545017 -2053875837 1960306056 362893115 165998358 -1510876138 -998475140 -573862164 1485615125 -1904250466 -55800328 -642255142 -462534573 1993865886 958763609 -1811793068 -1352557441 1880971573 -1445755516 -1898754895 -260797197 1099080885 -1907595603 1777746463 656010912 -168000816
REM
CELL 1.54180   50.00000   50.00000   50.00000   90.00000   90.00000   90.00000
LATT -1
SFAC C  
C      1  0.4358580000000  0.4987800000000  0.4907740000000 1.0
C      1  0.4558760000000  0.5373930000000  0.4602820000000 1.0
C      1  0.4880980000000  0.4814880000000  0.5572270000000 1.0
C      1  0.4617900000000  0.3982370000000  0.4751060000000 1.0
C      1  0.4905360000000  0.5435160000000  0.4297020000000 1.0
C      1  0.4401720000000  0.5206460000000  0.4760140000000 1.0
C      1  0.5611550000000  0.5054490000000  0.4428800000000 1.0
C      1  0.5638460000000  0.5287350000000  0.4866920000000 1.0
C      1  0.4915900000000  0.5351260000000  0.5938620000000 1.0
C      1  0.4732000000000  0.5597390000000  0.4688480000000 1.0
C      1  0.4579850000000  0.4384710000000  0.4219390000000 1.0
C      1  0.4675120000000  0.4620910000000  0.4904960000000 1.0
C      1  0.4940890000000  0.4650560000000  0.5036310000000 1.0
C      1  0.5607050000000  0.5290860000000  0.4579850000000 1.0
C      1  0.5044160000000  0.5121870000000  0.4978650000000 1.0
C      1  0.5329100000000  0.4553470000000  0.5326470000000 1.0
C      1  0.5054980000000  0.4467510000000  0.5255170000000 1.0
C      1  0.5498930000000  0.5748860000000  0.5432550000000 1.0
C      1  0.4818070000000  0.4020840000000  0.5197780000000 1.0
C      1  0.4855270000000  0.5492110000000  0.5311750000000 1.0
C      1  0.4464360000000  0.4762180000000  0.5037700000000 1.0
C      1  0.4979650000000  0.5597300000000  0.4526950000000 1.0
C      1  0.4793040000000  0.4134510000000  0.4587180000000 1.0
C      1  0.5067900000000  0.4112730000000  0.4658450000000 1.0
C      1  0.4464900000000  0.4396540000000  0.3985810000000 1.0
C      1  0.4626090000000  0.4928840000000  0.5479510000000 1.0
C      1  0.5318860000000  0.5656910000000  0.4886580000000 1.0
C      1  0.5430090000000  0.4876110000000  0.4346380000000 1.0
C      1  0.5340400000000  0.5006490000000  0.5510570000000 1.0
C      1  0.5102400000000  0.4963970000000  0.5666040000000 1.0
C      1  0.5053170000000  0.5126400000000  0.5890860000000 1.0
C      1  0.5244710000000  0.5627470000000  0.4614970000000 1.0
C      1  0.5037050000000  0.5888600000000  0.5524690000000 1.0
C      1  0.5505700000000  0.5494860000000  0.5310910000000 1.0
C      1  0.5667550000000  0.4871500000000  0.5178670000000 1.0
C      1  0.5502030000000  0.5487480000000  0.5025710000000 1.0
C      1  0.5457480000000  0.5506990000000  0.4470650000000 1.0
C      1  0.4703900000000  0.4377850000000  0.4468000000000 1.0
C      1  0.5182110000000  0.4792950000000  0.4399430000000 1.0
C      1  0.4633830000000  0.3937590000000  0.5017610000000 1.0
C      1  0.5440870000000  0.5266980000000  0.5464020000000 1.0
C      1  0.4818910000000  0.5552540000000  0.5791130000000 1.0
C      1  0.5462660000000  0.4797590000000  0.5356700000000 1.0
C      1  0.4469630000000  0.4735540000000  0.5322260000000 1.0
C      1  0.4572920000000  0.6011260000000  0.4991990000000 1.0
C      1  0.5044580000000  0.4185890000000  0.5152030000000 1.0
C      1  0.4751390000000  0.4611190000000  0.4620600000000 1.0
C      1  0.5178230000000  0.4135770000000  0.4904970000000 1.0
C      1  0.4872610000000  0.5660390000000  0.5537170000000 1.0
C      1  0.5732710000000  0.5057320000000  0.4997920000000 1.0
C      1  0.4991800000000  0.4777720000000  0.4601380000000 1.0
C      1  0.5058330000000  0.4863000000000  0.4874890000000 1.0
C      1  0.4865100000000  0.4530900000000  0.5484640000000 1.0
C      1  0.5302780000000  0.5918530000000  0.5501240000000 1.0
C      1  0.4935830000000  0.5312060000000  0.5131940000000 1.0
C      1  0.4582810000000  0.4484680000000  0.5424470000000 1.0
C      1  0.4665280000000  0.5305280000000  0.4341930000000 1.0
C      1  0.4653740000000  0.5803300000000  0.4857300000000 1.0
END
