TITL C-247202-1916-129 6.56096226656623e-07 125000 -240.126358630625 0 0 40 (C1) n - 1
REM
REM in /home/nfs/bkarasulu/CARBON/AIRSS/Generating-Clusters/LCBOP/Only-C1/SD-CG/FIRE-HFTN
REM
REM
REM
REM
REM
REM ./C.cell (11c1c37f851c82e70ff6c80c92926a4b)
REM AIRSS Version 0.9.1 bugfix July 2018 build 013d7b7c2542+ Fri, 06 Jul 2018 19:26:36 +0100
REM compiler GCC version 9.2.1 20190827 (Red Hat 9.2.1-1)
REM options -cpp -mtune=generic -march=x86-64 -g -O0 -fpre-include=/usr/include/finclude/math-vector-fortran.h
REM seed -345507432 1191936283 1447916372 72290208 212650385 -2027041730 -1103139473 -611840358 -156535634 -1856633294 2113974752 -271970169 -987911002 1772662950 -1698339040 -378909605 1838973330 -680931024 1814548732 351644981 1204851436 -1591152864 1113786378 -191661004 1386087185 -69327957 -1575955949 -58420779 -1081260957 -92652703 -375019349 187759488 280680325
REM
CELL 1.54180   50.00000   50.00000   50.00000   90.00000   90.00000   90.00000
LATT -1
SFAC C  
C      1  0.4424490000000  0.4817920000000  0.4245830000000 1.0
C      1  0.5765450000000  0.4338860000000  0.4372980000000 1.0
C      1  0.4644390000000  0.5527550000000  0.6003680000000 1.0
C      1  0.4513670000000  0.5591030000000  0.4649980000000 1.0
C      1  0.5855310000000  0.4153500000000  0.4185220000000 1.0
C      1  0.5310220000000  0.5195910000000  0.4818250000000 1.0
C      1  0.4757980000000  0.5608530000000  0.6256540000000 1.0
C      1  0.4843860000000  0.5339380000000  0.5880510000000 1.0
C      1  0.4518860000000  0.5182870000000  0.5216990000000 1.0
C      1  0.5158610000000  0.4718050000000  0.4655700000000 1.0
C      1  0.4360450000000  0.5376680000000  0.4749350000000 1.0
C      1  0.5419020000000  0.4972560000000  0.4957960000000 1.0
C      1  0.5903980000000  0.4802550000000  0.4931840000000 1.0
C      1  0.4367090000000  0.5318950000000  0.5024060000000 1.0
C      1  0.4975030000000  0.5431990000000  0.4545470000000 1.0
C      1  0.4644380000000  0.4773860000000  0.4908940000000 1.0
C      1  0.4557370000000  0.5286870000000  0.5479120000000 1.0
C      1  0.5047890000000  0.4672920000000  0.5122860000000 1.0
C      1  0.5089650000000  0.5194290000000  0.4635520000000 1.0
C      1  0.5993760000000  0.4621070000000  0.4758650000000 1.0
C      1  0.5495640000000  0.4414720000000  0.4383330000000 1.0
C      1  0.5004670000000  0.5486280000000  0.6292890000000 1.0
C      1  0.4813020000000  0.4547210000000  0.4992060000000 1.0
C      1  0.4415090000000  0.5574940000000  0.5850480000000 1.0
C      1  0.5248660000000  0.4743130000000  0.4932530000000 1.0
C      1  0.4694680000000  0.4876910000000  0.4646330000000 1.0
C      1  0.4668850000000  0.4956340000000  0.5137310000000 1.0
C      1  0.4318330000000  0.5162170000000  0.4571300000000 1.0
C      1  0.4766350000000  0.5597840000000  0.4560270000000 1.0
C      1  0.5689900000000  0.4939100000000  0.5013660000000 1.0
C      1  0.4973030000000  0.4931480000000  0.4592230000000 1.0
C      1  0.5942110000000  0.4455060000000  0.4557190000000 1.0
C      1  0.5284290000000  0.4544810000000  0.4478440000000 1.0
C      1  0.4919080000000  0.4885230000000  0.5277450000000 1.0
C      1  0.5060880000000  0.5325630000000  0.6073140000000 1.0
C      1  0.5939270000000  0.3980180000000  0.4009630000000 1.0
C      1  0.4964650000000  0.5024820000000  0.5514420000000 1.0
C      1  0.4476970000000  0.4948160000000  0.4479540000000 1.0
C      1  0.4376660000000  0.5461730000000  0.5607900000000 1.0
C      1  0.4796410000000  0.5218920000000  0.5630440000000 1.0
END
