TITL C-247196-3112-280 -8.33307793497038e-07 125000 -881.283038061696 0 0 142 (C1) n - 1
REM
REM in /home/nfs/bkarasulu/CARBON/AIRSS/Generating-Clusters/LCBOP/Only-C1/SD-CG/FIRE-HFTN
REM
REM
REM
REM
REM
REM ./C.cell (11c1c37f851c82e70ff6c80c92926a4b)
REM AIRSS Version 0.9.1 bugfix July 2018 build 013d7b7c2542+ Fri, 06 Jul 2018 19:26:36 +0100
REM compiler GCC version 9.2.1 20190827 (Red Hat 9.2.1-1)
REM options -cpp -mtune=generic -march=x86-64 -g -O0 -fpre-include=/usr/include/finclude/math-vector-fortran.h
REM seed 1010510956 -1773280944 2115572436 -1998277407 54222912 2068473493 2016465370 -339367325 -2004515147 88638935 825302042 -1678893346 2102829511 1435583613 -1847278456 2012101745 481327192 -270612744 -405243795 -593033021 805434447 -136995152 1504200986 -1732395872 -893590493 -756283643 -606010312 29953642 -1373164742 -932006626 2094676363 489668128 1667261221
REM
CELL 1.54180   50.00000   50.00000   50.00000   90.00000   90.00000   90.00000
LATT -1
SFAC C  
C      1  0.5252400000000  0.4647040000000  0.5981620000000 1.0
C      1  0.4347740000000  0.4705020000000  0.4144380000000 1.0
C      1  0.5791680000000  0.4873460000000  0.4370620000000 1.0
C      1  0.5290950000000  0.5355530000000  0.5175700000000 1.0
C      1  0.5153610000000  0.4079540000000  0.4642940000000 1.0
C      1  0.5270650000000  0.5130350000000  0.6137180000000 1.0
C      1  0.5166160000000  0.4858580000000  0.6158870000000 1.0
C      1  0.4641130000000  0.6236670000000  0.4815080000000 1.0
C      1  0.5429020000000  0.5153170000000  0.5021520000000 1.0
C      1  0.5843870000000  0.5434310000000  0.5334680000000 1.0
C      1  0.5275240000000  0.5309100000000  0.5692560000000 1.0
C      1  0.5801830000000  0.4982940000000  0.5586980000000 1.0
C      1  0.5431600000000  0.4902130000000  0.5135360000000 1.0
C      1  0.4771330000000  0.4677510000000  0.5981030000000 1.0
C      1  0.4723640000000  0.5592950000000  0.4724140000000 1.0
C      1  0.5082830000000  0.3968990000000  0.4902740000000 1.0
C      1  0.4800990000000  0.4138750000000  0.4112890000000 1.0
C      1  0.4801950000000  0.4016160000000  0.4970040000000 1.0
C      1  0.4368040000000  0.4307100000000  0.4922520000000 1.0
C      1  0.4773220000000  0.4828010000000  0.4322280000000 1.0
C      1  0.5397750000000  0.4298240000000  0.4254120000000 1.0
C      1  0.4393380000000  0.5204890000000  0.4744790000000 1.0
C      1  0.4454240000000  0.4437690000000  0.4125550000000 1.0
C      1  0.4890120000000  0.4459610000000  0.4727140000000 1.0
C      1  0.5460570000000  0.4645120000000  0.4652650000000 1.0
C      1  0.4562010000000  0.4137000000000  0.5079150000000 1.0
C      1  0.6167190000000  0.5056930000000  0.5270990000000 1.0
C      1  0.5298760000000  0.5354200000000  0.4463950000000 1.0
C      1  0.5069620000000  0.4606250000000  0.5390090000000 1.0
C      1  0.5591660000000  0.4972220000000  0.5799580000000 1.0
C      1  0.4721750000000  0.4146980000000  0.4387880000000 1.0
C      1  0.4472820000000  0.5014050000000  0.5730190000000 1.0
C      1  0.5655780000000  0.6033580000000  0.4560310000000 1.0
C      1  0.4397180000000  0.4722650000000  0.4621480000000 1.0
C      1  0.4957790000000  0.3838810000000  0.5536590000000 1.0
C      1  0.5410330000000  0.5170780000000  0.5895890000000 1.0
C      1  0.4127990000000  0.4396780000000  0.5063780000000 1.0
C      1  0.5631580000000  0.5524300000000  0.5496510000000 1.0
C      1  0.4717350000000  0.5771020000000  0.4271900000000 1.0
C      1  0.4716940000000  0.4385650000000  0.3984680000000 1.0
C      1  0.5525910000000  0.4002550000000  0.5128280000000 1.0
C      1  0.4864150000000  0.4870430000000  0.6176240000000 1.0
C      1  0.5017560000000  0.5720750000000  0.5316340000000 1.0
C      1  0.5566200000000  0.4947330000000  0.3930400000000 1.0
C      1  0.5489120000000  0.4692990000000  0.5831270000000 1.0
C      1  0.4150270000000  0.4622550000000  0.5236670000000 1.0
C      1  0.5605990000000  0.5802120000000  0.5527500000000 1.0
C      1  0.5550850000000  0.6015090000000  0.4314040000000 1.0
C      1  0.5657330000000  0.4213020000000  0.5261170000000 1.0
C      1  0.5157960000000  0.4734070000000  0.4057580000000 1.0
C      1  0.5897680000000  0.4348950000000  0.5195510000000 1.0
C      1  0.5265200000000  0.3893710000000  0.5108790000000 1.0
C      1  0.5019230000000  0.3987440000000  0.5767110000000 1.0
C      1  0.5372050000000  0.5925550000000  0.4135090000000 1.0
C      1  0.3661320000000  0.4134480000000  0.4998490000000 1.0
C      1  0.4602750000000  0.4776690000000  0.5222160000000 1.0
C      1  0.4402980000000  0.4649140000000  0.5360260000000 1.0
C      1  0.4134210000000  0.5763460000000  0.4528370000000 1.0
C      1  0.4011470000000  0.5367300000000  0.5009040000000 1.0
C      1  0.5003670000000  0.4499070000000  0.5929570000000 1.0
C      1  0.5625170000000  0.4537590000000  0.5631450000000 1.0
C      1  0.4039370000000  0.5116480000000  0.4137450000000 1.0
C      1  0.4894380000000  0.5080610000000  0.5518600000000 1.0
C      1  0.5216940000000  0.4758130000000  0.4567040000000 1.0
C      1  0.6042260000000  0.4762330000000  0.4431790000000 1.0
C      1  0.5154400000000  0.5785680000000  0.4063750000000 1.0
C      1  0.3744680000000  0.5430760000000  0.5012130000000 1.0
C      1  0.4935240000000  0.5355170000000  0.4177540000000 1.0
C      1  0.6407300000000  0.5188460000000  0.5268290000000 1.0
C      1  0.5231120000000  0.4396480000000  0.5401750000000 1.0
C      1  0.3886510000000  0.4261690000000  0.5030320000000 1.0
C      1  0.4080450000000  0.5091160000000  0.5410080000000 1.0
C      1  0.4558470000000  0.4735720000000  0.5798830000000 1.0
C      1  0.4642830000000  0.4895600000000  0.4982030000000 1.0
C      1  0.4150270000000  0.5345100000000  0.4761370000000 1.0
C      1  0.5415940000000  0.4564110000000  0.4152080000000 1.0
C      1  0.6207160000000  0.4720140000000  0.4636910000000 1.0
C      1  0.5002880000000  0.4222810000000  0.5891370000000 1.0
C      1  0.4594220000000  0.5462050000000  0.5487110000000 1.0
C      1  0.5331430000000  0.5605470000000  0.4557510000000 1.0
C      1  0.4478650000000  0.4257660000000  0.5579850000000 1.0
C      1  0.6076030000000  0.5589650000000  0.4929460000000 1.0
C      1  0.4610440000000  0.5769460000000  0.4530370000000 1.0
C      1  0.5834470000000  0.4699090000000  0.5513680000000 1.0
C      1  0.3990790000000  0.4852260000000  0.5280290000000 1.0
C      1  0.4148360000000  0.5324000000000  0.5258290000000 1.0
C      1  0.5075350000000  0.5537350000000  0.5106280000000 1.0
C      1  0.4688110000000  0.3850180000000  0.5452430000000 1.0
C      1  0.4145810000000  0.4880370000000  0.4062440000000 1.0
C      1  0.4818650000000  0.5143330000000  0.6256990000000 1.0
C      1  0.4974190000000  0.5630270000000  0.4856480000000 1.0
C      1  0.5500840000000  0.4350310000000  0.5458600000000 1.0
C      1  0.5489740000000  0.5917900000000  0.5292150000000 1.0
C      1  0.4928730000000  0.4572590000000  0.3939970000000 1.0
C      1  0.4346540000000  0.5515950000000  0.5343750000000 1.0
C      1  0.4741370000000  0.5909260000000  0.5659980000000 1.0
C      1  0.5527550000000  0.4384590000000  0.4686360000000 1.0
C      1  0.5010100000000  0.4707640000000  0.4755720000000 1.0
C      1  0.4417850000000  0.4929520000000  0.4813160000000 1.0
C      1  0.5676720000000  0.5981070000000  0.4822280000000 1.0
C      1  0.5052470000000  0.5292250000000  0.6239700000000 1.0
C      1  0.4369690000000  0.5897640000000  0.4608830000000 1.0
C      1  0.5075480000000  0.4881740000000  0.4320490000000 1.0
C      1  0.5696180000000  0.5067820000000  0.4559370000000 1.0
C      1  0.5105420000000  0.6054520000000  0.4692770000000 1.0
C      1  0.4304510000000  0.5782300000000  0.5256110000000 1.0
C      1  0.5094460000000  0.6170970000000  0.5473880000000 1.0
C      1  0.4648040000000  0.5326730000000  0.4694290000000 1.0
C      1  0.4071160000000  0.5486770000000  0.4524840000000 1.0
C      1  0.5297110000000  0.4927690000000  0.3869100000000 1.0
C      1  0.5059740000000  0.5186240000000  0.4398570000000 1.0
C      1  0.4467970000000  0.4536420000000  0.5609240000000 1.0
C      1  0.4467570000000  0.4295660000000  0.4401170000000 1.0
C      1  0.4499500000000  0.4803350000000  0.4366370000000 1.0
C      1  0.5939060000000  0.5169530000000  0.5405940000000 1.0
C      1  0.4875110000000  0.5158690000000  0.4655830000000 1.0
C      1  0.5979040000000  0.4605340000000  0.5288720000000 1.0
C      1  0.4013770000000  0.5332260000000  0.4295420000000 1.0
C      1  0.4902310000000  0.6220830000000  0.4752250000000 1.0
C      1  0.5586530000000  0.5170780000000  0.4784690000000 1.0
C      1  0.5637630000000  0.4772970000000  0.4151490000000 1.0
C      1  0.5022860000000  0.4860790000000  0.5446770000000 1.0
C      1  0.4199840000000  0.5060610000000  0.5666070000000 1.0
C      1  0.5386040000000  0.5388850000000  0.5451100000000 1.0
C      1  0.4655060000000  0.5200850000000  0.5599630000000 1.0
C      1  0.6242510000000  0.4740320000000  0.4899800000000 1.0
C      1  0.5389020000000  0.4194000000000  0.4524920000000 1.0
C      1  0.4539700000000  0.4077690000000  0.5367650000000 1.0
C      1  0.4315730000000  0.5983610000000  0.5081160000000 1.0
C      1  0.4915830000000  0.4225310000000  0.4573910000000 1.0
C      1  0.4788400000000  0.5681900000000  0.5493910000000 1.0
C      1  0.4394680000000  0.4429640000000  0.4653090000000 1.0
C      1  0.6141860000000  0.4795430000000  0.5154550000000 1.0
C      1  0.5203040000000  0.5952210000000  0.5327820000000 1.0
C      1  0.4881030000000  0.4937750000000  0.4840840000000 1.0
C      1  0.5153060000000  0.3780400000000  0.5342780000000 1.0
C      1  0.4880460000000  0.6142070000000  0.5639370000000 1.0
C      1  0.5671530000000  0.5842390000000  0.5069170000000 1.0
C      1  0.4925530000000  0.5637280000000  0.4137260000000 1.0
C      1  0.5868790000000  0.5618400000000  0.5108030000000 1.0
C      1  0.4410210000000  0.6072730000000  0.4831910000000 1.0
C      1  0.5162070000000  0.5778510000000  0.4701050000000 1.0
END
