TITL C-247199-3331-449 6.18449648808608 125000 -127.036535802412 0 0 23 (C1) n - 1
REM
REM in /home/nfs/bkarasulu/CARBON/AIRSS/Generating-Clusters/LCBOP/Only-C1/SD-CG/FIRE-HFTN
REM
REM
REM
REM
REM
REM ./C.cell (11c1c37f851c82e70ff6c80c92926a4b)
REM AIRSS Version 0.9.1 bugfix July 2018 build 013d7b7c2542+ Fri, 06 Jul 2018 19:26:36 +0100
REM compiler GCC version 9.2.1 20190827 (Red Hat 9.2.1-1)
REM options -cpp -mtune=generic -march=x86-64 -g -O0 -fpre-include=/usr/include/finclude/math-vector-fortran.h
REM seed 504116462 -1193280490 252626958 1931782685 -1263413680 -93205401 -630506892 882936785 79170468 1784442567 13924385 -876008649 1489501940 1807539185 -915902625 265058505 1671458087 -2099917467 1172313686 -359716017 633464792 -374367416 -1690851225 -1090217689 -1291949567 -456384278 -365814877 1109901398 1842270687 12056836 -599896999 1266158349 1199655173
REM
CELL 1.54180   50.00000   50.00000   50.00000   90.00000   90.00000   90.00000
LATT -1
SFAC C  
C      1  0.5189180000000  0.4431510000000  0.4845910000000 1.0
C      1  0.5098300000000  0.5636790000000  0.5783240000000 1.0
C      1  0.4700780000000  0.4631640000000  0.5285610000000 1.0
C      1  0.5112300000000  0.5579160000000  0.4893380000000 1.0
C      1  0.4796650000000  0.5318180000000  0.5494130000000 1.0
C      1  0.5545040000000  0.4444210000000  0.4517140000000 1.0
C      1  0.5717990000000  0.4318620000000  0.4360580000000 1.0
C      1  0.5214130000000  0.5351990000000  0.4802550000000 1.0
C      1  0.4647480000000  0.5170050000000  0.5310240000000 1.0
C      1  0.5888170000000  0.4195050000000  0.4206530000000 1.0
C      1  0.4371390000000  0.5442210000000  0.4929590000000 1.0
C      1  0.4264430000000  0.5589160000000  0.4742710000000 1.0
C      1  0.4795030000000  0.4379520000000  0.5209220000000 1.0
C      1  0.4655890000000  0.4890920000000  0.5315760000000 1.0
C      1  0.5001160000000  0.4365910000000  0.5020610000000 1.0
C      1  0.4866330000000  0.5990480000000  0.5108650000000 1.0
C      1  0.5362890000000  0.4576580000000  0.4682010000000 1.0
C      1  0.5297860000000  0.5111380000000  0.4729490000000 1.0
C      1  0.4492710000000  0.5301470000000  0.5118440000000 1.0
C      1  0.4947580000000  0.5474770000000  0.5645430000000 1.0
C      1  0.4688210000000  0.4151930000000  0.5316360000000 1.0
C      1  0.5352060000000  0.4855840000000  0.4685160000000 1.0
C      1  0.4994440000000  0.5792640000000  0.4997260000000 1.0
END
