TITL C-247196-3112-86 1.16060141567799e-08 125000 -973.244676616293 0 0 159 (C1) n - 1
REM
REM in /home/nfs/bkarasulu/CARBON/AIRSS/Generating-Clusters/LCBOP/Only-C1/SD-CG/FIRE-HFTN
REM
REM
REM
REM
REM
REM ./C.cell (11c1c37f851c82e70ff6c80c92926a4b)
REM AIRSS Version 0.9.1 bugfix July 2018 build 013d7b7c2542+ Fri, 06 Jul 2018 19:26:36 +0100
REM compiler GCC version 9.2.1 20190827 (Red Hat 9.2.1-1)
REM options -cpp -mtune=generic -march=x86-64 -g -O0 -fpre-include=/usr/include/finclude/math-vector-fortran.h
REM seed 406250353 1241017167 1407846664 1646619655 -210754505 55128138 10363408 -115060055 -1823440205 1435625363 278800383 1837080900 1366481100 203434590 101456119 1671407589 1599126712 -1706622476 -1937702767 -959442248 30253562 -1552394408 491079471 -1701433714 -908065177 1090139704 1799253282 -965441970 1983772690 286053657 1251888135 558091793 1969458579
REM
CELL 1.54180   50.00000   50.00000   50.00000   90.00000   90.00000   90.00000
LATT -1
SFAC C  
C      1  0.5785100000000  0.5622230000000  0.4715320000000 1.0
C      1  0.4892840000000  0.5330840000000  0.5100550000000 1.0
C      1  0.5731410000000  0.5629820000000  0.4989940000000 1.0
C      1  0.5463900000000  0.4012540000000  0.5454490000000 1.0
C      1  0.6163930000000  0.4799790000000  0.4480140000000 1.0
C      1  0.5543720000000  0.5515400000000  0.5478000000000 1.0
C      1  0.5221660000000  0.4054830000000  0.4317850000000 1.0
C      1  0.4678540000000  0.4870360000000  0.4671560000000 1.0
C      1  0.4072190000000  0.4779940000000  0.4486890000000 1.0
C      1  0.5383180000000  0.6382630000000  0.5508950000000 1.0
C      1  0.5542930000000  0.5050090000000  0.4809080000000 1.0
C      1  0.4986780000000  0.5612450000000  0.5672200000000 1.0
C      1  0.4640720000000  0.4516410000000  0.5445690000000 1.0
C      1  0.4776510000000  0.4778900000000  0.6168430000000 1.0
C      1  0.5011410000000  0.5588810000000  0.4088500000000 1.0
C      1  0.4340260000000  0.5321700000000  0.4648050000000 1.0
C      1  0.5262880000000  0.5451400000000  0.4148210000000 1.0
C      1  0.4022370000000  0.5045830000000  0.4387740000000 1.0
C      1  0.5006460000000  0.4692180000000  0.5039300000000 1.0
C      1  0.4525670000000  0.4607260000000  0.4184150000000 1.0
C      1  0.5163090000000  0.4334630000000  0.5297020000000 1.0
C      1  0.3881820000000  0.5197160000000  0.5033520000000 1.0
C      1  0.4685700000000  0.4587770000000  0.4700050000000 1.0
C      1  0.6417220000000  0.4385210000000  0.4468680000000 1.0
C      1  0.4753100000000  0.4427910000000  0.4259950000000 1.0
C      1  0.5690220000000  0.4083750000000  0.5276350000000 1.0
C      1  0.5341150000000  0.5022220000000  0.5598530000000 1.0
C      1  0.4128060000000  0.4307260000000  0.4958530000000 1.0
C      1  0.3942460000000  0.4745480000000  0.4754320000000 1.0
C      1  0.4351270000000  0.5046350000000  0.5268550000000 1.0
C      1  0.5640610000000  0.4638910000000  0.5638920000000 1.0
C      1  0.4215250000000  0.6027260000000  0.5403590000000 1.0
C      1  0.4887450000000  0.4638560000000  0.5557640000000 1.0
C      1  0.5161430000000  0.4552670000000  0.5487440000000 1.0
C      1  0.4621420000000  0.5170920000000  0.4231460000000 1.0
C      1  0.5894830000000  0.4733990000000  0.5540330000000 1.0
C      1  0.3788910000000  0.5466690000000  0.5044020000000 1.0
C      1  0.5023350000000  0.3676750000000  0.4987850000000 1.0
C      1  0.4114940000000  0.5282820000000  0.4480180000000 1.0
C      1  0.5442260000000  0.5605360000000  0.4307310000000 1.0
C      1  0.5806910000000  0.4936900000000  0.3975290000000 1.0
C      1  0.3942200000000  0.4608270000000  0.5250600000000 1.0
C      1  0.5066230000000  0.4419370000000  0.5047400000000 1.0
C      1  0.4333590000000  0.4265080000000  0.4765910000000 1.0
C      1  0.5749400000000  0.5031770000000  0.4972770000000 1.0
C      1  0.5588160000000  0.4512410000000  0.3985020000000 1.0
C      1  0.6034590000000  0.5037690000000  0.4404930000000 1.0
C      1  0.4913440000000  0.4656570000000  0.3899130000000 1.0
C      1  0.5421200000000  0.4987000000000  0.4567500000000 1.0
C      1  0.5324040000000  0.5967730000000  0.6030380000000 1.0
C      1  0.4294660000000  0.5674230000000  0.5934040000000 1.0
C      1  0.6116350000000  0.5282800000000  0.4513030000000 1.0
C      1  0.5129160000000  0.5003020000000  0.5800620000000 1.0
C      1  0.4691060000000  0.6191030000000  0.5559630000000 1.0
C      1  0.5803430000000  0.5038640000000  0.4240480000000 1.0
C      1  0.6261140000000  0.4568830000000  0.4609340000000 1.0
C      1  0.4948400000000  0.4402790000000  0.4047410000000 1.0
C      1  0.5151200000000  0.4557510000000  0.4543060000000 1.0
C      1  0.4684230000000  0.5037330000000  0.6139830000000 1.0
C      1  0.5391740000000  0.4739370000000  0.5544710000000 1.0
C      1  0.5493630000000  0.5753580000000  0.5628980000000 1.0
C      1  0.5962460000000  0.4894960000000  0.5049150000000 1.0
C      1  0.4104700000000  0.5141150000000  0.5192480000000 1.0
C      1  0.4655560000000  0.4777800000000  0.3975300000000 1.0
C      1  0.6198430000000  0.4522800000000  0.4880430000000 1.0
C      1  0.4735570000000  0.5258230000000  0.3794380000000 1.0
C      1  0.5589820000000  0.5671240000000  0.4519390000000 1.0
C      1  0.5357160000000  0.5300140000000  0.5515650000000 1.0
C      1  0.4871170000000  0.4474540000000  0.4512690000000 1.0
C      1  0.4963150000000  0.4227440000000  0.4884310000000 1.0
C      1  0.4543650000000  0.4921090000000  0.5113250000000 1.0
C      1  0.4709240000000  0.5663040000000  0.5648500000000 1.0
C      1  0.5293640000000  0.5980960000000  0.6288870000000 1.0
C      1  0.4940670000000  0.4975380000000  0.4612700000000 1.0
C      1  0.4124700000000  0.5464630000000  0.5991110000000 1.0
C      1  0.4014880000000  0.5927320000000  0.4730630000000 1.0
C      1  0.5462960000000  0.4163430000000  0.5713210000000 1.0
C      1  0.5180240000000  0.4838070000000  0.4566750000000 1.0
C      1  0.6024770000000  0.5504460000000  0.4628710000000 1.0
C      1  0.5839150000000  0.4286780000000  0.5418450000000 1.0
C      1  0.6557340000000  0.4212330000000  0.4333050000000 1.0
C      1  0.4756500000000  0.5337050000000  0.4406850000000 1.0
C      1  0.4097530000000  0.5861060000000  0.5206570000000 1.0
C      1  0.3677310000000  0.5590360000000  0.4814650000000 1.0
C      1  0.4868160000000  0.5486030000000  0.3863370000000 1.0
C      1  0.5016300000000  0.3998700000000  0.5772180000000 1.0
C      1  0.5233240000000  0.4814350000000  0.6220930000000 1.0
C      1  0.4957400000000  0.6163680000000  0.5464980000000 1.0
C      1  0.5730420000000  0.4472250000000  0.4227790000000 1.0
C      1  0.5342860000000  0.5961470000000  0.5751130000000 1.0
C      1  0.4658750000000  0.5810510000000  0.5088640000000 1.0
C      1  0.4728630000000  0.5099470000000  0.5541660000000 1.0
C      1  0.4443270000000  0.5082420000000  0.5530510000000 1.0
C      1  0.4201450000000  0.5879400000000  0.4937410000000 1.0
C      1  0.4476740000000  0.5072640000000  0.4704770000000 1.0
C      1  0.5225160000000  0.5049130000000  0.6064870000000 1.0
C      1  0.5671500000000  0.4353150000000  0.5664380000000 1.0
C      1  0.4951250000000  0.6005060000000  0.4728990000000 1.0
C      1  0.3816540000000  0.4988480000000  0.4852890000000 1.0
C      1  0.5343580000000  0.5167840000000  0.4113930000000 1.0
C      1  0.5336080000000  0.4105940000000  0.4587030000000 1.0
C      1  0.4809710000000  0.3714160000000  0.5406250000000 1.0
C      1  0.5115440000000  0.4380820000000  0.6050470000000 1.0
C      1  0.5362580000000  0.6476300000000  0.5254280000000 1.0
C      1  0.4874920000000  0.5752180000000  0.4300900000000 1.0
C      1  0.5982110000000  0.4528980000000  0.5345120000000 1.0
C      1  0.5300130000000  0.5293060000000  0.6159500000000 1.0
C      1  0.4280380000000  0.4642810000000  0.4334110000000 1.0
C      1  0.5326010000000  0.4942270000000  0.3917830000000 1.0
C      1  0.4146060000000  0.4482380000000  0.5415650000000 1.0
C      1  0.5635800000000  0.4464980000000  0.4479490000000 1.0
C      1  0.5400570000000  0.4309890000000  0.3929740000000 1.0
C      1  0.6033550000000  0.4956930000000  0.5626650000000 1.0
C      1  0.4831300000000  0.3599500000000  0.5162130000000 1.0
C      1  0.5685560000000  0.5546210000000  0.5238460000000 1.0
C      1  0.6148360000000  0.5178710000000  0.5701110000000 1.0
C      1  0.4634020000000  0.5722520000000  0.5369310000000 1.0
C      1  0.4426750000000  0.6151070000000  0.5517530000000 1.0
C      1  0.5090670000000  0.4867640000000  0.3504050000000 1.0
C      1  0.5092320000000  0.5407520000000  0.5516660000000 1.0
C      1  0.4453470000000  0.5754660000000  0.4889360000000 1.0
C      1  0.4985330000000  0.3910610000000  0.5505750000000 1.0
C      1  0.4884460000000  0.4903110000000  0.5678260000000 1.0
C      1  0.5648590000000  0.4044800000000  0.4995690000000 1.0
C      1  0.5025080000000  0.4624840000000  0.6170130000000 1.0
C      1  0.5206570000000  0.3886320000000  0.5035530000000 1.0
C      1  0.4890650000000  0.5270440000000  0.5372580000000 1.0
C      1  0.4375680000000  0.4554370000000  0.5576240000000 1.0
C      1  0.4267890000000  0.4297120000000  0.5218810000000 1.0
C      1  0.4985710000000  0.6177950000000  0.5176300000000 1.0
C      1  0.5381600000000  0.4392550000000  0.4575190000000 1.0
C      1  0.4255280000000  0.5063300000000  0.5739730000000 1.0
C      1  0.4555100000000  0.4386650000000  0.5179890000000 1.0
C      1  0.4329890000000  0.4096020000000  0.4554630000000 1.0
C      1  0.4974640000000  0.5376470000000  0.4850710000000 1.0
C      1  0.4640170000000  0.5061410000000  0.3975930000000 1.0
C      1  0.4475570000000  0.5583180000000  0.4659040000000 1.0
C      1  0.5531790000000  0.5085230000000  0.4326830000000 1.0
C      1  0.3961380000000  0.4544160000000  0.4958890000000 1.0
C      1  0.4546250000000  0.5265620000000  0.6036480000000 1.0
C      1  0.4558070000000  0.4413680000000  0.4880790000000 1.0
C      1  0.4262940000000  0.5213270000000  0.5976410000000 1.0
C      1  0.5171460000000  0.6375690000000  0.5089020000000 1.0
C      1  0.4561680000000  0.5584460000000  0.5879320000000 1.0
C      1  0.4667620000000  0.5605090000000  0.4440990000000 1.0
C      1  0.3783780000000  0.5797690000000  0.4677130000000 1.0
C      1  0.3905520000000  0.5651420000000  0.5233290000000 1.0
C      1  0.5215320000000  0.6169840000000  0.5602300000000 1.0
C      1  0.5575730000000  0.4786370000000  0.3900950000000 1.0
C      1  0.5405410000000  0.3987440000000  0.4848600000000 1.0
C      1  0.5107010000000  0.4825630000000  0.3775060000000 1.0
C      1  0.5174150000000  0.4227430000000  0.4081350000000 1.0
C      1  0.5214860000000  0.4179990000000  0.5869800000000 1.0
C      1  0.4978150000000  0.5956540000000  0.4465470000000 1.0
C      1  0.4801050000000  0.4851910000000  0.5094550000000 1.0
C      1  0.4936560000000  0.5252020000000  0.4603200000000 1.0
C      1  0.4867550000000  0.5991500000000  0.4999770000000 1.0
C      1  0.6063260000000  0.4636260000000  0.5096930000000 1.0
C      1  0.5194900000000  0.4025240000000  0.5318010000000 1.0
END
