TITL C-247199-3331-143 0.0204173982459165 125000 -334.629819731502 0 0 56 (C1) n - 1
REM
REM in /home/nfs/bkarasulu/CARBON/AIRSS/Generating-Clusters/LCBOP/Only-C1/SD-CG/FIRE-HFTN
REM
REM
REM
REM
REM
REM ./C.cell (11c1c37f851c82e70ff6c80c92926a4b)
REM AIRSS Version 0.9.1 bugfix July 2018 build 013d7b7c2542+ Fri, 06 Jul 2018 19:26:36 +0100
REM compiler GCC version 9.2.1 20190827 (Red Hat 9.2.1-1)
REM options -cpp -mtune=generic -march=x86-64 -g -O0 -fpre-include=/usr/include/finclude/math-vector-fortran.h
REM seed -375799384 -1461453991 1395022381 2077225368 -1447877249 893495830 1066009395 1603663996 -1396754773 -572668802 -1064849786 1498635287 581416032 1426154813 -519456044 -1129495662 700401644 1470970106 10008104 -838063646 1906785581 -199412858 1018978967 -1809936254 428161865 2071200694 1542534228 1721042695 2138582160 -506893869 -1371638575 1918064443 -1651706165
REM
CELL 1.54180   50.00000   50.00000   50.00000   90.00000   90.00000   90.00000
LATT -1
SFAC C  
C      1  0.5044130000000  0.5851910000000  0.4304070000000 1.0
C      1  0.5643050000000  0.5973280000000  0.4750410000000 1.0
C      1  0.4750640000000  0.4873160000000  0.4923110000000 1.0
C      1  0.4926010000000  0.4645260000000  0.4924680000000 1.0
C      1  0.4319770000000  0.4703290000000  0.4767210000000 1.0
C      1  0.5497660000000  0.4861880000000  0.4556040000000 1.0
C      1  0.4695430000000  0.5077770000000  0.5381930000000 1.0
C      1  0.4454940000000  0.4448700000000  0.4724240000000 1.0
C      1  0.4707020000000  0.4534090000000  0.6001770000000 1.0
C      1  0.5090210000000  0.6552880000000  0.3942110000000 1.0
C      1  0.5437970000000  0.4595600000000  0.4622880000000 1.0
C      1  0.5199940000000  0.4108830000000  0.5506450000000 1.0
C      1  0.5082750000000  0.4999120000000  0.5659910000000 1.0
C      1  0.4637930000000  0.5047130000000  0.5868110000000 1.0
C      1  0.5875980000000  0.5917050000000  0.4894550000000 1.0
C      1  0.5085450000000  0.5229920000000  0.4936140000000 1.0
C      1  0.5534310000000  0.4505620000000  0.4874310000000 1.0
C      1  0.5380770000000  0.4572070000000  0.5656330000000 1.0
C      1  0.5059720000000  0.5618210000000  0.4454570000000 1.0
C      1  0.5028870000000  0.3990800000000  0.5339730000000 1.0
C      1  0.5488950000000  0.5613390000000  0.5402790000000 1.0
C      1  0.5122260000000  0.4587910000000  0.5116550000000 1.0
C      1  0.4630840000000  0.4071860000000  0.5015670000000 1.0
C      1  0.4468130000000  0.4855380000000  0.5729870000000 1.0
C      1  0.5291570000000  0.5310260000000  0.4751670000000 1.0
C      1  0.4833340000000  0.3974220000000  0.5159460000000 1.0
C      1  0.4492920000000  0.4886840000000  0.5449010000000 1.0
C      1  0.4857360000000  0.5108640000000  0.4810640000000 1.0
C      1  0.5121040000000  0.5261220000000  0.5220360000000 1.0
C      1  0.4412690000000  0.4723180000000  0.5235340000000 1.0
C      1  0.4465260000000  0.4293440000000  0.4971840000000 1.0
C      1  0.5329480000000  0.4312910000000  0.5618870000000 1.0
C      1  0.5311490000000  0.5447070000000  0.5309240000000 1.0
C      1  0.5050930000000  0.6083740000000  0.4176140000000 1.0
C      1  0.4935050000000  0.4498840000000  0.4674800000000 1.0
C      1  0.5306330000000  0.4828610000000  0.5646860000000 1.0
C      1  0.4790790000000  0.5166650000000  0.4535650000000 1.0
C      1  0.5069530000000  0.6319870000000  0.4057190000000 1.0
C      1  0.4680530000000  0.4487040000000  0.4545240000000 1.0
C      1  0.4863910000000  0.5417680000000  0.4435150000000 1.0
C      1  0.5593130000000  0.6227020000000  0.4661330000000 1.0
C      1  0.5461800000000  0.5767140000000  0.4698230000000 1.0
C      1  0.5454160000000  0.5113320000000  0.4634890000000 1.0
C      1  0.4471030000000  0.4833140000000  0.4974680000000 1.0
C      1  0.4919390000000  0.4706450000000  0.6026670000000 1.0
C      1  0.5187280000000  0.4483900000000  0.4548350000000 1.0
C      1  0.4482550000000  0.4600150000000  0.5858310000000 1.0
C      1  0.5382370000000  0.4518860000000  0.5097360000000 1.0
C      1  0.4972110000000  0.5119900000000  0.5420340000000 1.0
C      1  0.4651200000000  0.4692700000000  0.4349250000000 1.0
C      1  0.4095350000000  0.4793270000000  0.4644810000000 1.0
C      1  0.4911480000000  0.4960340000000  0.5890260000000 1.0
C      1  0.4696610000000  0.4958440000000  0.4369010000000 1.0
C      1  0.4381230000000  0.4440910000000  0.5208130000000 1.0
C      1  0.5275600000000  0.5570020000000  0.4635570000000 1.0
C      1  0.6089760000000  0.5859150000000  0.5031920000000 1.0
END
