TITL C-247202-1916-208 -134116.482802943 125000 -598.637987592209 0 0 101 (C1) n - 1
REM
REM in /home/nfs/bkarasulu/CARBON/AIRSS/Generating-Clusters/LCBOP/Only-C1/SD-CG/FIRE-HFTN
REM
REM
REM
REM
REM
REM ./C.cell (11c1c37f851c82e70ff6c80c92926a4b)
REM AIRSS Version 0.9.1 bugfix July 2018 build 013d7b7c2542+ Fri, 06 Jul 2018 19:26:36 +0100
REM compiler GCC version 9.2.1 20190827 (Red Hat 9.2.1-1)
REM options -cpp -mtune=generic -march=x86-64 -g -O0 -fpre-include=/usr/include/finclude/math-vector-fortran.h
REM seed -507984053 -2063846324 874728457 -54948653 -1416390138 -231656198 1304503229 679501797 -1822364302 849173510 1600237716 -1385874049 -1987967043 621908858 252157546 784427104 670239781 -1241913304 1722661886 1410838821 -909901839 1846359843 1476333442 1791717409 -822106651 2111712632 -599889106 1132314962 -1044476283 785839452 -1615832330 2138038436 -1788891164
REM
CELL 1.54180   50.00000   50.00000   50.00000   90.00000   90.00000   90.00000
LATT -1
SFAC C  
C      1  0.4656680000000  0.5168960000000  0.5249680000000 1.0
C      1  0.4980660000000  0.4636320000000  0.3944330000000 1.0
C      1  0.4653320000000  0.4324550000000  0.4425300000000 1.0
C      1  0.4441880000000  0.5077610000000  0.5662850000000 1.0
C      1  0.5098050000000  0.4498140000000  0.4159190000000 1.0
C      1  0.4048390000000  0.4844780000000  0.5004800000000 1.0
C      1  0.4777560000000  0.5671170000000  0.5552910000000 1.0
C      1  0.4560290000000  0.5033000000000  0.5026820000000 1.0
C      1  0.4575570000000  0.4548030000000  0.4887230000000 1.0
C      1  0.5494370000000  0.5096170000000  0.5563240000000 1.0
C      1  0.5714720000000  0.4501010000000  0.5320820000000 1.0
C      1  0.5402890000000  0.5334300000000  0.5704110000000 1.0
C      1  0.4766130000000  0.5794280000000  0.4859140000000 1.0
C      1  0.5468060000000  0.4409940000000  0.5435110000000 1.0
C      1  0.5029220000000  0.4875810000000  0.5857060000000 1.0
C      1  0.5230540000000  0.4658290000000  0.5051090000000 1.0
C      1  0.5331800000000  0.4618520000000  0.4298810000000 1.0
C      1  0.5159950000000  0.5159440000000  0.4772770000000 1.0
C      1  0.4444740000000  0.4538090000000  0.4453620000000 1.0
C      1  0.5917140000000  0.5529190000000  0.4443610000000 1.0
C      1  0.5654960000000  0.4875110000000  0.5652300000000 1.0
C      1  0.4642840000000  0.5139620000000  0.5850320000000 1.0
C      1  0.5162300000000  0.4811990000000  0.6100870000000 1.0
C      1  0.5565500000000  0.4472440000000  0.4362080000000 1.0
C      1  0.4582410000000  0.4554370000000  0.5397330000000 1.0
C      1  0.4666330000000  0.5642380000000  0.4260170000000 1.0
C      1  0.4667700000000  0.4155130000000  0.4664810000000 1.0
C      1  0.4912830000000  0.4165090000000  0.5462260000000 1.0
C      1  0.4664820000000  0.4786100000000  0.4982410000000 1.0
C      1  0.4444590000000  0.5177200000000  0.4814090000000 1.0
C      1  0.5046140000000  0.4227420000000  0.5226370000000 1.0
C      1  0.4822670000000  0.5130720000000  0.4462350000000 1.0
C      1  0.6024840000000  0.5103730000000  0.4695700000000 1.0
C      1  0.5365270000000  0.5507070000000  0.5143310000000 1.0
C      1  0.4637180000000  0.5591910000000  0.4691090000000 1.0
C      1  0.4734140000000  0.4318660000000  0.4890780000000 1.0
C      1  0.5106880000000  0.5364660000000  0.5772250000000 1.0
C      1  0.4932570000000  0.4387660000000  0.4378670000000 1.0
C      1  0.5419890000000  0.4729240000000  0.6081230000000 1.0
C      1  0.4336610000000  0.4550950000000  0.4722500000000 1.0
C      1  0.4936830000000  0.5274050000000  0.4218890000000 1.0
C      1  0.4201860000000  0.5389190000000  0.4408180000000 1.0
C      1  0.4954050000000  0.5556930000000  0.4300060000000 1.0
C      1  0.5850710000000  0.5306980000000  0.4593210000000 1.0
C      1  0.5478200000000  0.5606830000000  0.5610390000000 1.0
C      1  0.4431020000000  0.5477310000000  0.4859610000000 1.0
C      1  0.5172580000000  0.5605850000000  0.4582740000000 1.0
C      1  0.4765790000000  0.5606530000000  0.5282580000000 1.0
C      1  0.5887780000000  0.4920210000000  0.4865490000000 1.0
C      1  0.4934590000000  0.5288900000000  0.4891940000000 1.0
C      1  0.4926990000000  0.5141010000000  0.5833210000000 1.0
C      1  0.4546790000000  0.5016590000000  0.4510940000000 1.0
C      1  0.5509990000000  0.4690870000000  0.5818380000000 1.0
C      1  0.5818030000000  0.4730870000000  0.5466710000000 1.0
C      1  0.5225650000000  0.5754730000000  0.5183540000000 1.0
C      1  0.5590430000000  0.5244690000000  0.4701940000000 1.0
C      1  0.5665740000000  0.4341680000000  0.4575860000000 1.0
C      1  0.4425870000000  0.4591670000000  0.5645130000000 1.0
C      1  0.5902320000000  0.5547090000000  0.5161070000000 1.0
C      1  0.5642810000000  0.5513160000000  0.5117960000000 1.0
C      1  0.4005610000000  0.5045920000000  0.4788610000000 1.0
C      1  0.5031470000000  0.4399160000000  0.4944870000000 1.0
C      1  0.5977780000000  0.4679640000000  0.4969730000000 1.0
C      1  0.5197410000000  0.4724350000000  0.4538490000000 1.0
C      1  0.5949780000000  0.5773210000000  0.4345260000000 1.0
C      1  0.4739370000000  0.4206010000000  0.5676300000000 1.0
C      1  0.4850960000000  0.4644100000000  0.5444760000000 1.0
C      1  0.4555250000000  0.4822760000000  0.4066360000000 1.0
C      1  0.4075410000000  0.4916410000000  0.5297920000000 1.0
C      1  0.5077060000000  0.4474060000000  0.4634270000000 1.0
C      1  0.5963800000000  0.6023850000000  0.4274630000000 1.0
C      1  0.4459810000000  0.5251400000000  0.5438550000000 1.0
C      1  0.5404200000000  0.4889030000000  0.5082070000000 1.0
C      1  0.4005280000000  0.5190250000000  0.5342680000000 1.0
C      1  0.4811130000000  0.4862620000000  0.3949120000000 1.0
C      1  0.4900040000000  0.5335350000000  0.5188940000000 1.0
C      1  0.5352940000000  0.5062980000000  0.5311190000000 1.0
C      1  0.4538350000000  0.4366320000000  0.5793420000000 1.0
C      1  0.4209640000000  0.5367370000000  0.5373930000000 1.0
C      1  0.4478670000000  0.4798450000000  0.4337810000000 1.0
C      1  0.4924260000000  0.5121540000000  0.3982490000000 1.0
C      1  0.4059670000000  0.5221120000000  0.4578950000000 1.0
C      1  0.5243910000000  0.5757250000000  0.5497090000000 1.0
C      1  0.5335740000000  0.5362590000000  0.4659970000000 1.0
C      1  0.4125620000000  0.4579290000000  0.4917410000000 1.0
C      1  0.5815140000000  0.4464140000000  0.5056390000000 1.0
C      1  0.4798590000000  0.5368520000000  0.4656530000000 1.0
C      1  0.5198550000000  0.5294250000000  0.5253080000000 1.0
C      1  0.5604720000000  0.5000380000000  0.4888220000000 1.0
C      1  0.4409260000000  0.4376210000000  0.5253840000000 1.0
C      1  0.5714770000000  0.4313220000000  0.4839560000000 1.0
C      1  0.4169270000000  0.4390400000000  0.5127150000000 1.0
C      1  0.4621430000000  0.5743700000000  0.5096050000000 1.0
C      1  0.4407740000000  0.5537470000000  0.4294110000000 1.0
C      1  0.6156060000000  0.5562000000000  0.5218880000000 1.0
C      1  0.4286070000000  0.4840770000000  0.5590390000000 1.0
C      1  0.5322310000000  0.4552190000000  0.5637080000000 1.0
C      1  0.5065050000000  0.4968140000000  0.4577710000000 1.0
C      1  0.5058520000000  0.5781800000000  0.4862870000000 1.0
C      1  0.5028880000000  0.5633760000000  0.5665660000000 1.0
C      1  0.5060020000000  0.4683860000000  0.5636420000000 1.0
END
