TITL C-247198-3593-348 -0.0195799457897054 125000 -118.132054606938 0 0 21 (C1) n - 1
REM
REM in /home/nfs/bkarasulu/CARBON/AIRSS/Generating-Clusters/LCBOP/Only-C1/SD-CG/FIRE-HFTN
REM
REM
REM
REM
REM
REM ./C.cell (11c1c37f851c82e70ff6c80c92926a4b)
REM AIRSS Version 0.9.1 bugfix July 2018 build 013d7b7c2542+ Fri, 06 Jul 2018 19:26:36 +0100
REM compiler GCC version 9.2.1 20190827 (Red Hat 9.2.1-1)
REM options -cpp -mtune=generic -march=x86-64 -g -O0 -fpre-include=/usr/include/finclude/math-vector-fortran.h
REM seed -1292364986 -357635238 569220270 -1443233702 -1795104559 -928399046 -718305079 -1232759003 -1928845870 1008106506 704916020 507782108 1816815759 -1189120829 446938942 1161819233 -1442712523 292335387 -1845215221 1847801889 140199243 1034538009 419955424 220432208 1361919176 -1841933619 -1016439388 -1376561700 2052624818 496863864 -45492927 1715437481 -1720421204
REM
CELL 1.54180   50.00000   50.00000   50.00000   90.00000   90.00000   90.00000
LATT -1
SFAC C  
C      1  0.4911810000000  0.5300720000000  0.4971680000000 1.0
C      1  0.5143050000000  0.4878970000000  0.5048980000000 1.0
C      1  0.5402730000000  0.5357090000000  0.4883530000000 1.0
C      1  0.4525060000000  0.5586550000000  0.4909500000000 1.0
C      1  0.5046420000000  0.4671330000000  0.4887960000000 1.0
C      1  0.4864300000000  0.4588870000000  0.4712310000000 1.0
C      1  0.5820090000000  0.5113130000000  0.4882630000000 1.0
C      1  0.4821310000000  0.5044670000000  0.5383050000000 1.0
C      1  0.4635790000000  0.4650310000000  0.4561330000000 1.0
C      1  0.5422240000000  0.4919270000000  0.5089470000000 1.0
C      1  0.4688160000000  0.5016690000000  0.5610350000000 1.0
C      1  0.5561560000000  0.4756610000000  0.5268560000000 1.0
C      1  0.4954490000000  0.5073810000000  0.5140440000000 1.0
C      1  0.5556140000000  0.5130990000000  0.4950770000000 1.0
C      1  0.4657030000000  0.5352860000000  0.4858770000000 1.0
C      1  0.4544840000000  0.5154260000000  0.4695490000000 1.0
C      1  0.4518630000000  0.4467400000000  0.4396390000000 1.0
C      1  0.5145750000000  0.5432810000000  0.4888940000000 1.0
C      1  0.4534640000000  0.4910610000000  0.4589660000000 1.0
C      1  0.4556490000000  0.4989220000000  0.5833670000000 1.0
C      1  0.5689460000000  0.4603840000000  0.5436530000000 1.0
END
