TITL C-247202-1916-353 0.0979291198484641 125000 -297.112318154416 0 0 49 (C1) n - 1
REM
REM in /home/nfs/bkarasulu/CARBON/AIRSS/Generating-Clusters/LCBOP/Only-C1/SD-CG/FIRE-HFTN
REM
REM
REM
REM
REM
REM ./C.cell (11c1c37f851c82e70ff6c80c92926a4b)
REM AIRSS Version 0.9.1 bugfix July 2018 build 013d7b7c2542+ Fri, 06 Jul 2018 19:26:36 +0100
REM compiler GCC version 9.2.1 20190827 (Red Hat 9.2.1-1)
REM options -cpp -mtune=generic -march=x86-64 -g -O0 -fpre-include=/usr/include/finclude/math-vector-fortran.h
REM seed -1880983816 895000560 -114863528 -741966328 171846344 -1201418196 1806818217 1726226541 -414097704 1333878660 792953933 -994839174 -1241550713 1852397902 -1095417969 332103520 -899027014 591512633 121070766 -817737112 605514858 -192586813 -364047066 59456401 967879321 214801230 589239292 1897350264 -1658178472 -1750549902 -207603539 -1379430695 643760024
REM
CELL 1.54180   50.00000   50.00000   50.00000   90.00000   90.00000   90.00000
LATT -1
SFAC C  
C      1  0.4881150000000  0.5707300000000  0.4741810000000 1.0
C      1  0.4233940000000  0.4224200000000  0.4854500000000 1.0
C      1  0.4981270000000  0.5215650000000  0.4827500000000 1.0
C      1  0.5226690000000  0.5905240000000  0.5092570000000 1.0
C      1  0.5305350000000  0.5343150000000  0.4503010000000 1.0
C      1  0.5565060000000  0.4690100000000  0.5576860000000 1.0
C      1  0.5777620000000  0.4732110000000  0.5422240000000 1.0
C      1  0.4831400000000  0.5190420000000  0.5530850000000 1.0
C      1  0.4414940000000  0.5704070000000  0.4888830000000 1.0
C      1  0.3972320000000  0.3634660000000  0.4836600000000 1.0
C      1  0.4370070000000  0.5221520000000  0.4999100000000 1.0
C      1  0.3968690000000  0.4125100000000  0.4844170000000 1.0
C      1  0.5301650000000  0.4681250000000  0.5613230000000 1.0
C      1  0.4440700000000  0.3756850000000  0.4853870000000 1.0
C      1  0.5465480000000  0.5494480000000  0.5096360000000 1.0
C      1  0.5452360000000  0.5235340000000  0.4953920000000 1.0
C      1  0.4874190000000  0.5430420000000  0.5393060000000 1.0
C      1  0.4291170000000  0.4495980000000  0.4861000000000 1.0
C      1  0.4778850000000  0.5020550000000  0.4828330000000 1.0
C      1  0.4890260000000  0.4934110000000  0.5570090000000 1.0
C      1  0.3857300000000  0.3879440000000  0.4836650000000 1.0
C      1  0.4990310000000  0.4402350000000  0.5083750000000 1.0
C      1  0.5172900000000  0.5654650000000  0.5705690000000 1.0
C      1  0.5248320000000  0.5603890000000  0.4449680000000 1.0
C      1  0.4462600000000  0.5481390000000  0.5063790000000 1.0
C      1  0.5864270000000  0.5413420000000  0.4873400000000 1.0
C      1  0.5314470000000  0.5918430000000  0.4819210000000 1.0
C      1  0.4375470000000  0.4746680000000  0.4873180000000 1.0
C      1  0.5749840000000  0.4702160000000  0.4731580000000 1.0
C      1  0.5110240000000  0.5582730000000  0.5449330000000 1.0
C      1  0.5877680000000  0.4803510000000  0.5185860000000 1.0
C      1  0.5039980000000  0.4704410000000  0.5514840000000 1.0
C      1  0.5253220000000  0.5208460000000  0.4749990000000 1.0
C      1  0.5730570000000  0.5157910000000  0.4896090000000 1.0
C      1  0.4237170000000  0.3578990000000  0.4844420000000 1.0
C      1  0.5814470000000  0.4892540000000  0.4927010000000 1.0
C      1  0.4504660000000  0.4991910000000  0.4897590000000 1.0
C      1  0.4737590000000  0.5479310000000  0.5151470000000 1.0
C      1  0.5275870000000  0.5659740000000  0.5232420000000 1.0
C      1  0.5133620000000  0.5790270000000  0.4632870000000 1.0
C      1  0.4616410000000  0.5811630000000  0.4735720000000 1.0
C      1  0.5568220000000  0.4523200000000  0.4654150000000 1.0
C      1  0.4437050000000  0.4026620000000  0.4857940000000 1.0
C      1  0.5127700000000  0.4356480000000  0.4860610000000 1.0
C      1  0.5690600000000  0.5632360000000  0.4948290000000 1.0
C      1  0.4955700000000  0.4523650000000  0.5317930000000 1.0
C      1  0.5338100000000  0.4398540000000  0.4703140000000 1.0
C      1  0.5595910000000  0.5858800000000  0.4803690000000 1.0
C      1  0.4896610000000  0.5474060000000  0.4911800000000 1.0
END
