TITL C-3691715-1764-4 -19.5638197732157 125000 -1153.87366494246 0 0 189 (C1) n - 1
REM
REM in /home/nfs/bkarasulu/CARBON/AIRSS/Generating-Clusters/LCBOP/Only-C1/SD-CG/HFTN-CG/FIRE-CG
REM
REM
REM
REM
REM
REM ./C.cell (11c1c37f851c82e70ff6c80c92926a4b)
REM AIRSS Version 0.9.1 bugfix July 2018 build 013d7b7c2542+ Fri, 06 Jul 2018 19:26:36 +0100
REM compiler GCC version 9.2.1 20190827 (Red Hat 9.2.1-1)
REM options -cpp -mtune=generic -march=x86-64 -g -O0 -fpre-include=/usr/include/finclude/math-vector-fortran.h
REM seed -267753826 1458800719 -1290100509 1341524889 1085747974 2019515029 -929411804 1480345165 -982022626 -746460448 2073595782 -1914930164 -1257498906 -315583500 -2145020171 724629195 -811117698 -1309473630 -2077368593 1463125017 -607095834 -1374614189 1073365202 -651556880 -1301291655 -134389338 149125454 -834609646 -146014552 -1335961658 -1351445351 441283342 61895843
REM
CELL 1.54180   50.00000   50.00000   50.00000   90.00000   90.00000   90.00000
LATT -1
SFAC C  
C      1  0.4668210000000  0.5993370000000  0.4627600000000 1.0
C      1  0.5121210000000  0.4573300000000  0.4976810000000 1.0
C      1  0.5420950000000  0.4168420000000  0.4623450000000 1.0
C      1  0.4832850000000  0.3859660000000  0.5489640000000 1.0
C      1  0.5779450000000  0.4804390000000  0.4685100000000 1.0
C      1  0.5848560000000  0.4447510000000  0.4390060000000 1.0
C      1  0.4528240000000  0.6093150000000  0.4895390000000 1.0
C      1  0.4916920000000  0.3840170000000  0.5020310000000 1.0
C      1  0.5290230000000  0.4925420000000  0.4746320000000 1.0
C      1  0.4279030000000  0.4472840000000  0.4196780000000 1.0
C      1  0.5506060000000  0.4407410000000  0.4103970000000 1.0
C      1  0.4394770000000  0.5293400000000  0.4882690000000 1.0
C      1  0.5630360000000  0.4276010000000  0.4462090000000 1.0
C      1  0.4900420000000  0.4733910000000  0.5052030000000 1.0
C      1  0.5207340000000  0.3762570000000  0.5058700000000 1.0
C      1  0.3895200000000  0.5099600000000  0.4862740000000 1.0
C      1  0.4299800000000  0.4399000000000  0.5700790000000 1.0
C      1  0.4568320000000  0.5062090000000  0.4960870000000 1.0
C      1  0.4568450000000  0.4374010000000  0.5275160000000 1.0
C      1  0.4366130000000  0.6026020000000  0.5133750000000 1.0
C      1  0.4746180000000  0.4371000000000  0.5960590000000 1.0
C      1  0.6673670000000  0.5644320000000  0.4628480000000 1.0
C      1  0.4285790000000  0.4607700000000  0.4634150000000 1.0
C      1  0.3904310000000  0.4694850000000  0.5260670000000 1.0
C      1  0.5348260000000  0.4886370000000  0.5231360000000 1.0
C      1  0.5499460000000  0.5139290000000  0.5304550000000 1.0
C      1  0.4912570000000  0.5001780000000  0.5471580000000 1.0
C      1  0.4975430000000  0.3369720000000  0.4467750000000 1.0
C      1  0.4810730000000  0.3742570000000  0.4761480000000 1.0
C      1  0.5720720000000  0.5048540000000  0.4526870000000 1.0
C      1  0.4170300000000  0.5388060000000  0.4469890000000 1.0
C      1  0.4424920000000  0.5482960000000  0.5091990000000 1.0
C      1  0.5260990000000  0.4842190000000  0.4481700000000 1.0
C      1  0.5993310000000  0.5330070000000  0.5135170000000 1.0
C      1  0.4644810000000  0.4769230000000  0.4925780000000 1.0
C      1  0.4179780000000  0.5285930000000  0.5569840000000 1.0
C      1  0.5491920000000  0.5307130000000  0.5076460000000 1.0
C      1  0.5357880000000  0.6027080000000  0.5109770000000 1.0
C      1  0.4436810000000  0.5908000000000  0.4423470000000 1.0
C      1  0.5612910000000  0.6045450000000  0.5507020000000 1.0
C      1  0.5403940000000  0.4238390000000  0.4906480000000 1.0
C      1  0.5493980000000  0.4618610000000  0.6028450000000 1.0
C      1  0.5659090000000  0.4726900000000  0.5565300000000 1.0
C      1  0.5687040000000  0.4475450000000  0.6179690000000 1.0
C      1  0.4832400000000  0.5170580000000  0.4828800000000 1.0
C      1  0.5502310000000  0.5235950000000  0.5577390000000 1.0
C      1  0.5213860000000  0.5794770000000  0.4165700000000 1.0
C      1  0.5370150000000  0.4747990000000  0.4959950000000 1.0
C      1  0.5220610000000  0.6190140000000  0.5302080000000 1.0
C      1  0.4702840000000  0.4393280000000  0.3896860000000 1.0
C      1  0.5147510000000  0.5592490000000  0.5299910000000 1.0
C      1  0.3693740000000  0.6041450000000  0.4902710000000 1.0
C      1  0.4312310000000  0.4796780000000  0.5521050000000 1.0
C      1  0.5327160000000  0.6135590000000  0.5565510000000 1.0
C      1  0.5297000000000  0.5195740000000  0.4876890000000 1.0
C      1  0.5977720000000  0.4643650000000  0.4551190000000 1.0
C      1  0.6026550000000  0.5403050000000  0.4837440000000 1.0
C      1  0.5863350000000  0.4340230000000  0.6315820000000 1.0
C      1  0.5611180000000  0.5013710000000  0.4254870000000 1.0
C      1  0.4707690000000  0.5767310000000  0.4083180000000 1.0
C      1  0.5105130000000  0.5327880000000  0.3992140000000 1.0
C      1  0.4259670000000  0.4727620000000  0.4364580000000 1.0
C      1  0.4848540000000  0.5114320000000  0.6426060000000 1.0
C      1  0.5672680000000  0.5803050000000  0.5663020000000 1.0
C      1  0.4284860000000  0.4062560000000  0.5040710000000 1.0
C      1  0.5196110000000  0.5922790000000  0.5716750000000 1.0
C      1  0.4319460000000  0.5777330000000  0.5573070000000 1.0
C      1  0.4125030000000  0.4181630000000  0.4862140000000 1.0
C      1  0.4851910000000  0.5270490000000  0.4533180000000 1.0
C      1  0.5218710000000  0.5105230000000  0.6125440000000 1.0
C      1  0.4510390000000  0.4067210000000  0.4443530000000 1.0
C      1  0.5740540000000  0.5737330000000  0.5141730000000 1.0
C      1  0.4757400000000  0.4790540000000  0.3607830000000 1.0
C      1  0.4596160000000  0.3851790000000  0.4609350000000 1.0
C      1  0.4618900000000  0.5058240000000  0.3971260000000 1.0
C      1  0.4040730000000  0.4442470000000  0.5459250000000 1.0
C      1  0.3667580000000  0.5138090000000  0.5286010000000 1.0
C      1  0.5225680000000  0.4902790000000  0.3762770000000 1.0
C      1  0.4644450000000  0.5049180000000  0.4420250000000 1.0
C      1  0.4938270000000  0.5896970000000  0.4196080000000 1.0
C      1  0.4564320000000  0.4607180000000  0.4707380000000 1.0
C      1  0.3955470000000  0.4830120000000  0.4990300000000 1.0
C      1  0.4267940000000  0.4228510000000  0.4389370000000 1.0
C      1  0.4448320000000  0.5708760000000  0.4199920000000 1.0
C      1  0.4359000000000  0.5001350000000  0.4342060000000 1.0
C      1  0.4774780000000  0.5048460000000  0.3735490000000 1.0
C      1  0.4735810000000  0.5990900000000  0.5523400000000 1.0
C      1  0.5306880000000  0.6335240000000  0.4640030000000 1.0
C      1  0.4430590000000  0.4988230000000  0.6171040000000 1.0
C      1  0.5146520000000  0.4633660000000  0.3839230000000 1.0
C      1  0.5080920000000  0.5102460000000  0.5875410000000 1.0
C      1  0.5616220000000  0.4810680000000  0.5831790000000 1.0
C      1  0.4810900000000  0.4220580000000  0.4096460000000 1.0
C      1  0.5639000000000  0.5995360000000  0.5217840000000 1.0
C      1  0.5102750000000  0.5221560000000  0.4255530000000 1.0
C      1  0.5144020000000  0.5501930000000  0.4603320000000 1.0
C      1  0.5484710000000  0.5187900000000  0.6084460000000 1.0
C      1  0.6294880000000  0.5027900000000  0.4626930000000 1.0
C      1  0.5640740000000  0.5313800000000  0.4591380000000 1.0
C      1  0.5260260000000  0.5745000000000  0.5045000000000 1.0
C      1  0.6266420000000  0.5298060000000  0.4708780000000 1.0
C      1  0.4800460000000  0.4598140000000  0.6362840000000 1.0
C      1  0.5652340000000  0.5774330000000  0.4520600000000 1.0
C      1  0.4594150000000  0.5124050000000  0.6336460000000 1.0
C      1  0.4368110000000  0.5176790000000  0.4090000000000 1.0
C      1  0.4742440000000  0.3922960000000  0.5227020000000 1.0
C      1  0.4473300000000  0.5967520000000  0.5412210000000 1.0
C      1  0.4629630000000  0.5409160000000  0.5636270000000 1.0
C      1  0.5432300000000  0.3865940000000  0.5208950000000 1.0
C      1  0.5749090000000  0.4549600000000  0.4127390000000 1.0
C      1  0.5179090000000  0.4326270000000  0.5093340000000 1.0
C      1  0.4950030000000  0.5444350000000  0.5196890000000 1.0
C      1  0.5893190000000  0.4753600000000  0.5391670000000 1.0
C      1  0.5405570000000  0.5711310000000  0.5729960000000 1.0
C      1  0.4727060000000  0.4235910000000  0.4368860000000 1.0
C      1  0.4687490000000  0.5540060000000  0.5170190000000 1.0
C      1  0.5001990000000  0.3905450000000  0.5694240000000 1.0
C      1  0.5407740000000  0.4692660000000  0.5444190000000 1.0
C      1  0.5649610000000  0.4381120000000  0.4973120000000 1.0
C      1  0.5369050000000  0.5359440000000  0.4644870000000 1.0
C      1  0.5639530000000  0.4653650000000  0.4889270000000 1.0
C      1  0.3723860000000  0.4887940000000  0.5384490000000 1.0
C      1  0.5038470000000  0.4959020000000  0.5211620000000 1.0
C      1  0.5815610000000  0.5538010000000  0.4650150000000 1.0
C      1  0.5038620000000  0.4871120000000  0.5691630000000 1.0
C      1  0.4399690000000  0.5418030000000  0.4637080000000 1.0
C      1  0.3970930000000  0.5222700000000  0.4606190000000 1.0
C      1  0.5884790000000  0.5632660000000  0.5570460000000 1.0
C      1  0.5399350000000  0.6562420000000  0.4728150000000 1.0
C      1  0.4918440000000  0.5836230000000  0.5684640000000 1.0
C      1  0.5739620000000  0.4828960000000  0.4086000000000 1.0
C      1  0.4919420000000  0.6069950000000  0.4441210000000 1.0
C      1  0.6478890000000  0.5475290000000  0.4665910000000 1.0
C      1  0.4875530000000  0.4567480000000  0.3748200000000 1.0
C      1  0.5209780000000  0.4544960000000  0.6098950000000 1.0
C      1  0.4428290000000  0.4457330000000  0.3953270000000 1.0
C      1  0.4413380000000  0.4611260000000  0.5311610000000 1.0
C      1  0.4358070000000  0.5500520000000  0.5632560000000 1.0
C      1  0.5524450000000  0.5587750000000  0.5033880000000 1.0
C      1  0.4661440000000  0.5503850000000  0.4571980000000 1.0
C      1  0.5235740000000  0.4008910000000  0.4501920000000 1.0
C      1  0.4695730000000  0.5173540000000  0.5474050000000 1.0
C      1  0.6312160000000  0.4991350000000  0.5319880000000 1.0
C      1  0.5588460000000  0.5100110000000  0.5833590000000 1.0
C      1  0.3845110000000  0.5835420000000  0.4997820000000 1.0
C      1  0.4290430000000  0.5448670000000  0.4198350000000 1.0
C      1  0.5060650000000  0.5694950000000  0.4791360000000 1.0
C      1  0.4115870000000  0.5869630000000  0.5089130000000 1.0
C      1  0.4269490000000  0.5056640000000  0.5428010000000 1.0
C      1  0.4779620000000  0.5725160000000  0.4718790000000 1.0
C      1  0.4527610000000  0.4110850000000  0.5169580000000 1.0
C      1  0.5324360000000  0.5051540000000  0.4297140000000 1.0
C      1  0.4867640000000  0.4673910000000  0.4316670000000 1.0
C      1  0.4732480000000  0.4497150000000  0.4492320000000 1.0
C      1  0.5037930000000  0.4397040000000  0.5423570000000 1.0
C      1  0.5953100000000  0.4474330000000  0.5316240000000 1.0
C      1  0.5070940000000  0.5370540000000  0.5762700000000 1.0
C      1  0.5234970000000  0.3560420000000  0.4849320000000 1.0
C      1  0.5781260000000  0.4275040000000  0.5199990000000 1.0
C      1  0.5915770000000  0.5565210000000  0.5293800000000 1.0
C      1  0.5081740000000  0.4980340000000  0.6333230000000 1.0
C      1  0.5231180000000  0.5580910000000  0.3981350000000 1.0
C      1  0.4196230000000  0.5609070000000  0.5169250000000 1.0
C      1  0.6226300000000  0.4776830000000  0.4553570000000 1.0
C      1  0.4760450000000  0.4907610000000  0.4196560000000 1.0
C      1  0.4510800000000  0.5094750000000  0.5271180000000 1.0
C      1  0.5648820000000  0.4025810000000  0.5276180000000 1.0
C      1  0.3745010000000  0.5562970000000  0.5013330000000 1.0
C      1  0.4852690000000  0.5551420000000  0.5736660000000 1.0
C      1  0.4163210000000  0.4344480000000  0.4639960000000 1.0
C      1  0.5390920000000  0.5892010000000  0.4393330000000 1.0
C      1  0.5209730000000  0.6105230000000  0.4516230000000 1.0
C      1  0.4627370000000  0.4550020000000  0.6144470000000 1.0
C      1  0.4436340000000  0.4740450000000  0.6036340000000 1.0
C      1  0.4762350000000  0.4352590000000  0.5482330000000 1.0
C      1  0.5005400000000  0.3543010000000  0.4674690000000 1.0
C      1  0.5163570000000  0.4620180000000  0.5572020000000 1.0
C      1  0.4597800000000  0.4317910000000  0.5722420000000 1.0
C      1  0.5306910000000  0.5463060000000  0.5609840000000 1.0
C      1  0.4317540000000  0.4681670000000  0.5782960000000 1.0
C      1  0.5037930000000  0.4328720000000  0.5980340000000 1.0
C      1  0.5035180000000  0.5207810000000  0.5035810000000 1.0
C      1  0.5258610000000  0.4530870000000  0.4083810000000 1.0
C      1  0.5050950000000  0.5132600000000  0.3784880000000 1.0
C      1  0.3754360000000  0.5278610000000  0.5051000000000 1.0
C      1  0.5143930000000  0.4641440000000  0.4322320000000 1.0
C      1  0.5064170000000  0.4695860000000  0.6308010000000 1.0
C      1  0.5114620000000  0.4079870000000  0.5867290000000 1.0
C      1  0.6039500000000  0.5003980000000  0.5287690000000 1.0
END
