TITL C-3691715-1764-8 10500.8517937458 125000 -906.939855278436 0 0 148 (C1) n - 1
REM
REM in /home/nfs/bkarasulu/CARBON/AIRSS/Generating-Clusters/LCBOP/Only-C1/SD-CG/HFTN-CG/FIRE-CG
REM
REM
REM
REM
REM
REM ./C.cell (11c1c37f851c82e70ff6c80c92926a4b)
REM AIRSS Version 0.9.1 bugfix July 2018 build 013d7b7c2542+ Fri, 06 Jul 2018 19:26:36 +0100
REM compiler GCC version 9.2.1 20190827 (Red Hat 9.2.1-1)
REM options -cpp -mtune=generic -march=x86-64 -g -O0 -fpre-include=/usr/include/finclude/math-vector-fortran.h
REM seed 1531283449 150388792 -1105053792 1211875604 110515622 -759070315 -1381653541 -2036889326 -1227708649 517576431 2081704971 -931831188 -1895021585 -1077806662 -1456570937 1918972010 -256065260 1799445085 -1876581691 1024602916 -1354667329 -891803703 344512462 2047528855 1293260536 -1298785818 -1474984866 875564799 -1275814311 -2076681085 887774963 1165426494 1234322752
REM
CELL 1.54180   50.00000   50.00000   50.00000   90.00000   90.00000   90.00000
LATT -1
SFAC C  
C      1  0.5649210000000  0.4635510000000  0.4713070000000 1.0
C      1  0.4760340000000  0.5125500000000  0.4000980000000 1.0
C      1  0.4934210000000  0.4485330000000  0.4107760000000 1.0
C      1  0.4225710000000  0.4254460000000  0.4575390000000 1.0
C      1  0.4303930000000  0.4952670000000  0.4500190000000 1.0
C      1  0.4944990000000  0.5157820000000  0.5556690000000 1.0
C      1  0.4409050000000  0.5873550000000  0.4753370000000 1.0
C      1  0.6205740000000  0.4737510000000  0.5229060000000 1.0
C      1  0.4447130000000  0.4155500000000  0.4454320000000 1.0
C      1  0.5129830000000  0.4738950000000  0.5118630000000 1.0
C      1  0.5397030000000  0.5375810000000  0.3989450000000 1.0
C      1  0.5028430000000  0.4720260000000  0.3932020000000 1.0
C      1  0.5018180000000  0.5723180000000  0.4395990000000 1.0
C      1  0.5184840000000  0.3962400000000  0.5372610000000 1.0
C      1  0.3962290000000  0.5289600000000  0.5031800000000 1.0
C      1  0.5289320000000  0.5717550000000  0.5885450000000 1.0
C      1  0.4478240000000  0.4740740000000  0.4619430000000 1.0
C      1  0.4599910000000  0.4256270000000  0.5988460000000 1.0
C      1  0.5600550000000  0.4547560000000  0.5604600000000 1.0
C      1  0.5356250000000  0.4555960000000  0.5769750000000 1.0
C      1  0.5462770000000  0.5189420000000  0.4574000000000 1.0
C      1  0.5338260000000  0.4836190000000  0.5292290000000 1.0
C      1  0.5791340000000  0.4760320000000  0.5652920000000 1.0
C      1  0.5150550000000  0.4373710000000  0.5654930000000 1.0
C      1  0.4876860000000  0.5479660000000  0.4801380000000 1.0
C      1  0.4395730000000  0.5755080000000  0.5457410000000 1.0
C      1  0.5038520000000  0.4361910000000  0.4777390000000 1.0
C      1  0.4029610000000  0.5412730000000  0.6085770000000 1.0
C      1  0.4887580000000  0.4711680000000  0.5338930000000 1.0
C      1  0.5510870000000  0.5258650000000  0.5884110000000 1.0
C      1  0.5863850000000  0.5114640000000  0.4300060000000 1.0
C      1  0.4683940000000  0.4702700000000  0.4437380000000 1.0
C      1  0.4945790000000  0.4443150000000  0.5454020000000 1.0
C      1  0.5224970000000  0.5856600000000  0.6110090000000 1.0
C      1  0.4702390000000  0.5135920000000  0.4279880000000 1.0
C      1  0.5302970000000  0.5943930000000  0.5166550000000 1.0
C      1  0.4696840000000  0.4014220000000  0.5892570000000 1.0
C      1  0.4468660000000  0.4231070000000  0.5548910000000 1.0
C      1  0.4499880000000  0.5132120000000  0.5461720000000 1.0
C      1  0.5298380000000  0.5411310000000  0.4669060000000 1.0
C      1  0.4936940000000  0.5639630000000  0.4135250000000 1.0
C      1  0.4317370000000  0.5436650000000  0.4401100000000 1.0
C      1  0.4925380000000  0.4883680000000  0.5595900000000 1.0
C      1  0.4115880000000  0.5016850000000  0.4701690000000 1.0
C      1  0.5333000000000  0.4020000000000  0.5109950000000 1.0
C      1  0.4429150000000  0.5176600000000  0.4364300000000 1.0
C      1  0.5052840000000  0.4944990000000  0.4633190000000 1.0
C      1  0.4043360000000  0.4398030000000  0.4715290000000 1.0
C      1  0.5780290000000  0.4864710000000  0.4802120000000 1.0
C      1  0.5739630000000  0.4372120000000  0.4784370000000 1.0
C      1  0.4765780000000  0.5246410000000  0.5338900000000 1.0
C      1  0.6091050000000  0.5218460000000  0.4464080000000 1.0
C      1  0.5803110000000  0.5692930000000  0.4587030000000 1.0
C      1  0.5567710000000  0.5845390000000  0.5099790000000 1.0
C      1  0.4313550000000  0.4782280000000  0.6057460000000 1.0
C      1  0.4120860000000  0.5540330000000  0.5098930000000 1.0
C      1  0.6167810000000  0.5110910000000  0.4928540000000 1.0
C      1  0.5660120000000  0.5291240000000  0.4395230000000 1.0
C      1  0.5421460000000  0.4233230000000  0.4449500000000 1.0
C      1  0.5285970000000  0.5435370000000  0.5866750000000 1.0
C      1  0.4886500000000  0.3982440000000  0.5406930000000 1.0
C      1  0.6144490000000  0.5017560000000  0.5198810000000 1.0
C      1  0.4654990000000  0.4808370000000  0.5140700000000 1.0
C      1  0.4146760000000  0.5479810000000  0.4632860000000 1.0
C      1  0.5771340000000  0.5565610000000  0.5481990000000 1.0
C      1  0.4423670000000  0.4911510000000  0.5607780000000 1.0
C      1  0.4914980000000  0.6036930000000  0.4790160000000 1.0
C      1  0.5525020000000  0.4331600000000  0.5405740000000 1.0
C      1  0.4211850000000  0.4964680000000  0.6222130000000 1.0
C      1  0.3946390000000  0.5158760000000  0.5475130000000 1.0
C      1  0.5439600000000  0.4997850000000  0.5982880000000 1.0
C      1  0.4182150000000  0.5585920000000  0.5375190000000 1.0
C      1  0.4473720000000  0.4420000000000  0.5782480000000 1.0
C      1  0.5464970000000  0.5073980000000  0.3983990000000 1.0
C      1  0.4777570000000  0.4873380000000  0.3870740000000 1.0
C      1  0.4619820000000  0.4301330000000  0.5109080000000 1.0
C      1  0.5458060000000  0.5042720000000  0.5401440000000 1.0
C      1  0.5598060000000  0.4666770000000  0.4242070000000 1.0
C      1  0.5554250000000  0.5272600000000  0.5026380000000 1.0
C      1  0.5320990000000  0.4155030000000  0.5554620000000 1.0
C      1  0.4844710000000  0.4942390000000  0.4444420000000 1.0
C      1  0.5551930000000  0.4378530000000  0.4225650000000 1.0
C      1  0.5694250000000  0.4929240000000  0.4129980000000 1.0
C      1  0.5262340000000  0.4880200000000  0.3905310000000 1.0
C      1  0.4105490000000  0.5208470000000  0.6239560000000 1.0
C      1  0.6118250000000  0.4499680000000  0.5133350000000 1.0
C      1  0.4778010000000  0.5080880000000  0.5062360000000 1.0
C      1  0.5921300000000  0.5569890000000  0.4835090000000 1.0
C      1  0.5640990000000  0.5789830000000  0.5580370000000 1.0
C      1  0.5322140000000  0.5429600000000  0.4963430000000 1.0
C      1  0.4312980000000  0.4672090000000  0.3824850000000 1.0
C      1  0.4040240000000  0.5416010000000  0.5562900000000 1.0
C      1  0.3995600000000  0.5262560000000  0.4743540000000 1.0
C      1  0.4439490000000  0.5671320000000  0.4290540000000 1.0
C      1  0.4654370000000  0.5660650000000  0.4103970000000 1.0
C      1  0.4008870000000  0.5487950000000  0.5831120000000 1.0
C      1  0.5026940000000  0.4952880000000  0.4921080000000 1.0
C      1  0.4117720000000  0.4496560000000  0.5324900000000 1.0
C      1  0.5126000000000  0.5479420000000  0.3989840000000 1.0
C      1  0.5955530000000  0.4361580000000  0.4968020000000 1.0
C      1  0.4996080000000  0.4812570000000  0.5860980000000 1.0
C      1  0.4251780000000  0.4932520000000  0.4939790000000 1.0
C      1  0.4642550000000  0.5990320000000  0.4865720000000 1.0
C      1  0.6098570000000  0.5334520000000  0.4753070000000 1.0
C      1  0.5791650000000  0.5655570000000  0.5115380000000 1.0
C      1  0.4685280000000  0.5280660000000  0.4856880000000 1.0
C      1  0.5585000000000  0.5585300000000  0.4083150000000 1.0
C      1  0.5140700000000  0.4279640000000  0.4511030000000 1.0
C      1  0.4699780000000  0.4134950000000  0.4355680000000 1.0
C      1  0.5181680000000  0.5874740000000  0.5424760000000 1.0
C      1  0.5922220000000  0.5106760000000  0.5343840000000 1.0
C      1  0.4377380000000  0.4346100000000  0.5288320000000 1.0
C      1  0.3931700000000  0.5043440000000  0.5211930000000 1.0
C      1  0.4552540000000  0.4704600000000  0.3944710000000 1.0
C      1  0.5054170000000  0.5501900000000  0.5036070000000 1.0
C      1  0.4758830000000  0.4325450000000  0.4856090000000 1.0
C      1  0.4904500000000  0.5509950000000  0.5272710000000 1.0
C      1  0.4230850000000  0.5665820000000  0.4850660000000 1.0
C      1  0.5655820000000  0.5181410000000  0.5262850000000 1.0
C      1  0.4660830000000  0.4583410000000  0.4180590000000 1.0
C      1  0.5874180000000  0.5039560000000  0.5621750000000 1.0
C      1  0.3967760000000  0.4414010000000  0.5545550000000 1.0
C      1  0.5271440000000  0.4777580000000  0.5921720000000 1.0
C      1  0.5743480000000  0.5291840000000  0.5712460000000 1.0
C      1  0.4405340000000  0.5893850000000  0.4464730000000 1.0
C      1  0.4476160000000  0.4763450000000  0.4914340000000 1.0
C      1  0.5053040000000  0.5515170000000  0.4579070000000 1.0
C      1  0.5312400000000  0.4941060000000  0.4529400000000 1.0
C      1  0.5368090000000  0.5838310000000  0.5641180000000 1.0
C      1  0.5397270000000  0.4317020000000  0.5138920000000 1.0
C      1  0.5691700000000  0.5569420000000  0.4350590000000 1.0
C      1  0.4953930000000  0.4263440000000  0.4295640000000 1.0
C      1  0.3930750000000  0.4567340000000  0.4896260000000 1.0
C      1  0.6058520000000  0.4884030000000  0.4784040000000 1.0
C      1  0.3971600000000  0.4686690000000  0.5155000000000 1.0
C      1  0.5207300000000  0.4477670000000  0.4989340000000 1.0
C      1  0.4912960000000  0.5754300000000  0.5419440000000 1.0
C      1  0.4839060000000  0.4240150000000  0.5290010000000 1.0
C      1  0.4405300000000  0.4699020000000  0.5803710000000 1.0
C      1  0.5467090000000  0.3956360000000  0.4863070000000 1.0
C      1  0.5059340000000  0.5325710000000  0.5744870000000 1.0
C      1  0.5577320000000  0.4154580000000  0.4681530000000 1.0
C      1  0.4664550000000  0.3989430000000  0.5603380000000 1.0
C      1  0.4651660000000  0.5836960000000  0.5492680000000 1.0
C      1  0.4984600000000  0.5975450000000  0.4519410000000 1.0
C      1  0.5127270000000  0.6058130000000  0.4975680000000 1.0
C      1  0.5479480000000  0.4717780000000  0.4500340000000 1.0
C      1  0.5627980000000  0.5104570000000  0.4812530000000 1.0
END
