TITL C-3691714-3020-19 1624.48618252034 125000 -1185.17802668786 0 0 196 (C1) n - 1
REM
REM in /home/nfs/bkarasulu/CARBON/AIRSS/Generating-Clusters/LCBOP/Only-C1/SD-CG/HFTN-CG/FIRE-CG
REM
REM
REM
REM
REM
REM ./C.cell (11c1c37f851c82e70ff6c80c92926a4b)
REM AIRSS Version 0.9.1 bugfix July 2018 build 013d7b7c2542+ Fri, 06 Jul 2018 19:26:36 +0100
REM compiler GCC version 9.2.1 20190827 (Red Hat 9.2.1-1)
REM options -cpp -mtune=generic -march=x86-64 -g -O0 -fpre-include=/usr/include/finclude/math-vector-fortran.h
REM seed 518901508 -1672666876 -1293981663 -1292433405 -2132054796 -1549310228 574171537 -706123748 -407461469 1598319713 1793200263 368381621 -321408546 467794526 -1454363984 407646849 -1042806852 1439851086 -1640422200 -191941152 -118391296 -1550124395 1178422839 1393251232 1111038557 2039692250 -705493608 -280482480 -756918454 -1045344092 -37829685 -1764002989 -1140828861
REM
CELL 1.54180   50.00000   50.00000   50.00000   90.00000   90.00000   90.00000
LATT -1
SFAC C  
C      1  0.5562980000000  0.5900730000000  0.4570310000000 1.0
C      1  0.4613120000000  0.4416960000000  0.5299360000000 1.0
C      1  0.5097350000000  0.5718350000000  0.4685970000000 1.0
C      1  0.4603690000000  0.5466440000000  0.3953910000000 1.0
C      1  0.5814790000000  0.4030830000000  0.5487280000000 1.0
C      1  0.5925350000000  0.5728380000000  0.4783560000000 1.0
C      1  0.4630270000000  0.5063950000000  0.5566820000000 1.0
C      1  0.3649150000000  0.4685460000000  0.4705290000000 1.0
C      1  0.4769250000000  0.5288330000000  0.3829720000000 1.0
C      1  0.6868100000000  0.5021340000000  0.4855470000000 1.0
C      1  0.4479150000000  0.5897100000000  0.4754360000000 1.0
C      1  0.5548330000000  0.4063420000000  0.4642530000000 1.0
C      1  0.5622390000000  0.5237650000000  0.4607760000000 1.0
C      1  0.5036240000000  0.5030600000000  0.4297450000000 1.0
C      1  0.5123250000000  0.5115320000000  0.4783570000000 1.0
C      1  0.5361270000000  0.4188930000000  0.5627750000000 1.0
C      1  0.4962120000000  0.4103680000000  0.4154370000000 1.0
C      1  0.4106340000000  0.4481680000000  0.5573970000000 1.0
C      1  0.5111660000000  0.6020200000000  0.5143050000000 1.0
C      1  0.4308020000000  0.5384660000000  0.4964070000000 1.0
C      1  0.4317810000000  0.5720690000000  0.4593060000000 1.0
C      1  0.4558450000000  0.4864910000000  0.4253920000000 1.0
C      1  0.4904330000000  0.5154610000000  0.5469890000000 1.0
C      1  0.5121140000000  0.4786230000000  0.5236210000000 1.0
C      1  0.5151850000000  0.4036600000000  0.4389750000000 1.0
C      1  0.5798740000000  0.5584780000000  0.4261820000000 1.0
C      1  0.5081640000000  0.5964110000000  0.4232470000000 1.0
C      1  0.4583340000000  0.5807280000000  0.5010860000000 1.0
C      1  0.5327830000000  0.4947620000000  0.5923150000000 1.0
C      1  0.4142020000000  0.5287900000000  0.6041350000000 1.0
C      1  0.4575540000000  0.3935270000000  0.5088680000000 1.0
C      1  0.4529810000000  0.5625850000000  0.4178500000000 1.0
C      1  0.4690080000000  0.5134770000000  0.5062320000000 1.0
C      1  0.4233530000000  0.4379210000000  0.5811560000000 1.0
C      1  0.5711970000000  0.5039390000000  0.5404600000000 1.0
C      1  0.5810080000000  0.5751760000000  0.4507460000000 1.0
C      1  0.5044470000000  0.4600460000000  0.5026230000000 1.0
C      1  0.6018070000000  0.4953310000000  0.4992070000000 1.0
C      1  0.5257670000000  0.4818280000000  0.5702710000000 1.0
C      1  0.4517540000000  0.6006580000000  0.5651430000000 1.0
C      1  0.4434820000000  0.6354550000000  0.5317400000000 1.0
C      1  0.4241000000000  0.4788170000000  0.4887280000000 1.0
C      1  0.5187720000000  0.4192640000000  0.5184750000000 1.0
C      1  0.5058380000000  0.5527610000000  0.6030980000000 1.0
C      1  0.5129360000000  0.4578430000000  0.3881260000000 1.0
C      1  0.4910420000000  0.5009980000000  0.5225380000000 1.0
C      1  0.5061310000000  0.4221900000000  0.5747320000000 1.0
C      1  0.3970280000000  0.4362610000000  0.4889140000000 1.0
C      1  0.4896280000000  0.4929080000000  0.4739270000000 1.0
C      1  0.4971670000000  0.4823930000000  0.3791110000000 1.0
C      1  0.4522310000000  0.4228300000000  0.3716240000000 1.0
C      1  0.5645280000000  0.5771480000000  0.5503460000000 1.0
C      1  0.5191400000000  0.5835200000000  0.3992860000000 1.0
C      1  0.5050470000000  0.5917440000000  0.5660480000000 1.0
C      1  0.5525510000000  0.4281380000000  0.5866640000000 1.0
C      1  0.5389070000000  0.5691740000000  0.4663790000000 1.0
C      1  0.4138310000000  0.5761820000000  0.5228870000000 1.0
C      1  0.4186340000000  0.4922560000000  0.5346310000000 1.0
C      1  0.6165420000000  0.5604750000000  0.4848040000000 1.0
C      1  0.5163850000000  0.5397830000000  0.5367180000000 1.0
C      1  0.5616670000000  0.4452300000000  0.6052470000000 1.0
C      1  0.4490840000000  0.4060670000000  0.4448390000000 1.0
C      1  0.5605850000000  0.4929050000000  0.3875690000000 1.0
C      1  0.5443250000000  0.4496360000000  0.4444680000000 1.0
C      1  0.3861910000000  0.4947160000000  0.5680340000000 1.0
C      1  0.5083360000000  0.4335930000000  0.4949890000000 1.0
C      1  0.4696010000000  0.4699050000000  0.3759220000000 1.0
C      1  0.4534010000000  0.4801130000000  0.5956630000000 1.0
C      1  0.3854390000000  0.5040960000000  0.4961240000000 1.0
C      1  0.4098020000000  0.4187160000000  0.5084230000000 1.0
C      1  0.5763760000000  0.5812780000000  0.5018780000000 1.0
C      1  0.4927740000000  0.4838750000000  0.6323130000000 1.0
C      1  0.6455530000000  0.5244650000000  0.4977010000000 1.0
C      1  0.4394660000000  0.5878550000000  0.5214870000000 1.0
C      1  0.5674560000000  0.6089840000000  0.5007380000000 1.0
C      1  0.5620870000000  0.6205810000000  0.5265020000000 1.0
C      1  0.4955620000000  0.4066180000000  0.5327640000000 1.0
C      1  0.5922210000000  0.4532140000000  0.5516440000000 1.0
C      1  0.5206640000000  0.6000330000000  0.5426790000000 1.0
C      1  0.4841470000000  0.4835300000000  0.4263650000000 1.0
C      1  0.6206710000000  0.5375830000000  0.5000350000000 1.0
C      1  0.4122820000000  0.5667940000000  0.5770630000000 1.0
C      1  0.4604560000000  0.4801570000000  0.5682440000000 1.0
C      1  0.4955070000000  0.5460510000000  0.4800970000000 1.0
C      1  0.5648530000000  0.4699510000000  0.6156230000000 1.0
C      1  0.6070500000000  0.4918830000000  0.4339020000000 1.0
C      1  0.4816070000000  0.4706470000000  0.4907630000000 1.0
C      1  0.5805770000000  0.4081800000000  0.4512300000000 1.0
C      1  0.5124570000000  0.5711350000000  0.5844550000000 1.0
C      1  0.5200210000000  0.5541980000000  0.4002640000000 1.0
C      1  0.4458250000000  0.5259830000000  0.5167430000000 1.0
C      1  0.5590740000000  0.6133850000000  0.4737230000000 1.0
C      1  0.5681390000000  0.6465090000000  0.5325900000000 1.0
C      1  0.4872600000000  0.5376080000000  0.6179560000000 1.0
C      1  0.5089070000000  0.3872350000000  0.4705280000000 1.0
C      1  0.3425310000000  0.5211990000000  0.5115640000000 1.0
C      1  0.6023250000000  0.3937420000000  0.4591790000000 1.0
C      1  0.3829000000000  0.5341250000000  0.5356140000000 1.0
C      1  0.5497070000000  0.6025620000000  0.5460680000000 1.0
C      1  0.5076420000000  0.6199960000000  0.4390570000000 1.0
C      1  0.5399180000000  0.3922800000000  0.4856410000000 1.0
C      1  0.4794550000000  0.4599210000000  0.6289690000000 1.0
C      1  0.4152820000000  0.4538590000000  0.4767620000000 1.0
C      1  0.5757500000000  0.4581220000000  0.5286040000000 1.0
C      1  0.5502400000000  0.5444670000000  0.4717940000000 1.0
C      1  0.4027910000000  0.5403820000000  0.5811540000000 1.0
C      1  0.4832860000000  0.3832810000000  0.4873120000000 1.0
C      1  0.4086690000000  0.4917160000000  0.5077960000000 1.0
C      1  0.6448130000000  0.4889840000000  0.4652500000000 1.0
C      1  0.4449400000000  0.4840410000000  0.3808550000000 1.0
C      1  0.6185860000000  0.4826540000000  0.4575090000000 1.0
C      1  0.4095150000000  0.4990800000000  0.4202360000000 1.0
C      1  0.4606300000000  0.4531450000000  0.5028230000000 1.0
C      1  0.5978330000000  0.4774940000000  0.5672790000000 1.0
C      1  0.5500960000000  0.5419290000000  0.5234010000000 1.0
C      1  0.4659730000000  0.5093470000000  0.4763370000000 1.0
C      1  0.5583430000000  0.5059130000000  0.4401450000000 1.0
C      1  0.5359220000000  0.4914600000000  0.4834780000000 1.0
C      1  0.4431030000000  0.4763740000000  0.4476720000000 1.0
C      1  0.4596820000000  0.5477170000000  0.6196000000000 1.0
C      1  0.5382590000000  0.4869840000000  0.5123820000000 1.0
C      1  0.4578980000000  0.4561150000000  0.6104070000000 1.0
C      1  0.5535340000000  0.3986000000000  0.5435540000000 1.0
C      1  0.5765400000000  0.4610370000000  0.4796810000000 1.0
C      1  0.5316420000000  0.4996940000000  0.4318420000000 1.0
C      1  0.4259280000000  0.4541490000000  0.4504100000000 1.0
C      1  0.4687760000000  0.5367080000000  0.4619660000000 1.0
C      1  0.4402110000000  0.5272690000000  0.6134440000000 1.0
C      1  0.4988730000000  0.5729970000000  0.4400110000000 1.0
C      1  0.5977810000000  0.5219280000000  0.5072310000000 1.0
C      1  0.4712900000000  0.4405240000000  0.3798880000000 1.0
C      1  0.4681120000000  0.4121720000000  0.5284570000000 1.0
C      1  0.3697520000000  0.5198230000000  0.5142150000000 1.0
C      1  0.3887610000000  0.5234580000000  0.5621180000000 1.0
C      1  0.5410660000000  0.3985060000000  0.5145150000000 1.0
C      1  0.4970300000000  0.4325180000000  0.3932020000000 1.0
C      1  0.4290190000000  0.5718790000000  0.4307640000000 1.0
C      1  0.5013730000000  0.5125200000000  0.3802970000000 1.0
C      1  0.5260160000000  0.5294330000000  0.3860130000000 1.0
C      1  0.4989130000000  0.5588020000000  0.5267500000000 1.0
C      1  0.4880840000000  0.4064550000000  0.5894350000000 1.0
C      1  0.5601470000000  0.4815000000000  0.5289390000000 1.0
C      1  0.5804650000000  0.5283900000000  0.5802890000000 1.0
C      1  0.4047910000000  0.4771250000000  0.5544790000000 1.0
C      1  0.4623820000000  0.4103690000000  0.5968330000000 1.0
C      1  0.6598210000000  0.5051240000000  0.4828920000000 1.0
C      1  0.4448940000000  0.6092560000000  0.5390170000000 1.0
C      1  0.4688710000000  0.4559490000000  0.5544600000000 1.0
C      1  0.4723520000000  0.4164980000000  0.4318650000000 1.0
C      1  0.3941680000000  0.5591160000000  0.5286470000000 1.0
C      1  0.4393370000000  0.5118420000000  0.5401240000000 1.0
C      1  0.4603160000000  0.4319970000000  0.4835610000000 1.0
C      1  0.4084540000000  0.4293880000000  0.5352940000000 1.0
C      1  0.5163410000000  0.4634640000000  0.5493770000000 1.0
C      1  0.4561290000000  0.5038520000000  0.6104290000000 1.0
C      1  0.4945880000000  0.4476820000000  0.5636920000000 1.0
C      1  0.5864600000000  0.5043700000000  0.5640040000000 1.0
C      1  0.4810450000000  0.5612870000000  0.5048650000000 1.0
C      1  0.5067930000000  0.5986760000000  0.4851870000000 1.0
C      1  0.4850230000000  0.4366050000000  0.4481770000000 1.0
C      1  0.4319630000000  0.5850930000000  0.5779030000000 1.0
C      1  0.3929490000000  0.4999470000000  0.4428970000000 1.0
C      1  0.4712460000000  0.5644790000000  0.4385960000000 1.0
C      1  0.5554940000000  0.4958350000000  0.6089010000000 1.0
C      1  0.5740880000000  0.5560760000000  0.5696300000000 1.0
C      1  0.4420530000000  0.4128790000000  0.4718780000000 1.0
C      1  0.3790770000000  0.4937720000000  0.4687340000000 1.0
C      1  0.5502390000000  0.4681050000000  0.4677580000000 1.0
C      1  0.4928900000000  0.4590870000000  0.4353640000000 1.0
C      1  0.5698900000000  0.4743160000000  0.4080260000000 1.0
C      1  0.4315620000000  0.4014420000000  0.4966270000000 1.0
C      1  0.4878520000000  0.4293720000000  0.4748980000000 1.0
C      1  0.5645550000000  0.4497290000000  0.4222370000000 1.0
C      1  0.5995990000000  0.4775840000000  0.4779380000000 1.0
C      1  0.4456150000000  0.4330780000000  0.5986600000000 1.0
C      1  0.5634350000000  0.5668800000000  0.5231560000000 1.0
C      1  0.3669250000000  0.4853030000000  0.5850160000000 1.0
C      1  0.4424510000000  0.4923340000000  0.4712240000000 1.0
C      1  0.5705900000000  0.5412720000000  0.4061260000000 1.0
C      1  0.5049710000000  0.6207190000000  0.4663740000000 1.0
C      1  0.4791230000000  0.6018610000000  0.5707700000000 1.0
C      1  0.4352160000000  0.4928860000000  0.4062990000000 1.0
C      1  0.4389360000000  0.5464400000000  0.4705030000000 1.0
C      1  0.5100980000000  0.5487990000000  0.4265460000000 1.0
C      1  0.5538710000000  0.5213840000000  0.3902570000000 1.0
C      1  0.5709060000000  0.5196000000000  0.6059160000000 1.0
C      1  0.5815870000000  0.4269520000000  0.4288740000000 1.0
C      1  0.5959020000000  0.4252550000000  0.5558130000000 1.0
C      1  0.5314760000000  0.4391410000000  0.5396970000000 1.0
C      1  0.3706010000000  0.4445240000000  0.4824720000000 1.0
C      1  0.4944830000000  0.5277730000000  0.4360060000000 1.0
C      1  0.4834180000000  0.5083840000000  0.6212240000000 1.0
C      1  0.5800250000000  0.4928460000000  0.4276350000000 1.0
C      1  0.5731030000000  0.5244800000000  0.5220710000000 1.0
C      1  0.5766450000000  0.4454740000000  0.5034600000000 1.0
C      1  0.5357850000000  0.4218370000000  0.4478960000000 1.0
END
