TITL C-3691717-8699-10 5.37011390228037e-07 125000 -195.596770940318 0 0 33 (C1) n - 1
REM
REM in /home/nfs/bkarasulu/CARBON/AIRSS/Generating-Clusters/LCBOP/Only-C1/SD-CG/HFTN-CG/FIRE-CG
REM
REM
REM
REM
REM
REM ./C.cell (11c1c37f851c82e70ff6c80c92926a4b)
REM AIRSS Version 0.9.1 bugfix July 2018 build 013d7b7c2542+ Fri, 06 Jul 2018 19:26:36 +0100
REM compiler GCC version 9.2.1 20190827 (Red Hat 9.2.1-1)
REM options -cpp -mtune=generic -march=x86-64 -g -O0 -fpre-include=/usr/include/finclude/math-vector-fortran.h
REM seed -1407410433 484775400 1422086150 -1108615538 -824697476 1164576048 1848997720 392482403 -539768201 1370816717 1052896087 1693049467 -2116111682 608697012 -1927608716 -749068627 -1896215513 1703907058 -1853496009 1314677990 -1523348733 -248364514 1788594297 852837333 875792630 770573952 11728162 -1226359402 89744209 -1237331298 -1721024962 -1352937323 -62544347
REM
CELL 1.54180   50.00000   50.00000   50.00000   90.00000   90.00000   90.00000
LATT -1
SFAC C  
C      1  0.5647810000000  0.4994210000000  0.4874460000000 1.0
C      1  0.4703880000000  0.4470040000000  0.5255720000000 1.0
C      1  0.5528430000000  0.4516640000000  0.5414180000000 1.0
C      1  0.5101120000000  0.5287490000000  0.4515200000000 1.0
C      1  0.4496990000000  0.5125370000000  0.5231940000000 1.0
C      1  0.4861650000000  0.4493780000000  0.5487680000000 1.0
C      1  0.5319200000000  0.5747630000000  0.4948850000000 1.0
C      1  0.4626990000000  0.4610080000000  0.4791470000000 1.0
C      1  0.4714000000000  0.5164140000000  0.5414590000000 1.0
C      1  0.5094130000000  0.4344350000000  0.5523650000000 1.0
C      1  0.4749850000000  0.4977520000000  0.5621580000000 1.0
C      1  0.5002910000000  0.5456240000000  0.4722890000000 1.0
C      1  0.4506210000000  0.5487300000000  0.4870040000000 1.0
C      1  0.5161350000000  0.5348500000000  0.5176080000000 1.0
C      1  0.4731760000000  0.5528280000000  0.4733450000000 1.0
C      1  0.5572780000000  0.5093050000000  0.4638190000000 1.0
C      1  0.5377950000000  0.5176550000000  0.5222070000000 1.0
C      1  0.5486780000000  0.4079900000000  0.5613790000000 1.0
C      1  0.4572220000000  0.4628830000000  0.5065050000000 1.0
C      1  0.4708330000000  0.4723730000000  0.4565250000000 1.0
C      1  0.4810710000000  0.4718490000000  0.5649510000000 1.0
C      1  0.5552160000000  0.4973440000000  0.5137510000000 1.0
C      1  0.4440490000000  0.4860590000000  0.5156340000000 1.0
C      1  0.4931020000000  0.5322130000000  0.5333380000000 1.0
C      1  0.5372080000000  0.4308970000000  0.5519130000000 1.0
C      1  0.4411860000000  0.5337870000000  0.5070410000000 1.0
C      1  0.4806700000000  0.5392660000000  0.3861750000000 1.0
C      1  0.4803640000000  0.4917460000000  0.4410590000000 1.0
C      1  0.5370880000000  0.5211470000000  0.4511050000000 1.0
C      1  0.5589550000000  0.4743290000000  0.5290370000000 1.0
C      1  0.4920300000000  0.5160690000000  0.4335390000000 1.0
C      1  0.5165030000000  0.5521490000000  0.4949170000000 1.0
C      1  0.4861250000000  0.5277830000000  0.4089240000000 1.0
END
