TITL C-3691713-1865-1 0.0480420279718208 125000 -698.103993205894 0 0 115 (C1) n - 1
REM
REM in /home/nfs/bkarasulu/CARBON/AIRSS/Generating-Clusters/LCBOP/Only-C1/SD-CG/HFTN-CG/FIRE-CG
REM
REM
REM
REM
REM
REM ./C.cell (11c1c37f851c82e70ff6c80c92926a4b)
REM AIRSS Version 0.9.1 bugfix July 2018 build 013d7b7c2542+ Fri, 06 Jul 2018 19:26:36 +0100
REM compiler GCC version 9.2.1 20190827 (Red Hat 9.2.1-1)
REM options -cpp -mtune=generic -march=x86-64 -g -O0 -fpre-include=/usr/include/finclude/math-vector-fortran.h
REM seed -1569581144 113404612 1512071259 554144654 -216903357 1777117599 1876153486 1795317850 -866370453 812160086 -1406651981 2109152245 -1065081916 -843391505 1005987463 846219388 -767851068 198383411 -268510798 2070200720 -615212846 1015606216 1917814198 -2027519407 1863500296 378630429 -1404351651 -25400362 619962320 -293983560 -2096789441 1208791848 -638035221
REM
CELL 1.54180   50.00000   50.00000   50.00000   90.00000   90.00000   90.00000
LATT -1
SFAC C  
C      1  0.5220920000000  0.5401400000000  0.4090550000000 1.0
C      1  0.5472820000000  0.5442890000000  0.5904120000000 1.0
C      1  0.5221910000000  0.5054110000000  0.6022690000000 1.0
C      1  0.4834610000000  0.5658110000000  0.5307500000000 1.0
C      1  0.5317700000000  0.4799110000000  0.5214300000000 1.0
C      1  0.4907830000000  0.4451380000000  0.4997680000000 1.0
C      1  0.5655050000000  0.5546880000000  0.5702070000000 1.0
C      1  0.4660960000000  0.4740050000000  0.5256370000000 1.0
C      1  0.5672820000000  0.4797990000000  0.4859980000000 1.0
C      1  0.4274910000000  0.5243160000000  0.4483300000000 1.0
C      1  0.5283600000000  0.5385680000000  0.4348650000000 1.0
C      1  0.5809570000000  0.5690950000000  0.5105360000000 1.0
C      1  0.4821740000000  0.4163360000000  0.4625700000000 1.0
C      1  0.6087980000000  0.4805440000000  0.5291920000000 1.0
C      1  0.4990740000000  0.5078130000000  0.3807380000000 1.0
C      1  0.4381140000000  0.5974890000000  0.5764830000000 1.0
C      1  0.5080750000000  0.4100490000000  0.4503720000000 1.0
C      1  0.3978360000000  0.5062810000000  0.5112630000000 1.0
C      1  0.4962930000000  0.5566600000000  0.5977280000000 1.0
C      1  0.4744270000000  0.4906050000000  0.5470140000000 1.0
C      1  0.3841360000000  0.6552440000000  0.5746090000000 1.0
C      1  0.4756170000000  0.4299400000000  0.5460670000000 1.0
C      1  0.5671730000000  0.4233730000000  0.4579400000000 1.0
C      1  0.5086160000000  0.6038440000000  0.3030650000000 1.0
C      1  0.5092090000000  0.5866090000000  0.3231940000000 1.0
C      1  0.5473520000000  0.4965650000000  0.5404700000000 1.0
C      1  0.5675290000000  0.5818840000000  0.5303110000000 1.0
C      1  0.4200320000000  0.6168500000000  0.5759020000000 1.0
C      1  0.5473700000000  0.5157590000000  0.5955450000000 1.0
C      1  0.4859710000000  0.4511980000000  0.5275110000000 1.0
C      1  0.4454460000000  0.5365150000000  0.4675930000000 1.0
C      1  0.4786310000000  0.5123370000000  0.5929060000000 1.0
C      1  0.5439360000000  0.4236290000000  0.5295820000000 1.0
C      1  0.4857340000000  0.5019270000000  0.4610930000000 1.0
C      1  0.5354920000000  0.4311060000000  0.5784430000000 1.0
C      1  0.4993700000000  0.4892730000000  0.5912050000000 1.0
C      1  0.6039920000000  0.5081250000000  0.5247360000000 1.0
C      1  0.4501170000000  0.4415420000000  0.5562490000000 1.0
C      1  0.4582580000000  0.5548830000000  0.5289480000000 1.0
C      1  0.5104070000000  0.4022030000000  0.4992860000000 1.0
C      1  0.5103560000000  0.5521240000000  0.3634060000000 1.0
C      1  0.4226500000000  0.4982760000000  0.4616470000000 1.0
C      1  0.5807800000000  0.5202930000000  0.4569930000000 1.0
C      1  0.4748290000000  0.5576840000000  0.5774990000000 1.0
C      1  0.5257150000000  0.5743210000000  0.5603520000000 1.0
C      1  0.3595600000000  0.4628890000000  0.4619060000000 1.0
C      1  0.4595850000000  0.4584840000000  0.4568070000000 1.0
C      1  0.5552440000000  0.4682060000000  0.6049110000000 1.0
C      1  0.5132930000000  0.4137350000000  0.5738930000000 1.0
C      1  0.5969350000000  0.4590390000000  0.5407110000000 1.0
C      1  0.3813040000000  0.4782740000000  0.4676730000000 1.0
C      1  0.4087790000000  0.4772430000000  0.4214320000000 1.0
C      1  0.4992810000000  0.4121350000000  0.5490160000000 1.0
C      1  0.4364510000000  0.5379740000000  0.5191160000000 1.0
C      1  0.4664110000000  0.4641330000000  0.4043470000000 1.0
C      1  0.5067670000000  0.4622680000000  0.6040570000000 1.0
C      1  0.4876310000000  0.5330370000000  0.6124740000000 1.0
C      1  0.4490700000000  0.4782860000000  0.5038750000000 1.0
C      1  0.5674690000000  0.4236870000000  0.4847270000000 1.0
C      1  0.5121240000000  0.4507040000000  0.4175790000000 1.0
C      1  0.4808220000000  0.5174880000000  0.5424570000000 1.0
C      1  0.5717600000000  0.5351510000000  0.5509870000000 1.0
C      1  0.5223910000000  0.5607220000000  0.5870670000000 1.0
C      1  0.4207190000000  0.5129220000000  0.5280890000000 1.0
C      1  0.5106700000000  0.5103740000000  0.4739390000000 1.0
C      1  0.4031980000000  0.4820210000000  0.4496140000000 1.0
C      1  0.5098000000000  0.5693780000000  0.3433180000000 1.0
C      1  0.5164170000000  0.4852470000000  0.3816290000000 1.0
C      1  0.5547780000000  0.4364190000000  0.5062740000000 1.0
C      1  0.5229910000000  0.5371310000000  0.5298050000000 1.0
C      1  0.5021980000000  0.5187380000000  0.5221640000000 1.0
C      1  0.5225330000000  0.4285050000000  0.4331850000000 1.0
C      1  0.4430900000000  0.4934090000000  0.4813170000000 1.0
C      1  0.4019350000000  0.6362060000000  0.5752510000000 1.0
C      1  0.5330680000000  0.4507580000000  0.5993460000000 1.0
C      1  0.5505870000000  0.4273480000000  0.4372470000000 1.0
C      1  0.4527460000000  0.4873290000000  0.3954350000000 1.0
C      1  0.5107650000000  0.4654550000000  0.5402900000000 1.0
C      1  0.5511280000000  0.4646220000000  0.5036860000000 1.0
C      1  0.4740360000000  0.5298510000000  0.5680770000000 1.0
C      1  0.5216060000000  0.3951060000000  0.4729490000000 1.0
C      1  0.4630980000000  0.5136690000000  0.4731580000000 1.0
C      1  0.5105410000000  0.5336660000000  0.3843140000000 1.0
C      1  0.4265420000000  0.4904200000000  0.5471460000000 1.0
C      1  0.4973800000000  0.4803470000000  0.5619960000000 1.0
C      1  0.3966330000000  0.4572080000000  0.4073120000000 1.0
C      1  0.5011910000000  0.4682600000000  0.4886690000000 1.0
C      1  0.4278800000000  0.5215790000000  0.4203580000000 1.0
C      1  0.5261950000000  0.5282260000000  0.4593940000000 1.0
C      1  0.5480850000000  0.5246180000000  0.5380600000000 1.0
C      1  0.5826110000000  0.5020820000000  0.4793560000000 1.0
C      1  0.5122140000000  0.4948280000000  0.5007930000000 1.0
C      1  0.5844120000000  0.5465180000000  0.4652640000000 1.0
C      1  0.5080340000000  0.6207950000000  0.2832670000000 1.0
C      1  0.5893840000000  0.5478570000000  0.4939550000000 1.0
C      1  0.5112420000000  0.5623920000000  0.5384390000000 1.0
C      1  0.4333770000000  0.5462370000000  0.4913020000000 1.0
C      1  0.4602100000000  0.4315240000000  0.4546130000000 1.0
C      1  0.5720080000000  0.4569290000000  0.5540720000000 1.0
C      1  0.4338400000000  0.4645190000000  0.5553340000000 1.0
C      1  0.5246390000000  0.4633200000000  0.3953060000000 1.0
C      1  0.4885800000000  0.4191920000000  0.4905890000000 1.0
C      1  0.3841710000000  0.4921610000000  0.4926840000000 1.0
C      1  0.5970670000000  0.5241250000000  0.5468200000000 1.0
C      1  0.4707020000000  0.5046090000000  0.3816300000000 1.0
C      1  0.4877430000000  0.4641290000000  0.4232340000000 1.0
C      1  0.5187120000000  0.4085410000000  0.5262930000000 1.0
C      1  0.5614110000000  0.4910650000000  0.5881930000000 1.0
C      1  0.4284270000000  0.4952620000000  0.4088690000000 1.0
C      1  0.5616540000000  0.4830120000000  0.5608830000000 1.0
C      1  0.4801290000000  0.4767100000000  0.4476410000000 1.0
C      1  0.5944100000000  0.5189440000000  0.5004400000000 1.0
C      1  0.5545130000000  0.5776230000000  0.5552430000000 1.0
C      1  0.5529770000000  0.4348920000000  0.5552380000000 1.0
C      1  0.4560720000000  0.5780190000000  0.5763140000000 1.0
END
