TITL C-3691714-3020-4 6.35652693885186e-07 125000 -360.131744181937 0 0 59 (C1) n - 1
REM
REM in /home/nfs/bkarasulu/CARBON/AIRSS/Generating-Clusters/LCBOP/Only-C1/SD-CG/HFTN-CG/FIRE-CG
REM
REM
REM
REM
REM
REM ./C.cell (11c1c37f851c82e70ff6c80c92926a4b)
REM AIRSS Version 0.9.1 bugfix July 2018 build 013d7b7c2542+ Fri, 06 Jul 2018 19:26:36 +0100
REM compiler GCC version 9.2.1 20190827 (Red Hat 9.2.1-1)
REM options -cpp -mtune=generic -march=x86-64 -g -O0 -fpre-include=/usr/include/finclude/math-vector-fortran.h
REM seed 1393126323 479479540 82462151 1257507188 -1094089922 930969549 1339663877 -2102337497 1373636470 416098256 -2121830293 -616940333 784238715 1417596880 -1046573831 -1067929652 -477572391 -603360912 189393123 -1965223960 -945281002 -201628168 894833009 -1403601930 129474910 -54630079 1593528626 -1811390394 -1869466007 432004646 1830602070 1748188147 267949588
REM
CELL 1.54180   50.00000   50.00000   50.00000   90.00000   90.00000   90.00000
LATT -1
SFAC C  
C      1  0.4421660000000  0.5355570000000  0.4484300000000 1.0
C      1  0.5546160000000  0.4643390000000  0.5596980000000 1.0
C      1  0.4338340000000  0.4889030000000  0.4859020000000 1.0
C      1  0.4504940000000  0.5328130000000  0.5149980000000 1.0
C      1  0.5600610000000  0.4747200000000  0.5115910000000 1.0
C      1  0.4368860000000  0.4713020000000  0.5295730000000 1.0
C      1  0.5809670000000  0.5022840000000  0.5459280000000 1.0
C      1  0.5117600000000  0.4697790000000  0.4270320000000 1.0
C      1  0.4655880000000  0.4571570000000  0.4256850000000 1.0
C      1  0.5823100000000  0.5282130000000  0.5568700000000 1.0
C      1  0.4811690000000  0.4269030000000  0.5190110000000 1.0
C      1  0.5522630000000  0.4582390000000  0.4612320000000 1.0
C      1  0.5255240000000  0.5586860000000  0.4676420000000 1.0
C      1  0.4771880000000  0.5292630000000  0.5043820000000 1.0
C      1  0.5216090000000  0.5039790000000  0.4630320000000 1.0
C      1  0.4969990000000  0.4430300000000  0.5343180000000 1.0
C      1  0.5394150000000  0.4541970000000  0.5809480000000 1.0
C      1  0.4577680000000  0.4975130000000  0.4726980000000 1.0
C      1  0.5423060000000  0.5173890000000  0.4524110000000 1.0
C      1  0.4331030000000  0.5482090000000  0.4707780000000 1.0
C      1  0.5438480000000  0.4631150000000  0.5334650000000 1.0
C      1  0.4560990000000  0.5107060000000  0.4473270000000 1.0
C      1  0.4759080000000  0.5049970000000  0.4274990000000 1.0
C      1  0.4963260000000  0.4412690000000  0.5624290000000 1.0
C      1  0.5983980000000  0.4720330000000  0.5801650000000 1.0
C      1  0.4975390000000  0.5628990000000  0.5342390000000 1.0
C      1  0.5766500000000  0.4468970000000  0.4562050000000 1.0
C      1  0.4152790000000  0.5098230000000  0.4921460000000 1.0
C      1  0.4847560000000  0.4778090000000  0.4243770000000 1.0
C      1  0.5458450000000  0.5576120000000  0.5380870000000 1.0
C      1  0.5786750000000  0.4793560000000  0.5627910000000 1.0
C      1  0.4421540000000  0.5548990000000  0.5837130000000 1.0
C      1  0.5052840000000  0.4926430000000  0.4831810000000 1.0
C      1  0.4449140000000  0.5221170000000  0.5410260000000 1.0
C      1  0.5051030000000  0.5654640000000  0.4493810000000 1.0
C      1  0.4411640000000  0.4941430000000  0.5431760000000 1.0
C      1  0.5465130000000  0.5439190000000  0.4552750000000 1.0
C      1  0.4345330000000  0.4412400000000  0.4884090000000 1.0
C      1  0.4806400000000  0.5052360000000  0.4885740000000 1.0
C      1  0.5713380000000  0.4999160000000  0.5186790000000 1.0
C      1  0.5618530000000  0.5237350000000  0.5067100000000 1.0
C      1  0.3883410000000  0.5068170000000  0.4942370000000 1.0
C      1  0.4888690000000  0.5282030000000  0.4179960000000 1.0
C      1  0.5218720000000  0.5521600000000  0.4951450000000 1.0
C      1  0.4292430000000  0.5347490000000  0.4955280000000 1.0
C      1  0.5450620000000  0.5459770000000  0.5114990000000 1.0
C      1  0.5458790000000  0.4674830000000  0.4872230000000 1.0
C      1  0.4515050000000  0.4398980000000  0.4403540000000 1.0
C      1  0.4340060000000  0.4655690000000  0.5021460000000 1.0
C      1  0.5209660000000  0.5675660000000  0.5472130000000 1.0
C      1  0.4409290000000  0.4328060000000  0.4638150000000 1.0
C      1  0.4430930000000  0.5387610000000  0.5632720000000 1.0
C      1  0.5332490000000  0.4607820000000  0.4403110000000 1.0
C      1  0.5675200000000  0.5505240000000  0.5544390000000 1.0
C      1  0.4952370000000  0.5523770000000  0.4279780000000 1.0
C      1  0.5174110000000  0.4704260000000  0.4957910000000 1.0
C      1  0.5141920000000  0.4450420000000  0.5820950000000 1.0
C      1  0.4968900000000  0.5491670000000  0.5092290000000 1.0
C      1  0.5168890000000  0.4593900000000  0.5227140000000 1.0
END
