TITL C-3691716-8693-10 1.92084976861332e-05 125000 -901.457607548291 0 0 148 (C1) n - 1
REM
REM in /home/nfs/bkarasulu/CARBON/AIRSS/Generating-Clusters/LCBOP/Only-C1/SD-CG/HFTN-CG/FIRE-CG
REM
REM
REM
REM
REM
REM ./C.cell (11c1c37f851c82e70ff6c80c92926a4b)
REM AIRSS Version 0.9.1 bugfix July 2018 build 013d7b7c2542+ Fri, 06 Jul 2018 19:26:36 +0100
REM compiler GCC version 9.2.1 20190827 (Red Hat 9.2.1-1)
REM options -cpp -mtune=generic -march=x86-64 -g -O0 -fpre-include=/usr/include/finclude/math-vector-fortran.h
REM seed 230686066 -577159736 738000597 637355904 450664927 666600797 -1465303878 -658697691 -138779066 2122349330 -1025107920 2131735361 1068912072 -489189437 -1224828123 298162994 -1189899854 -1913454440 1664561059 -1435975924 937374429 -629347167 -1924751610 1339417678 1623214768 1690880076 -1516699442 -1686634055 -26205996 -117827232 -232136512 -98919176 1178401409
REM
CELL 1.54180   50.00000   50.00000   50.00000   90.00000   90.00000   90.00000
LATT -1
SFAC C  
C      1  0.5281230000000  0.4509680000000  0.5409260000000 1.0
C      1  0.4017260000000  0.4682610000000  0.4931940000000 1.0
C      1  0.5510780000000  0.4954740000000  0.5977770000000 1.0
C      1  0.4975940000000  0.5783060000000  0.4730620000000 1.0
C      1  0.5103660000000  0.4728130000000  0.5482570000000 1.0
C      1  0.5086010000000  0.4715460000000  0.5946060000000 1.0
C      1  0.5492720000000  0.4506540000000  0.4471330000000 1.0
C      1  0.5124190000000  0.4316730000000  0.4917740000000 1.0
C      1  0.5539690000000  0.5224960000000  0.5969900000000 1.0
C      1  0.5183330000000  0.5346770000000  0.4604380000000 1.0
C      1  0.5462270000000  0.4530790000000  0.5654960000000 1.0
C      1  0.4955080000000  0.4754300000000  0.4744570000000 1.0
C      1  0.4489730000000  0.5992140000000  0.5088690000000 1.0
C      1  0.5434310000000  0.4092010000000  0.5698340000000 1.0
C      1  0.5391020000000  0.5742430000000  0.4310680000000 1.0
C      1  0.4490910000000  0.5222470000000  0.4069530000000 1.0
C      1  0.4404190000000  0.4309170000000  0.5592260000000 1.0
C      1  0.4477570000000  0.5325280000000  0.4550970000000 1.0
C      1  0.4509760000000  0.4540120000000  0.6037350000000 1.0
C      1  0.5289390000000  0.4947870000000  0.5415380000000 1.0
C      1  0.4240550000000  0.4901640000000  0.4434940000000 1.0
C      1  0.5377120000000  0.4921190000000  0.4628660000000 1.0
C      1  0.5125820000000  0.4831110000000  0.4523600000000 1.0
C      1  0.4215220000000  0.4751150000000  0.4013410000000 1.0
C      1  0.4691950000000  0.5480210000000  0.4986490000000 1.0
C      1  0.3933140000000  0.4726420000000  0.4169420000000 1.0
C      1  0.4671230000000  0.4431060000000  0.5001530000000 1.0
C      1  0.5279070000000  0.4455410000000  0.5123600000000 1.0
C      1  0.4925510000000  0.4315770000000  0.5706500000000 1.0
C      1  0.5831720000000  0.5144000000000  0.4942120000000 1.0
C      1  0.4669430000000  0.5376240000000  0.5259770000000 1.0
C      1  0.5649760000000  0.5773450000000  0.4984520000000 1.0
C      1  0.5626700000000  0.4294550000000  0.5622450000000 1.0
C      1  0.4885820000000  0.4841010000000  0.6101440000000 1.0
C      1  0.5449250000000  0.5155960000000  0.4103130000000 1.0
C      1  0.4924350000000  0.5440250000000  0.5908480000000 1.0
C      1  0.4735820000000  0.5397430000000  0.4067470000000 1.0
C      1  0.4415130000000  0.4979540000000  0.5893870000000 1.0
C      1  0.5975500000000  0.5627250000000  0.4698830000000 1.0
C      1  0.4082500000000  0.6052320000000  0.5334390000000 1.0
C      1  0.4973060000000  0.4603170000000  0.5707360000000 1.0
C      1  0.4050740000000  0.4399650000000  0.4871650000000 1.0
C      1  0.5510610000000  0.5113330000000  0.5487400000000 1.0
C      1  0.4004630000000  0.5357400000000  0.4615440000000 1.0
C      1  0.4695070000000  0.5157130000000  0.4466870000000 1.0
C      1  0.5972180000000  0.5286320000000  0.5375390000000 1.0
C      1  0.5483830000000  0.4665830000000  0.4723270000000 1.0
C      1  0.4428720000000  0.5930870000000  0.4813990000000 1.0
C      1  0.4937950000000  0.6130140000000  0.5750210000000 1.0
C      1  0.4900570000000  0.5595210000000  0.5677800000000 1.0
C      1  0.4952130000000  0.5392740000000  0.6167960000000 1.0
C      1  0.5815490000000  0.4363590000000  0.5141110000000 1.0
C      1  0.4677460000000  0.4216990000000  0.5582670000000 1.0
C      1  0.5230340000000  0.4064780000000  0.4843860000000 1.0
C      1  0.6005890000000  0.5490000000000  0.5570180000000 1.0
C      1  0.4529160000000  0.4669880000000  0.5085030000000 1.0
C      1  0.4291830000000  0.5218020000000  0.4978640000000 1.0
C      1  0.4761570000000  0.4411360000000  0.4516700000000 1.0
C      1  0.5599360000000  0.4678790000000  0.4256490000000 1.0
C      1  0.5100590000000  0.6035920000000  0.4784550000000 1.0
C      1  0.4605100000000  0.4818110000000  0.6058090000000 1.0
C      1  0.4730660000000  0.6142000000000  0.5117030000000 1.0
C      1  0.5334860000000  0.4295010000000  0.4371730000000 1.0
C      1  0.5146830000000  0.4111420000000  0.5657070000000 1.0
C      1  0.5935350000000  0.4921340000000  0.4524990000000 1.0
C      1  0.4677550000000  0.4169490000000  0.5114860000000 1.0
C      1  0.4379370000000  0.5506400000000  0.5689550000000 1.0
C      1  0.4780760000000  0.4063690000000  0.5354090000000 1.0
C      1  0.5107170000000  0.4237700000000  0.4237710000000 1.0
C      1  0.4370400000000  0.5718500000000  0.5517340000000 1.0
C      1  0.4308840000000  0.5096640000000  0.5458110000000 1.0
C      1  0.4666130000000  0.4921090000000  0.5108380000000 1.0
C      1  0.4037450000000  0.5164800000000  0.4830090000000 1.0
C      1  0.4322360000000  0.4993570000000  0.4161400000000 1.0
C      1  0.5569050000000  0.5445920000000  0.5787010000000 1.0
C      1  0.5326550000000  0.4911660000000  0.5135890000000 1.0
C      1  0.4861690000000  0.4788400000000  0.4137680000000 1.0
C      1  0.5421400000000  0.3980340000000  0.5041440000000 1.0
C      1  0.5352280000000  0.5527410000000  0.5289900000000 1.0
C      1  0.4251300000000  0.3791240000000  0.4099200000000 1.0
C      1  0.4485870000000  0.5378350000000  0.4826510000000 1.0
C      1  0.4186310000000  0.4176000000000  0.4450800000000 1.0
C      1  0.4212020000000  0.3977530000000  0.4277260000000 1.0
C      1  0.5579380000000  0.5286950000000  0.4914100000000 1.0
C      1  0.4113240000000  0.4249960000000  0.5115110000000 1.0
C      1  0.4796650000000  0.5762680000000  0.4496330000000 1.0
C      1  0.4321910000000  0.5915730000000  0.5313280000000 1.0
C      1  0.4445660000000  0.4569230000000  0.3965380000000 1.0
C      1  0.4842200000000  0.4336180000000  0.4249420000000 1.0
C      1  0.4901040000000  0.4951400000000  0.4948610000000 1.0
C      1  0.5268770000000  0.3868760000000  0.5256760000000 1.0
C      1  0.5799950000000  0.5067720000000  0.5465970000000 1.0
C      1  0.5442210000000  0.5393380000000  0.5529410000000 1.0
C      1  0.5778820000000  0.6124380000000  0.5310570000000 1.0
C      1  0.4943510000000  0.5615890000000  0.4960110000000 1.0
C      1  0.6093410000000  0.5785700000000  0.5131590000000 1.0
C      1  0.5937080000000  0.4840200000000  0.5553140000000 1.0
C      1  0.5999900000000  0.4581580000000  0.5532950000000 1.0
C      1  0.4699990000000  0.4888400000000  0.4365810000000 1.0
C      1  0.5825390000000  0.5566030000000  0.5759110000000 1.0
C      1  0.4962500000000  0.6183510000000  0.4982590000000 1.0
C      1  0.4474570000000  0.5142020000000  0.5221370000000 1.0
C      1  0.5396750000000  0.4867570000000  0.4139420000000 1.0
C      1  0.5720750000000  0.5770330000000  0.4698670000000 1.0
C      1  0.3926910000000  0.4895370000000  0.4754150000000 1.0
C      1  0.5378240000000  0.4717020000000  0.5888360000000 1.0
C      1  0.4190260000000  0.4399840000000  0.4616670000000 1.0
C      1  0.5179500000000  0.5595350000000  0.4191560000000 1.0
C      1  0.5896500000000  0.4614590000000  0.4973390000000 1.0
C      1  0.4601950000000  0.4650610000000  0.4495890000000 1.0
C      1  0.4224260000000  0.4252640000000  0.5368020000000 1.0
C      1  0.4236450000000  0.4759110000000  0.5760300000000 1.0
C      1  0.4986150000000  0.5380480000000  0.6426170000000 1.0
C      1  0.4390260000000  0.5221910000000  0.5711930000000 1.0
C      1  0.6018020000000  0.5305720000000  0.5091050000000 1.0
C      1  0.4220710000000  0.5404950000000  0.4452270000000 1.0
C      1  0.5513810000000  0.5873700000000  0.4530410000000 1.0
C      1  0.5347050000000  0.6071910000000  0.4654420000000 1.0
C      1  0.4913240000000  0.5874260000000  0.5707510000000 1.0
C      1  0.5666820000000  0.4131100000000  0.5049530000000 1.0
C      1  0.5837230000000  0.5910270000000  0.5154220000000 1.0
C      1  0.5905220000000  0.4885700000000  0.4818310000000 1.0
C      1  0.4539890000000  0.5867210000000  0.4572710000000 1.0
C      1  0.4973730000000  0.5279310000000  0.3930220000000 1.0
C      1  0.5693200000000  0.5247350000000  0.4219740000000 1.0
C      1  0.5417600000000  0.4672110000000  0.5003160000000 1.0
C      1  0.4879950000000  0.5489400000000  0.5417220000000 1.0
C      1  0.5053150000000  0.3969850000000  0.5413490000000 1.0
C      1  0.4889440000000  0.4460950000000  0.4788880000000 1.0
C      1  0.4148510000000  0.4872060000000  0.5517430000000 1.0
C      1  0.5128290000000  0.4814140000000  0.4235180000000 1.0
C      1  0.3951690000000  0.4854660000000  0.4449960000000 1.0
C      1  0.5841500000000  0.4368320000000  0.5436420000000 1.0
C      1  0.5871930000000  0.4728820000000  0.4323660000000 1.0
C      1  0.5233410000000  0.5342010000000  0.4044570000000 1.0
C      1  0.4875960000000  0.5623550000000  0.4244670000000 1.0
C      1  0.5530040000000  0.5530340000000  0.5068400000000 1.0
C      1  0.4343140000000  0.4494210000000  0.5804100000000 1.0
C      1  0.5342860000000  0.5178400000000  0.4775750000000 1.0
C      1  0.4944840000000  0.5275970000000  0.4508430000000 1.0
C      1  0.6096020000000  0.5554780000000  0.4959060000000 1.0
C      1  0.5152010000000  0.5078410000000  0.4990190000000 1.0
C      1  0.5129980000000  0.3890590000000  0.4660440000000 1.0
C      1  0.5080950000000  0.5578710000000  0.5222370000000 1.0
C      1  0.4331930000000  0.4643910000000  0.4540590000000 1.0
C      1  0.5879770000000  0.5178040000000  0.4404560000000 1.0
C      1  0.4728240000000  0.4535460000000  0.4052810000000 1.0
C      1  0.4250570000000  0.4720380000000  0.5090540000000 1.0
END
