TITL C-3691713-1865-14 -78.4442680573778 125000 -784.77479839359 0 0 129 (C1) n - 1
REM
REM in /home/nfs/bkarasulu/CARBON/AIRSS/Generating-Clusters/LCBOP/Only-C1/SD-CG/HFTN-CG/FIRE-CG
REM
REM
REM
REM
REM
REM ./C.cell (11c1c37f851c82e70ff6c80c92926a4b)
REM AIRSS Version 0.9.1 bugfix July 2018 build 013d7b7c2542+ Fri, 06 Jul 2018 19:26:36 +0100
REM compiler GCC version 9.2.1 20190827 (Red Hat 9.2.1-1)
REM options -cpp -mtune=generic -march=x86-64 -g -O0 -fpre-include=/usr/include/finclude/math-vector-fortran.h
REM seed -1464830453 -2041502328 245189797 -137827385 1438787367 -1667588851 -1939011115 -1507056112 -1776174522 558860574 2007871719 1912063383 766362467 -1836705621 -803180662 1205516340 -1867363852 1731124660 -1360920177 -186990209 -88347937 858518563 1954926643 1279961871 234941990 -1666464477 951545348 228472781 -2082868692 -1636767871 -2053247571 838317184 1826136398
REM
CELL 1.54180   50.00000   50.00000   50.00000   90.00000   90.00000   90.00000
LATT -1
SFAC C  
C      1  0.4795090000000  0.5788150000000  0.5668200000000 1.0
C      1  0.4958910000000  0.6115650000000  0.4904490000000 1.0
C      1  0.4706350000000  0.5015500000000  0.4106010000000 1.0
C      1  0.5696240000000  0.5374410000000  0.5404870000000 1.0
C      1  0.5294180000000  0.4698460000000  0.4846260000000 1.0
C      1  0.5443650000000  0.4755320000000  0.5070430000000 1.0
C      1  0.6061430000000  0.5213770000000  0.5086070000000 1.0
C      1  0.3854260000000  0.4578270000000  0.5494200000000 1.0
C      1  0.5217050000000  0.5198500000000  0.5717560000000 1.0
C      1  0.5764190000000  0.4435260000000  0.4652430000000 1.0
C      1  0.4299770000000  0.5892600000000  0.5152610000000 1.0
C      1  0.5921040000000  0.4754150000000  0.5171640000000 1.0
C      1  0.5164980000000  0.4000590000000  0.4685900000000 1.0
C      1  0.4034470000000  0.5553260000000  0.4853820000000 1.0
C      1  0.5157480000000  0.5995160000000  0.5349680000000 1.0
C      1  0.5181410000000  0.6061590000000  0.5076260000000 1.0
C      1  0.4885750000000  0.4276750000000  0.4415270000000 1.0
C      1  0.5262700000000  0.4181630000000  0.4881140000000 1.0
C      1  0.5056840000000  0.4494010000000  0.4484360000000 1.0
C      1  0.4970000000000  0.4076030000000  0.5468630000000 1.0
C      1  0.5037680000000  0.5552290000000  0.4800580000000 1.0
C      1  0.5257650000000  0.5768930000000  0.5500530000000 1.0
C      1  0.4711280000000  0.4148150000000  0.5358390000000 1.0
C      1  0.5236020000000  0.5169250000000  0.5440580000000 1.0
C      1  0.5230430000000  0.5177780000000  0.3990280000000 1.0
C      1  0.5644300000000  0.4939770000000  0.5753750000000 1.0
C      1  0.3991450000000  0.5532510000000  0.5137230000000 1.0
C      1  0.5018080000000  0.5383190000000  0.5790040000000 1.0
C      1  0.4286390000000  0.4411990000000  0.5307310000000 1.0
C      1  0.5430760000000  0.5952340000000  0.4658130000000 1.0
C      1  0.5488020000000  0.5113100000000  0.4451240000000 1.0
C      1  0.5614610000000  0.4378370000000  0.4408690000000 1.0
C      1  0.5453550000000  0.4076890000000  0.5300960000000 1.0
C      1  0.5044430000000  0.5648860000000  0.5671220000000 1.0
C      1  0.4225610000000  0.4872630000000  0.5346600000000 1.0
C      1  0.5598710000000  0.4650690000000  0.5693190000000 1.0
C      1  0.4511540000000  0.5148260000000  0.5804810000000 1.0
C      1  0.5960720000000  0.4384770000000  0.5432990000000 1.0
C      1  0.5333280000000  0.4681120000000  0.5318870000000 1.0
C      1  0.5631120000000  0.5052710000000  0.3741300000000 1.0
C      1  0.5234610000000  0.5618780000000  0.4252160000000 1.0
C      1  0.4890510000000  0.4748360000000  0.5160100000000 1.0
C      1  0.5319530000000  0.4615630000000  0.5595620000000 1.0
C      1  0.4899760000000  0.4813960000000  0.4025180000000 1.0
C      1  0.4792210000000  0.5289970000000  0.4194870000000 1.0
C      1  0.5411330000000  0.4696920000000  0.3998980000000 1.0
C      1  0.4260730000000  0.5536060000000  0.4685670000000 1.0
C      1  0.4873520000000  0.4599120000000  0.5867920000000 1.0
C      1  0.4276370000000  0.4369660000000  0.5019890000000 1.0
C      1  0.5042750000000  0.5170040000000  0.5246130000000 1.0
C      1  0.4617060000000  0.4624350000000  0.4812440000000 1.0
C      1  0.4400800000000  0.5239820000000  0.5111600000000 1.0
C      1  0.5437880000000  0.5759740000000  0.4434120000000 1.0
C      1  0.4766930000000  0.5267380000000  0.5865110000000 1.0
C      1  0.4672040000000  0.5680990000000  0.4516370000000 1.0
C      1  0.4498790000000  0.4867020000000  0.5400050000000 1.0
C      1  0.5097000000000  0.4490220000000  0.5730230000000 1.0
C      1  0.5191740000000  0.3960130000000  0.5333370000000 1.0
C      1  0.3127160000000  0.4483140000000  0.5789720000000 1.0
C      1  0.5600430000000  0.5803070000000  0.5129940000000 1.0
C      1  0.4892470000000  0.4056430000000  0.4603630000000 1.0
C      1  0.4365960000000  0.4494170000000  0.4778350000000 1.0
C      1  0.4772690000000  0.4321580000000  0.4160850000000 1.0
C      1  0.5454050000000  0.5240490000000  0.3826260000000 1.0
C      1  0.4991000000000  0.6012600000000  0.4641720000000 1.0
C      1  0.4908060000000  0.4697910000000  0.6122040000000 1.0
C      1  0.3611230000000  0.4545700000000  0.5594300000000 1.0
C      1  0.5701800000000  0.4849680000000  0.5014400000000 1.0
C      1  0.5408640000000  0.5062060000000  0.5872800000000 1.0
C      1  0.5577720000000  0.4173820000000  0.5537600000000 1.0
C      1  0.4617330000000  0.5428730000000  0.4380800000000 1.0
C      1  0.5078250000000  0.5378520000000  0.4141840000000 1.0
C      1  0.4841930000000  0.4543850000000  0.4974470000000 1.0
C      1  0.5839690000000  0.4922450000000  0.4767580000000 1.0
C      1  0.5498100000000  0.4488420000000  0.4184040000000 1.0
C      1  0.5783410000000  0.5164630000000  0.5617540000000 1.0
C      1  0.4452630000000  0.5760650000000  0.4698580000000 1.0
C      1  0.4468150000000  0.5938370000000  0.4929660000000 1.0
C      1  0.5905260000000  0.5432430000000  0.5188130000000 1.0
C      1  0.5739390000000  0.4401970000000  0.5613140000000 1.0
C      1  0.4389930000000  0.5314580000000  0.4539490000000 1.0
C      1  0.4616580000000  0.5397450000000  0.5096040000000 1.0
C      1  0.6097680000000  0.4968890000000  0.5237670000000 1.0
C      1  0.4609300000000  0.4908260000000  0.4748670000000 1.0
C      1  0.4239420000000  0.4590010000000  0.4534200000000 1.0
C      1  0.4851490000000  0.5039980000000  0.4797630000000 1.0
C      1  0.4442570000000  0.4906940000000  0.4158950000000 1.0
C      1  0.5832500000000  0.5638130000000  0.4729530000000 1.0
C      1  0.4990180000000  0.5124850000000  0.4583840000000 1.0
C      1  0.4531850000000  0.5764680000000  0.5625790000000 1.0
C      1  0.4950890000000  0.5000820000000  0.5055950000000 1.0
C      1  0.4477630000000  0.4853790000000  0.5829400000000 1.0
C      1  0.4176530000000  0.5683980000000  0.5301970000000 1.0
C      1  0.4526360000000  0.4357870000000  0.5481690000000 1.0
C      1  0.5922130000000  0.4465540000000  0.5162210000000 1.0
C      1  0.5474210000000  0.5347090000000  0.4595210000000 1.0
C      1  0.4106380000000  0.4621340000000  0.5388360000000 1.0
C      1  0.4933590000000  0.5738880000000  0.4605570000000 1.0
C      1  0.4686520000000  0.6114460000000  0.4976690000000 1.0
C      1  0.4307300000000  0.4840370000000  0.4402700000000 1.0
C      1  0.5899140000000  0.4689230000000  0.4621740000000 1.0
C      1  0.4845100000000  0.5504810000000  0.5006520000000 1.0
C      1  0.5056940000000  0.4215010000000  0.5694840000000 1.0
C      1  0.4165500000000  0.5103420000000  0.5206310000000 1.0
C      1  0.3940380000000  0.5268270000000  0.5220980000000 1.0
C      1  0.4328820000000  0.5334600000000  0.5675320000000 1.0
C      1  0.5373790000000  0.4875820000000  0.4431430000000 1.0
C      1  0.5523060000000  0.5697180000000  0.5399620000000 1.0
C      1  0.4660680000000  0.4043940000000  0.5089790000000 1.0
C      1  0.5235720000000  0.4684890000000  0.4577550000000 1.0
C      1  0.5366350000000  0.5293020000000  0.5041630000000 1.0
C      1  0.4743080000000  0.4770580000000  0.5387070000000 1.0
C      1  0.4602560000000  0.4584960000000  0.5752430000000 1.0
C      1  0.5469620000000  0.5234990000000  0.5285170000000 1.0
C      1  0.5818890000000  0.5650270000000  0.5014050000000 1.0
C      1  0.4811260000000  0.4544170000000  0.4010470000000 1.0
C      1  0.5638430000000  0.5569600000000  0.4533890000000 1.0
C      1  0.5748230000000  0.4334040000000  0.4943570000000 1.0
C      1  0.5507570000000  0.4181160000000  0.5033340000000 1.0
C      1  0.5424160000000  0.5959700000000  0.4951390000000 1.0
C      1  0.6012020000000  0.5144890000000  0.4809370000000 1.0
C      1  0.5610460000000  0.4791860000000  0.3815180000000 1.0
C      1  0.5286180000000  0.5401700000000  0.4803400000000 1.0
C      1  0.4705400000000  0.4014500000000  0.4821010000000 1.0
C      1  0.4402500000000  0.5034050000000  0.4596320000000 1.0
C      1  0.5176130000000  0.4885240000000  0.4008440000000 1.0
C      1  0.3367310000000  0.4514150000000  0.5693130000000 1.0
C      1  0.4319620000000  0.5592880000000  0.5542920000000 1.0
C      1  0.5047720000000  0.4351680000000  0.4967820000000 1.0
END
