TITL C-3691712-2378-3 0.41393276392769 125000 -856.677692117583 0 0 141 (C1) n - 1
REM
REM in /home/nfs/bkarasulu/CARBON/AIRSS/Generating-Clusters/LCBOP/Only-C1/SD-CG/HFTN-CG/FIRE-CG
REM
REM
REM
REM
REM
REM ./C.cell (11c1c37f851c82e70ff6c80c92926a4b)
REM AIRSS Version 0.9.1 bugfix July 2018 build 013d7b7c2542+ Fri, 06 Jul 2018 19:26:36 +0100
REM compiler GCC version 9.2.1 20190827 (Red Hat 9.2.1-1)
REM options -cpp -mtune=generic -march=x86-64 -g -O0 -fpre-include=/usr/include/finclude/math-vector-fortran.h
REM seed 191709563 -1562510918 309520883 -1498177199 -2021949348 480772172 989060708 906609191 952106797 1468704342 1811347471 -1657835607 -1701898026 1633136822 -2036575626 -750405213 1300384536 1613281818 1289109248 272839877 2121587392 -1073764140 -1029880640 -306380439 -301099455 1496648029 -2061565450 -606450186 221995355 -2098425120 1386669892 -1103295560 1982875339
REM
CELL 1.54180   50.00000   50.00000   50.00000   90.00000   90.00000   90.00000
LATT -1
SFAC C  
C      1  0.5524950000000  0.4922580000000  0.5355720000000 1.0
C      1  0.4932830000000  0.4741460000000  0.4559840000000 1.0
C      1  0.4846110000000  0.5092640000000  0.5574400000000 1.0
C      1  0.4063420000000  0.5356920000000  0.4349190000000 1.0
C      1  0.5329440000000  0.4070840000000  0.5814510000000 1.0
C      1  0.4544210000000  0.4167620000000  0.5582300000000 1.0
C      1  0.5586180000000  0.4646530000000  0.4661440000000 1.0
C      1  0.4643590000000  0.5547910000000  0.5261090000000 1.0
C      1  0.5777560000000  0.4372830000000  0.5121180000000 1.0
C      1  0.5635380000000  0.6038780000000  0.5198140000000 1.0
C      1  0.5133980000000  0.4768830000000  0.4376650000000 1.0
C      1  0.5867400000000  0.4846860000000  0.5881480000000 1.0
C      1  0.4658640000000  0.5414110000000  0.3977500000000 1.0
C      1  0.4601840000000  0.6043790000000  0.5003720000000 1.0
C      1  0.4426060000000  0.4869290000000  0.5893240000000 1.0
C      1  0.5344240000000  0.4156600000000  0.5016360000000 1.0
C      1  0.4334250000000  0.5717510000000  0.4583470000000 1.0
C      1  0.4373430000000  0.5867320000000  0.5083860000000 1.0
C      1  0.4542300000000  0.5109720000000  0.5990370000000 1.0
C      1  0.4861390000000  0.6087740000000  0.5117480000000 1.0
C      1  0.4185640000000  0.5256610000000  0.5387700000000 1.0
C      1  0.4211550000000  0.4651050000000  0.4575660000000 1.0
C      1  0.5546200000000  0.5083770000000  0.4882750000000 1.0
C      1  0.4567380000000  0.4617620000000  0.5826920000000 1.0
C      1  0.4650540000000  0.5502600000000  0.4958930000000 1.0
C      1  0.5138940000000  0.5248370000000  0.3881280000000 1.0
C      1  0.5275760000000  0.3728160000000  0.4789220000000 1.0
C      1  0.5003740000000  0.5269990000000  0.4375680000000 1.0
C      1  0.4280780000000  0.5534080000000  0.4364390000000 1.0
C      1  0.5564050000000  0.5749340000000  0.5553620000000 1.0
C      1  0.3951760000000  0.4829240000000  0.5377720000000 1.0
C      1  0.4624950000000  0.4395910000000  0.4341170000000 1.0
C      1  0.5862360000000  0.5114220000000  0.5862780000000 1.0
C      1  0.5564510000000  0.3087500000000  0.4427150000000 1.0
C      1  0.4653490000000  0.4004350000000  0.5396020000000 1.0
C      1  0.5328730000000  0.5347010000000  0.5504760000000 1.0
C      1  0.4211790000000  0.5766270000000  0.4848920000000 1.0
C      1  0.5876400000000  0.5349520000000  0.5139360000000 1.0
C      1  0.5591600000000  0.5296120000000  0.4353330000000 1.0
C      1  0.5921750000000  0.4595830000000  0.4988600000000 1.0
C      1  0.5623100000000  0.4188010000000  0.4947880000000 1.0
C      1  0.5126060000000  0.5034490000000  0.4274070000000 1.0
C      1  0.5761420000000  0.5156970000000  0.4173570000000 1.0
C      1  0.5228680000000  0.6036570000000  0.4789600000000 1.0
C      1  0.4087050000000  0.4602940000000  0.5276970000000 1.0
C      1  0.5346940000000  0.6049730000000  0.5258400000000 1.0
C      1  0.4472990000000  0.4710620000000  0.4705490000000 1.0
C      1  0.5289830000000  0.4653930000000  0.5059500000000 1.0
C      1  0.4006140000000  0.5807690000000  0.6114590000000 1.0
C      1  0.4593820000000  0.4729660000000  0.3968270000000 1.0
C      1  0.5091790000000  0.5467650000000  0.5367690000000 1.0
C      1  0.5166440000000  0.3955450000000  0.4911600000000 1.0
C      1  0.4928020000000  0.5550820000000  0.4900070000000 1.0
C      1  0.5467460000000  0.3297080000000  0.4548080000000 1.0
C      1  0.4218500000000  0.4666300000000  0.4288160000000 1.0
C      1  0.5426280000000  0.4355290000000  0.4285870000000 1.0
C      1  0.4351630000000  0.4555070000000  0.5387840000000 1.0
C      1  0.4468840000000  0.5505900000000  0.4146770000000 1.0
C      1  0.5761810000000  0.4607880000000  0.5821760000000 1.0
C      1  0.5267910000000  0.5666290000000  0.4411980000000 1.0
C      1  0.5856760000000  0.4625620000000  0.4708820000000 1.0
C      1  0.4444950000000  0.4431770000000  0.5631680000000 1.0
C      1  0.5598760000000  0.4439500000000  0.5661200000000 1.0
C      1  0.5743150000000  0.5338990000000  0.5778990000000 1.0
C      1  0.5020150000000  0.5350950000000  0.6052970000000 1.0
C      1  0.6025310000000  0.4832750000000  0.5114700000000 1.0
C      1  0.4698050000000  0.4092680000000  0.4748590000000 1.0
C      1  0.4058280000000  0.4870840000000  0.4180890000000 1.0
C      1  0.5622760000000  0.5328830000000  0.5011620000000 1.0
C      1  0.4403160000000  0.5690650000000  0.5323310000000 1.0
C      1  0.5331390000000  0.4612980000000  0.4231720000000 1.0
C      1  0.6009250000000  0.4643270000000  0.4471660000000 1.0
C      1  0.5193920000000  0.5151270000000  0.6013480000000 1.0
C      1  0.5431240000000  0.5510810000000  0.4236370000000 1.0
C      1  0.5548370000000  0.5476860000000  0.5631790000000 1.0
C      1  0.5308480000000  0.5888450000000  0.4579540000000 1.0
C      1  0.5143510000000  0.6079790000000  0.5058850000000 1.0
C      1  0.4748990000000  0.3578560000000  0.5197090000000 1.0
C      1  0.4683370000000  0.4138500000000  0.4460660000000 1.0
C      1  0.5894250000000  0.6375510000000  0.4868540000000 1.0
C      1  0.5536810000000  0.5151090000000  0.4599880000000 1.0
C      1  0.5307000000000  0.5886170000000  0.5496200000000 1.0
C      1  0.4828100000000  0.5308620000000  0.5366680000000 1.0
C      1  0.5009120000000  0.4377160000000  0.5320990000000 1.0
C      1  0.4765470000000  0.5122350000000  0.5135740000000 1.0
C      1  0.3991080000000  0.5122750000000  0.4242030000000 1.0
C      1  0.5070840000000  0.5727820000000  0.5532130000000 1.0
C      1  0.3941270000000  0.5726810000000  0.4882560000000 1.0
C      1  0.4179030000000  0.4931160000000  0.5770560000000 1.0
C      1  0.4565120000000  0.5007080000000  0.4737640000000 1.0
C      1  0.5421120000000  0.5521560000000  0.5005480000000 1.0
C      1  0.4267170000000  0.5509410000000  0.5508940000000 1.0
C      1  0.5261720000000  0.5021620000000  0.4012210000000 1.0
C      1  0.5343280000000  0.4343580000000  0.5768980000000 1.0
C      1  0.4816880000000  0.5505730000000  0.5930350000000 1.0
C      1  0.4514630000000  0.4259460000000  0.4885500000000 1.0
C      1  0.4282460000000  0.5209710000000  0.5119680000000 1.0
C      1  0.4901710000000  0.5713240000000  0.5757890000000 1.0
C      1  0.4162310000000  0.5669820000000  0.5958030000000 1.0
C      1  0.4556990000000  0.5385180000000  0.5911800000000 1.0
C      1  0.5034120000000  0.4766100000000  0.5095770000000 1.0
C      1  0.5678730000000  0.4129630000000  0.4676260000000 1.0
C      1  0.5924110000000  0.5608280000000  0.5249930000000 1.0
C      1  0.4841040000000  0.5216480000000  0.3878810000000 1.0
C      1  0.5481150000000  0.4868380000000  0.5077840000000 1.0
C      1  0.4860890000000  0.4638920000000  0.5788770000000 1.0
C      1  0.4512730000000  0.4534910000000  0.4944920000000 1.0
C      1  0.5706630000000  0.4376190000000  0.5401000000000 1.0
C      1  0.4536590000000  0.5217810000000  0.4962010000000 1.0
C      1  0.5004230000000  0.5551850000000  0.4414460000000 1.0
C      1  0.5324060000000  0.4990710000000  0.5843680000000 1.0
C      1  0.4951990000000  0.4992830000000  0.4978300000000 1.0
C      1  0.4000360000000  0.4513690000000  0.5022690000000 1.0
C      1  0.4875200000000  0.4808540000000  0.5555140000000 1.0
C      1  0.4576170000000  0.5867810000000  0.4544360000000 1.0
C      1  0.5758480000000  0.5818980000000  0.5346350000000 1.0
C      1  0.4016540000000  0.4557880000000  0.4757120000000 1.0
C      1  0.5771870000000  0.6214950000000  0.5033310000000 1.0
C      1  0.5240800000000  0.4379450000000  0.5149150000000 1.0
C      1  0.4857150000000  0.4641190000000  0.5301860000000 1.0
C      1  0.5150670000000  0.5528940000000  0.5076050000000 1.0
C      1  0.5369310000000  0.3510590000000  0.4670670000000 1.0
C      1  0.4330430000000  0.5520420000000  0.5791180000000 1.0
C      1  0.5103390000000  0.4492850000000  0.5836440000000 1.0
C      1  0.5307280000000  0.5471220000000  0.3970870000000 1.0
C      1  0.4792940000000  0.5733730000000  0.4430190000000 1.0
C      1  0.5734890000000  0.4882460000000  0.4104700000000 1.0
C      1  0.5461800000000  0.4807060000000  0.4048180000000 1.0
C      1  0.5570800000000  0.4185740000000  0.4435660000000 1.0
C      1  0.4076020000000  0.5031400000000  0.5528560000000 1.0
C      1  0.6020110000000  0.5102000000000  0.5156840000000 1.0
C      1  0.4604450000000  0.6085090000000  0.4720240000000 1.0
C      1  0.4861860000000  0.4969850000000  0.4714080000000 1.0
C      1  0.4728070000000  0.4947750000000  0.3877170000000 1.0
C      1  0.4570390000000  0.4606270000000  0.5209250000000 1.0
C      1  0.4760400000000  0.3853240000000  0.5178530000000 1.0
C      1  0.5930410000000  0.4713350000000  0.4221520000000 1.0
C      1  0.4878850000000  0.3964820000000  0.4935660000000 1.0
C      1  0.4700680000000  0.4596520000000  0.4528850000000 1.0
C      1  0.4458390000000  0.4557140000000  0.4156520000000 1.0
C      1  0.5426020000000  0.4920330000000  0.5605320000000 1.0
END
