TITL C-3691716-8693-11 -1.2295899358863e-06 125000 -651.810595881699 0 0 105 (C1) n - 1
REM
REM in /home/nfs/bkarasulu/CARBON/AIRSS/Generating-Clusters/LCBOP/Only-C1/SD-CG/HFTN-CG/FIRE-CG
REM
REM
REM
REM
REM
REM ./C.cell (11c1c37f851c82e70ff6c80c92926a4b)
REM AIRSS Version 0.9.1 bugfix July 2018 build 013d7b7c2542+ Fri, 06 Jul 2018 19:26:36 +0100
REM compiler GCC version 9.2.1 20190827 (Red Hat 9.2.1-1)
REM options -cpp -mtune=generic -march=x86-64 -g -O0 -fpre-include=/usr/include/finclude/math-vector-fortran.h
REM seed -247845458 -1373698920 1572917100 -824282028 -900417679 -81388352 -915638865 1460172293 1375229200 1258051239 -1602614423 1279960832 1453878891 806443532 2096812113 -1142364353 -1248013057 519781886 -1493123694 1962941366 1747066360 -1329293915 -913918989 -1162291612 -1388393445 1745760147 1410672203 1290257589 1901085895 700094166 -1680277334 -1266026362 -750807888
REM
CELL 1.54180   50.00000   50.00000   50.00000   90.00000   90.00000   90.00000
LATT -1
SFAC C  
C      1  0.5670030000000  0.5440820000000  0.5681090000000 1.0
C      1  0.5310690000000  0.4614930000000  0.4764850000000 1.0
C      1  0.5092910000000  0.5463110000000  0.5993260000000 1.0
C      1  0.4512840000000  0.5302910000000  0.4404110000000 1.0
C      1  0.4921170000000  0.5701470000000  0.5394180000000 1.0
C      1  0.4910390000000  0.5800630000000  0.5662020000000 1.0
C      1  0.5679500000000  0.4932110000000  0.4243690000000 1.0
C      1  0.4893120000000  0.4968860000000  0.4695780000000 1.0
C      1  0.4408290000000  0.4181260000000  0.5044110000000 1.0
C      1  0.5182240000000  0.4978110000000  0.5834590000000 1.0
C      1  0.5254720000000  0.5443290000000  0.4287950000000 1.0
C      1  0.4154780000000  0.4799240000000  0.4634680000000 1.0
C      1  0.4577000000000  0.5689460000000  0.4889900000000 1.0
C      1  0.5778000000000  0.4306430000000  0.5013810000000 1.0
C      1  0.5889570000000  0.5305720000000  0.5608520000000 1.0
C      1  0.5290840000000  0.4095530000000  0.5136470000000 1.0
C      1  0.4015770000000  0.4822180000000  0.4884130000000 1.0
C      1  0.5484800000000  0.4258790000000  0.4456210000000 1.0
C      1  0.5472640000000  0.5379130000000  0.4125090000000 1.0
C      1  0.6016180000000  0.5060930000000  0.4909190000000 1.0
C      1  0.4111450000000  0.5692180000000  0.5063430000000 1.0
C      1  0.4049590000000  0.4791080000000  0.5665460000000 1.0
C      1  0.5661490000000  0.5189130000000  0.4130530000000 1.0
C      1  0.4653610000000  0.4223540000000  0.4332000000000 1.0
C      1  0.4641830000000  0.4123380000000  0.5207270000000 1.0
C      1  0.5538140000000  0.4459460000000  0.5595640000000 1.0
C      1  0.4955890000000  0.5413470000000  0.5411610000000 1.0
C      1  0.5263250000000  0.5924460000000  0.5128940000000 1.0
C      1  0.4783140000000  0.5396360000000  0.4343500000000 1.0
C      1  0.4943680000000  0.5385070000000  0.4901620000000 1.0
C      1  0.5736580000000  0.5394960000000  0.4743850000000 1.0
C      1  0.5381750000000  0.4865200000000  0.4882020000000 1.0
C      1  0.4271150000000  0.5282660000000  0.4862620000000 1.0
C      1  0.4981680000000  0.4257660000000  0.4820280000000 1.0
C      1  0.5053220000000  0.4485380000000  0.4101440000000 1.0
C      1  0.5314670000000  0.4314330000000  0.5557750000000 1.0
C      1  0.5003660000000  0.5812460000000  0.5138960000000 1.0
C      1  0.5818820000000  0.5455390000000  0.5022760000000 1.0
C      1  0.4257510000000  0.4424410000000  0.5092780000000 1.0
C      1  0.5516100000000  0.4736220000000  0.4122250000000 1.0
C      1  0.5871100000000  0.4849540000000  0.5456460000000 1.0
C      1  0.4271280000000  0.5393570000000  0.5610910000000 1.0
C      1  0.4412530000000  0.4088970000000  0.4777190000000 1.0
C      1  0.4479170000000  0.5167920000000  0.4675220000000 1.0
C      1  0.4485630000000  0.5491860000000  0.6135000000000 1.0
C      1  0.5762360000000  0.4629780000000  0.4626890000000 1.0
C      1  0.5261310000000  0.3893760000000  0.4686940000000 1.0
C      1  0.3984390000000  0.5586090000000  0.5276590000000 1.0
C      1  0.4355300000000  0.5734560000000  0.4250720000000 1.0
C      1  0.5406600000000  0.4004060000000  0.4487990000000 1.0
C      1  0.5931520000000  0.5120480000000  0.5400480000000 1.0
C      1  0.4503800000000  0.4122500000000  0.4528290000000 1.0
C      1  0.4840950000000  0.4352700000000  0.4193060000000 1.0
C      1  0.5955000000000  0.5223480000000  0.5137670000000 1.0
C      1  0.5307590000000  0.5099320000000  0.4720140000000 1.0
C      1  0.4850650000000  0.4210910000000  0.5386940000000 1.0
C      1  0.4193530000000  0.4894510000000  0.5456170000000 1.0
C      1  0.5363230000000  0.4935860000000  0.5161940000000 1.0
C      1  0.5218740000000  0.5298400000000  0.4920850000000 1.0
C      1  0.4075370000000  0.5359530000000  0.5416110000000 1.0
C      1  0.5851880000000  0.5121950000000  0.4675000000000 1.0
C      1  0.4631000000000  0.5490940000000  0.5903840000000 1.0
C      1  0.5174120000000  0.4839790000000  0.5605150000000 1.0
C      1  0.4815780000000  0.5687190000000  0.4394890000000 1.0
C      1  0.5037680000000  0.5259930000000  0.4333620000000 1.0
C      1  0.5885540000000  0.4491490000000  0.4844970000000 1.0
C      1  0.4566080000000  0.4716600000000  0.4879010000000 1.0
C      1  0.5233940000000  0.5349850000000  0.5406370000000 1.0
C      1  0.4463770000000  0.4786170000000  0.5388440000000 1.0
C      1  0.5727010000000  0.5695580000000  0.5133730000000 1.0
C      1  0.4087140000000  0.5104000000000  0.5292220000000 1.0
C      1  0.4442280000000  0.4641470000000  0.5121800000000 1.0
C      1  0.4599430000000  0.5844910000000  0.4302600000000 1.0
C      1  0.4884100000000  0.5620710000000  0.5885340000000 1.0
C      1  0.4862070000000  0.4748120000000  0.4896060000000 1.0
C      1  0.5167850000000  0.5204570000000  0.5977660000000 1.0
C      1  0.4747190000000  0.4386140000000  0.5586150000000 1.0
C      1  0.5018700000000  0.5736250000000  0.4601930000000 1.0
C      1  0.4904730000000  0.4845770000000  0.5192540000000 1.0
C      1  0.4889320000000  0.5682990000000  0.4886980000000 1.0
C      1  0.4728590000000  0.5243980000000  0.5472730000000 1.0
C      1  0.5787670000000  0.4895590000000  0.4508310000000 1.0
C      1  0.5540750000000  0.5575700000000  0.4637460000000 1.0
C      1  0.4695450000000  0.4984290000000  0.5345600000000 1.0
C      1  0.5101910000000  0.5053320000000  0.4523880000000 1.0
C      1  0.4009910000000  0.4563070000000  0.5021590000000 1.0
C      1  0.5325730000000  0.5224880000000  0.5174970000000 1.0
C      1  0.4573100000000  0.4591240000000  0.5592090000000 1.0
C      1  0.4308870000000  0.5468870000000  0.4293430000000 1.0
C      1  0.5143480000000  0.4187940000000  0.5367730000000 1.0
C      1  0.5286750000000  0.4610170000000  0.4069260000000 1.0
C      1  0.5287030000000  0.5626570000000  0.4514250000000 1.0
C      1  0.5524640000000  0.5870170000000  0.5148580000000 1.0
C      1  0.5158850000000  0.4821380000000  0.5323360000000 1.0
C      1  0.5146630000000  0.4042240000000  0.4897130000000 1.0
C      1  0.5731760000000  0.4637800000000  0.5543670000000 1.0
C      1  0.4542450000000  0.5357530000000  0.5667270000000 1.0
C      1  0.5419730000000  0.5451230000000  0.5589250000000 1.0
C      1  0.4755820000000  0.5200340000000  0.4796200000000 1.0
C      1  0.5503520000000  0.4504770000000  0.4589150000000 1.0
C      1  0.4319870000000  0.5564620000000  0.4922420000000 1.0
C      1  0.4428850000000  0.4865050000000  0.4668210000000 1.0
C      1  0.4093040000000  0.5083670000000  0.5006790000000 1.0
C      1  0.5568570000000  0.4162800000000  0.5106720000000 1.0
C      1  0.5044690000000  0.4528890000000  0.4817760000000 1.0
END
