TITL C-3691714-3020-7 -9.43777880375611 125000 -485.775108752854 0 0 82 (C1) n - 1
REM
REM in /home/nfs/bkarasulu/CARBON/AIRSS/Generating-Clusters/LCBOP/Only-C1/SD-CG/HFTN-CG/FIRE-CG
REM
REM
REM
REM
REM
REM ./C.cell (11c1c37f851c82e70ff6c80c92926a4b)
REM AIRSS Version 0.9.1 bugfix July 2018 build 013d7b7c2542+ Fri, 06 Jul 2018 19:26:36 +0100
REM compiler GCC version 9.2.1 20190827 (Red Hat 9.2.1-1)
REM options -cpp -mtune=generic -march=x86-64 -g -O0 -fpre-include=/usr/include/finclude/math-vector-fortran.h
REM seed 1972897976 -152778810 1444266892 -259187771 -646784938 -508997735 -784775916 1470349980 1652637237 -139953937 -1486071488 -1350970708 586865992 1163679506 -397652180 -525651359 922756047 -1663591751 -723917473 -1047183098 -67755414 42443494 -1932561410 472805795 1983982750 -1138509768 727982124 2072107496 1858057703 -987932832 -2003123312 -1717075383 67854959
REM
CELL 1.54180   50.00000   50.00000   50.00000   90.00000   90.00000   90.00000
LATT -1
SFAC C  
C      1  0.5928970000000  0.4594520000000  0.5390020000000 1.0
C      1  0.5557770000000  0.5296600000000  0.5528540000000 1.0
C      1  0.5037730000000  0.4743020000000  0.4833340000000 1.0
C      1  0.5710260000000  0.4692230000000  0.5537960000000 1.0
C      1  0.4336080000000  0.5053900000000  0.5556440000000 1.0
C      1  0.5127600000000  0.5177070000000  0.4660770000000 1.0
C      1  0.4967910000000  0.5348400000000  0.4820830000000 1.0
C      1  0.4036430000000  0.5805880000000  0.5079030000000 1.0
C      1  0.4848040000000  0.4374900000000  0.4424750000000 1.0
C      1  0.4533990000000  0.5176220000000  0.5719690000000 1.0
C      1  0.5713220000000  0.4402840000000  0.4986150000000 1.0
C      1  0.5890460000000  0.5107920000000  0.5131550000000 1.0
C      1  0.5082410000000  0.4972670000000  0.3865460000000 1.0
C      1  0.5031650000000  0.5419520000000  0.5546570000000 1.0
C      1  0.5322360000000  0.5480750000000  0.5513480000000 1.0
C      1  0.5462240000000  0.4667920000000  0.5394680000000 1.0
C      1  0.5896450000000  0.4593410000000  0.5110330000000 1.0
C      1  0.3926780000000  0.5129390000000  0.4605710000000 1.0
C      1  0.4181580000000  0.5177220000000  0.5352120000000 1.0
C      1  0.4546160000000  0.4921140000000  0.4217220000000 1.0
C      1  0.4691130000000  0.4468190000000  0.4206530000000 1.0
C      1  0.5626120000000  0.5546510000000  0.5143190000000 1.0
C      1  0.4977210000000  0.5819500000000  0.4520010000000 1.0
C      1  0.4822960000000  0.4248240000000  0.4919400000000 1.0
C      1  0.5100270000000  0.4294900000000  0.4985250000000 1.0
C      1  0.4358650000000  0.4766710000000  0.5546160000000 1.0
C      1  0.4907750000000  0.5360560000000  0.5297370000000 1.0
C      1  0.5319150000000  0.5922680000000  0.5268600000000 1.0
C      1  0.5293770000000  0.5111140000000  0.5092140000000 1.0
C      1  0.4114310000000  0.5086880000000  0.4415880000000 1.0
C      1  0.4316070000000  0.4559000000000  0.5349050000000 1.0
C      1  0.4534700000000  0.5417690000000  0.5012970000000 1.0
C      1  0.5230780000000  0.5777800000000  0.4443640000000 1.0
C      1  0.5342580000000  0.4412170000000  0.5391960000000 1.0
C      1  0.5015440000000  0.4802570000000  0.4069270000000 1.0
C      1  0.5208360000000  0.4237550000000  0.5238460000000 1.0
C      1  0.5645280000000  0.5136710000000  0.5740980000000 1.0
C      1  0.3966510000000  0.6056950000000  0.5084660000000 1.0
C      1  0.5125130000000  0.4439520000000  0.4372090000000 1.0
C      1  0.5220200000000  0.4677100000000  0.4235900000000 1.0
C      1  0.4737580000000  0.4865790000000  0.5812190000000 1.0
C      1  0.4634330000000  0.4981670000000  0.5104510000000 1.0
C      1  0.5624870000000  0.4936080000000  0.4513280000000 1.0
C      1  0.4815150000000  0.4224210000000  0.5742320000000 1.0
C      1  0.4640310000000  0.4220660000000  0.5136500000000 1.0
C      1  0.4755700000000  0.5727020000000  0.4643390000000 1.0
C      1  0.6158350000000  0.5180520000000  0.5141490000000 1.0
C      1  0.4550750000000  0.5289380000000  0.4540440000000 1.0
C      1  0.4371820000000  0.4999640000000  0.4953760000000 1.0
C      1  0.4723560000000  0.4387720000000  0.4684150000000 1.0
C      1  0.5512110000000  0.4540610000000  0.4825270000000 1.0
C      1  0.4684570000000  0.5456590000000  0.4750510000000 1.0
C      1  0.4780770000000  0.4770800000000  0.4965870000000 1.0
C      1  0.5415400000000  0.5670250000000  0.5302880000000 1.0
C      1  0.4410630000000  0.4851020000000  0.4704280000000 1.0
C      1  0.5838960000000  0.4859380000000  0.4984570000000 1.0
C      1  0.4978820000000  0.4996410000000  0.5761360000000 1.0
C      1  0.5710570000000  0.5294110000000  0.5269890000000 1.0
C      1  0.5462280000000  0.4813600000000  0.4311110000000 1.0
C      1  0.4408290000000  0.5035100000000  0.4453900000000 1.0
C      1  0.4881040000000  0.5270960000000  0.5739870000000 1.0
C      1  0.5082690000000  0.5314500000000  0.5088530000000 1.0
C      1  0.4738110000000  0.4737600000000  0.4125700000000 1.0
C      1  0.5307660000000  0.4905030000000  0.5314960000000 1.0
C      1  0.5584730000000  0.5203670000000  0.4622180000000 1.0
C      1  0.5466870000000  0.5651050000000  0.4457350000000 1.0
C      1  0.5629750000000  0.5485780000000  0.4619120000000 1.0
C      1  0.4523260000000  0.4352930000000  0.5354490000000 1.0
C      1  0.4665720000000  0.5256390000000  0.5198460000000 1.0
C      1  0.5724820000000  0.4880080000000  0.5744720000000 1.0
C      1  0.4585340000000  0.4664310000000  0.5704040000000 1.0
C      1  0.5134520000000  0.4929830000000  0.5541340000000 1.0
C      1  0.5696760000000  0.5593850000000  0.4874960000000 1.0
C      1  0.5045530000000  0.4916190000000  0.4610230000000 1.0
C      1  0.5380220000000  0.5145250000000  0.4815630000000 1.0
C      1  0.3942770000000  0.5169380000000  0.4871860000000 1.0
C      1  0.5225120000000  0.4526660000000  0.4863170000000 1.0
C      1  0.4178760000000  0.5244160000000  0.5050860000000 1.0
C      1  0.5667610000000  0.4780900000000  0.4751920000000 1.0
C      1  0.4658390000000  0.4402340000000  0.5609790000000 1.0
C      1  0.4599850000000  0.4638620000000  0.4760190000000 1.0
C      1  0.4111200000000  0.5552060000000  0.5070830000000 1.0
END
