TITL C-3691714-3020-15 0.594478468429458 125000 -172.476836526306 0 0 30 (C1) n - 1
REM
REM in /home/nfs/bkarasulu/CARBON/AIRSS/Generating-Clusters/LCBOP/Only-C1/SD-CG/HFTN-CG/FIRE-CG
REM
REM
REM
REM
REM
REM ./C.cell (11c1c37f851c82e70ff6c80c92926a4b)
REM AIRSS Version 0.9.1 bugfix July 2018 build 013d7b7c2542+ Fri, 06 Jul 2018 19:26:36 +0100
REM compiler GCC version 9.2.1 20190827 (Red Hat 9.2.1-1)
REM options -cpp -mtune=generic -march=x86-64 -g -O0 -fpre-include=/usr/include/finclude/math-vector-fortran.h
REM seed 1382853590 1211516018 1983379136 1314177082 -76156510 -735114629 631943550 -1981310255 -1258097431 222451814 1335578878 -1327103997 554184825 -1890280525 -1942018771 -454955346 -1046039660 -1716997365 -2052965016 -1585012473 914029147 1074772360 2066432778 -2141242643 -369055716 1389965551 -1337472943 -2073302077 -752397177 -1119769106 -408937049 1222486048 -496425369
REM
CELL 1.54180   50.00000   50.00000   50.00000   90.00000   90.00000   90.00000
LATT -1
SFAC C  
C      1  0.4478300000000  0.4875430000000  0.4623590000000 1.0
C      1  0.4997150000000  0.5501070000000  0.4895830000000 1.0
C      1  0.5222740000000  0.5165550000000  0.5556300000000 1.0
C      1  0.4818150000000  0.5214880000000  0.5256470000000 1.0
C      1  0.5502210000000  0.4690030000000  0.4665070000000 1.0
C      1  0.4715410000000  0.4974760000000  0.4559830000000 1.0
C      1  0.5442140000000  0.5273150000000  0.5394960000000 1.0
C      1  0.3559250000000  0.4488970000000  0.4970690000000 1.0
C      1  0.5487780000000  0.4622350000000  0.5172320000000 1.0
C      1  0.5348190000000  0.5489790000000  0.5221590000000 1.0
C      1  0.4246450000000  0.4778090000000  0.4707140000000 1.0
C      1  0.5194320000000  0.4906560000000  0.5659050000000 1.0
C      1  0.5114600000000  0.5582750000000  0.5383270000000 1.0
C      1  0.4016030000000  0.4681190000000  0.4795100000000 1.0
C      1  0.4986550000000  0.5326860000000  0.5465770000000 1.0
C      1  0.5706780000000  0.4841310000000  0.4808540000000 1.0
C      1  0.4826000000000  0.4935470000000  0.5207110000000 1.0
C      1  0.5242440000000  0.4751950000000  0.4779670000000 1.0
C      1  0.5089990000000  0.4698380000000  0.5520360000000 1.0
C      1  0.4788870000000  0.5387870000000  0.5030840000000 1.0
C      1  0.5026730000000  0.5227490000000  0.4296530000000 1.0
C      1  0.4971930000000  0.5078530000000  0.4519510000000 1.0
C      1  0.5374110000000  0.5218550000000  0.4799760000000 1.0
C      1  0.5017340000000  0.4729650000000  0.5246120000000 1.0
C      1  0.5175560000000  0.5022670000000  0.4707600000000 1.0
C      1  0.5273470000000  0.5439700000000  0.4947790000000 1.0
C      1  0.5224890000000  0.4671320000000  0.5059110000000 1.0
C      1  0.5644410000000  0.5121630000000  0.4798020000000 1.0
C      1  0.5722500000000  0.4719780000000  0.5068480000000 1.0
C      1  0.3785740000000  0.4584280000000  0.4883620000000 1.0
END
