TITL C-3691713-1865-11 0.00162533833227412 125000 -330.201910686507 0 0 55 (C1) n - 1
REM
REM in /home/nfs/bkarasulu/CARBON/AIRSS/Generating-Clusters/LCBOP/Only-C1/SD-CG/HFTN-CG/FIRE-CG
REM
REM
REM
REM
REM
REM ./C.cell (11c1c37f851c82e70ff6c80c92926a4b)
REM AIRSS Version 0.9.1 bugfix July 2018 build 013d7b7c2542+ Fri, 06 Jul 2018 19:26:36 +0100
REM compiler GCC version 9.2.1 20190827 (Red Hat 9.2.1-1)
REM options -cpp -mtune=generic -march=x86-64 -g -O0 -fpre-include=/usr/include/finclude/math-vector-fortran.h
REM seed 1541265724 -140287823 -1364802132 -1351434520 -2071248141 -1885853382 -935899023 -157158708 -1120052314 -552338735 1728949491 1747346448 1746280538 188453606 -1768886589 1019469157 -375139000 -1586982790 -1420368326 -1005198047 -738395640 1249877879 -1655134595 114550004 851593711 -320782311 -1787983624 520473397 -22557834 493097138 2115993314 508143860 -655061657
REM
CELL 1.54180   50.00000   50.00000   50.00000   90.00000   90.00000   90.00000
LATT -1
SFAC C  
C      1  0.4825020000000  0.4858860000000  0.5638900000000 1.0
C      1  0.3962380000000  0.4897830000000  0.4516230000000 1.0
C      1  0.5435870000000  0.5487690000000  0.4368180000000 1.0
C      1  0.4899660000000  0.5140100000000  0.5712900000000 1.0
C      1  0.5356490000000  0.4131890000000  0.5353750000000 1.0
C      1  0.4998780000000  0.4181710000000  0.5914200000000 1.0
C      1  0.5442450000000  0.4796620000000  0.5448990000000 1.0
C      1  0.4625780000000  0.5710330000000  0.4780570000000 1.0
C      1  0.5187440000000  0.5111860000000  0.5758500000000 1.0
C      1  0.5140130000000  0.5439450000000  0.5189600000000 1.0
C      1  0.4222540000000  0.4911230000000  0.4619240000000 1.0
C      1  0.5426840000000  0.4711820000000  0.5179830000000 1.0
C      1  0.4770670000000  0.5934720000000  0.4797590000000 1.0
C      1  0.5113790000000  0.4101440000000  0.4933130000000 1.0
C      1  0.4963310000000  0.4477670000000  0.4688350000000 1.0
C      1  0.4736550000000  0.4848380000000  0.5368170000000 1.0
C      1  0.4520580000000  0.5387590000000  0.5494070000000 1.0
C      1  0.4259550000000  0.5186770000000  0.5090960000000 1.0
C      1  0.4795090000000  0.5326950000000  0.5522600000000 1.0
C      1  0.4980000000000  0.4195570000000  0.4702760000000 1.0
C      1  0.4662100000000  0.4691280000000  0.4381220000000 1.0
C      1  0.5386370000000  0.5532900000000  0.5096050000000 1.0
C      1  0.4841380000000  0.5288410000000  0.4575630000000 1.0
C      1  0.5659350000000  0.5244800000000  0.4746720000000 1.0
C      1  0.4924980000000  0.5281070000000  0.5267700000000 1.0
C      1  0.4930100000000  0.4910310000000  0.4926900000000 1.0
C      1  0.5283680000000  0.4848740000000  0.5675630000000 1.0
C      1  0.4952540000000  0.5049480000000  0.4678380000000 1.0
C      1  0.5029220000000  0.6001810000000  0.4781610000000 1.0
C      1  0.5098640000000  0.4881810000000  0.4487890000000 1.0
C      1  0.5638110000000  0.5441390000000  0.5197440000000 1.0
C      1  0.5724120000000  0.5479050000000  0.5452510000000 1.0
C      1  0.5042930000000  0.4681320000000  0.5712730000000 1.0
C      1  0.5027410000000  0.4423980000000  0.5810870000000 1.0
C      1  0.5520440000000  0.5470530000000  0.4634400000000 1.0
C      1  0.4333810000000  0.5317360000000  0.5312830000000 1.0
C      1  0.4431050000000  0.4793860000000  0.4470300000000 1.0
C      1  0.5557520000000  0.4978150000000  0.4722880000000 1.0
C      1  0.5017580000000  0.4632950000000  0.4927060000000 1.0
C      1  0.5379390000000  0.4900500000000  0.4514900000000 1.0
C      1  0.4261620000000  0.5041780000000  0.4866190000000 1.0
C      1  0.4876210000000  0.4029080000000  0.4513970000000 1.0
C      1  0.5197150000000  0.5461560000000  0.4248790000000 1.0
C      1  0.4973240000000  0.3940710000000  0.6010250000000 1.0
C      1  0.5217020000000  0.4532830000000  0.5106350000000 1.0
C      1  0.3719940000000  0.4886460000000  0.4421280000000 1.0
C      1  0.5400640000000  0.5644270000000  0.4831190000000 1.0
C      1  0.5786650000000  0.5306650000000  0.4995860000000 1.0
C      1  0.5269320000000  0.5884800000000  0.4777410000000 1.0
C      1  0.4850490000000  0.5021660000000  0.5168450000000 1.0
C      1  0.4955100000000  0.5386200000000  0.4335590000000 1.0
C      1  0.4929880000000  0.4646400000000  0.4460660000000 1.0
C      1  0.4660640000000  0.5455350000000  0.4708320000000 1.0
C      1  0.5565870000000  0.4823840000000  0.4961550000000 1.0
C      1  0.5232570000000  0.4250210000000  0.5142000000000 1.0
END
