TITL C-3691714-3020-18 -8.64434166143791e-08 125000 -125.866457139011 0 0 21 (C2) n - 1
REM
REM in /home/nfs/bkarasulu/CARBON/AIRSS/Generating-Clusters/LCBOP/Only-C1/SD-CG/HFTN-CG/FIRE-CG
REM
REM
REM
REM
REM
REM ./C.cell (11c1c37f851c82e70ff6c80c92926a4b)
REM AIRSS Version 0.9.1 bugfix July 2018 build 013d7b7c2542+ Fri, 06 Jul 2018 19:26:36 +0100
REM compiler GCC version 9.2.1 20190827 (Red Hat 9.2.1-1)
REM options -cpp -mtune=generic -march=x86-64 -g -O0 -fpre-include=/usr/include/finclude/math-vector-fortran.h
REM seed -935456113 1150442884 503984707 -1884833374 1648692263 -605033390 -727667983 1226114258 -57450977 -1618391792 173575055 -1143185027 2077408705 -1390157521 -491208071 -616263245 1814731301 1750308123 781591373 102928261 -819503280 -1356205392 -2135322694 820149133 -1388835714 144761435 -1939237130 -1169010698 606839268 -1079989690 1720194504 1549258976 428922267
REM
CELL 1.54180   50.00000   50.00000   50.00000   90.00000   90.00000   90.00000
LATT -1
SFAC C  
C      1  0.5230380000000  0.5294560000000  0.5156750000000 1.0
C      1  0.4570710000000  0.5464720000000  0.5085400000000 1.0
C      1  0.5126200000000  0.5112070000000  0.5344220000000 1.0
C      1  0.4737850000000  0.5196620000000  0.4462710000000 1.0
C      1  0.4758440000000  0.4939370000000  0.4397880000000 1.0
C      1  0.4459160000000  0.5317700000000  0.5278880000000 1.0
C      1  0.5476170000000  0.4576920000000  0.5042490000000 1.0
C      1  0.4507460000000  0.5100380000000  0.5427250000000 1.0
C      1  0.5649620000000  0.4778910000000  0.5017850000000 1.0
C      1  0.5061600000000  0.4639530000000  0.5281740000000 1.0
C      1  0.5057820000000  0.4438730000000  0.4840690000000 1.0
C      1  0.5200790000000  0.4524940000000  0.5065550000000 1.0
C      1  0.4790050000000  0.5466910000000  0.4909440000000 1.0
C      1  0.5657670000000  0.5046270000000  0.5023180000000 1.0
C      1  0.5494680000000  0.5252950000000  0.5072190000000 1.0
C      1  0.4925570000000  0.4504480000000  0.4619230000000 1.0
C      1  0.4752520000000  0.5392840000000  0.4641980000000 1.0
C      1  0.4703880000000  0.4923390000000  0.5469410000000 1.0
C      1  0.4968890000000  0.4882410000000  0.5386800000000 1.0
C      1  0.4821610000000  0.4687680000000  0.4456660000000 1.0
C      1  0.5048920000000  0.5458610000000  0.5019710000000 1.0
END
