TITL C-3691713-1865-2 -6.47703394505096e-07 125000 -661.142550939831 0 0 110 (C1) n - 1
REM
REM in /home/nfs/bkarasulu/CARBON/AIRSS/Generating-Clusters/LCBOP/Only-C1/SD-CG/HFTN-CG/FIRE-CG
REM
REM
REM
REM
REM
REM ./C.cell (11c1c37f851c82e70ff6c80c92926a4b)
REM AIRSS Version 0.9.1 bugfix July 2018 build 013d7b7c2542+ Fri, 06 Jul 2018 19:26:36 +0100
REM compiler GCC version 9.2.1 20190827 (Red Hat 9.2.1-1)
REM options -cpp -mtune=generic -march=x86-64 -g -O0 -fpre-include=/usr/include/finclude/math-vector-fortran.h
REM seed -1495215014 1028130109 -423846775 -1279044196 1392889056 340167632 -105785639 1501655984 554645238 1510584655 824911041 1943842928 177305280 -1516752834 -2002209421 -1367231749 1464121467 -211092865 190098032 1527818383 1663785175 1502443782 -822997479 47484451 250409803 -929010141 -1291284953 -1152559447 -369873226 380042226 1526702973 -1537965299 523059528
REM
CELL 1.54180   50.00000   50.00000   50.00000   90.00000   90.00000   90.00000
LATT -1
SFAC C  
C      1  0.5022450000000  0.5229770000000  0.5236490000000 1.0
C      1  0.4892840000000  0.6139270000000  0.4529110000000 1.0
C      1  0.4068910000000  0.4415800000000  0.4614100000000 1.0
C      1  0.5185600000000  0.5846930000000  0.5145640000000 1.0
C      1  0.5979540000000  0.4945080000000  0.5105940000000 1.0
C      1  0.4103880000000  0.5238960000000  0.5464880000000 1.0
C      1  0.5387840000000  0.3885470000000  0.5157690000000 1.0
C      1  0.4505240000000  0.5100700000000  0.5652490000000 1.0
C      1  0.4573490000000  0.5532050000000  0.4430670000000 1.0
C      1  0.5023320000000  0.5514520000000  0.6082340000000 1.0
C      1  0.5044300000000  0.4292380000000  0.5396150000000 1.0
C      1  0.4242460000000  0.5479050000000  0.5560290000000 1.0
C      1  0.4280030000000  0.5369700000000  0.5050020000000 1.0
C      1  0.4534040000000  0.4155990000000  0.4667820000000 1.0
C      1  0.3888930000000  0.4609850000000  0.4665320000000 1.0
C      1  0.5324330000000  0.5292570000000  0.5759210000000 1.0
C      1  0.3951050000000  0.4772170000000  0.5275390000000 1.0
C      1  0.5561650000000  0.4755010000000  0.4710090000000 1.0
C      1  0.4191510000000  0.5593110000000  0.4901080000000 1.0
C      1  0.6002580000000  0.5183960000000  0.4688490000000 1.0
C      1  0.5630980000000  0.4915320000000  0.5723870000000 1.0
C      1  0.4765220000000  0.5411230000000  0.4638090000000 1.0
C      1  0.4958820000000  0.4954470000000  0.4545510000000 1.0
C      1  0.5973070000000  0.5236360000000  0.5173980000000 1.0
C      1  0.5011010000000  0.5630320000000  0.5597820000000 1.0
C      1  0.4378060000000  0.4616960000000  0.5309480000000 1.0
C      1  0.4554220000000  0.5255680000000  0.5071300000000 1.0
C      1  0.5306820000000  0.4235780000000  0.5486150000000 1.0
C      1  0.4295290000000  0.4270970000000  0.4623230000000 1.0
C      1  0.5943940000000  0.5426080000000  0.5382010000000 1.0
C      1  0.4729120000000  0.5586990000000  0.5543950000000 1.0
C      1  0.4768030000000  0.4059880000000  0.4758930000000 1.0
C      1  0.4124940000000  0.5470500000000  0.4239910000000 1.0
C      1  0.4292420000000  0.4861480000000  0.4889950000000 1.0
C      1  0.4078850000000  0.5212030000000  0.5174050000000 1.0
C      1  0.4634740000000  0.4890130000000  0.3998930000000 1.0
C      1  0.4187640000000  0.5851490000000  0.4826700000000 1.0
C      1  0.4656340000000  0.5748980000000  0.5058320000000 1.0
C      1  0.5772060000000  0.5633800000000  0.5433240000000 1.0
C      1  0.5852010000000  0.5299940000000  0.4469980000000 1.0
C      1  0.4349870000000  0.5365940000000  0.4355290000000 1.0
C      1  0.5389460000000  0.4278100000000  0.5748060000000 1.0
C      1  0.5373410000000  0.4958200000000  0.3981270000000 1.0
C      1  0.5839260000000  0.4727430000000  0.4653650000000 1.0
C      1  0.5783080000000  0.4266510000000  0.4455460000000 1.0
C      1  0.5414860000000  0.5351880000000  0.5498580000000 1.0
C      1  0.5462910000000  0.4325720000000  0.4856840000000 1.0
C      1  0.4011160000000  0.4942430000000  0.5026350000000 1.0
C      1  0.4968630000000  0.4013600000000  0.4953340000000 1.0
C      1  0.5843610000000  0.4753390000000  0.5272640000000 1.0
C      1  0.5633830000000  0.5439970000000  0.4861620000000 1.0
C      1  0.5605770000000  0.4043500000000  0.4508510000000 1.0
C      1  0.4705520000000  0.4986280000000  0.5488370000000 1.0
C      1  0.5225510000000  0.5747910000000  0.5411550000000 1.0
C      1  0.5060970000000  0.5831510000000  0.4888470000000 1.0
C      1  0.5597030000000  0.4314900000000  0.5109330000000 1.0
C      1  0.5068530000000  0.5272400000000  0.4206420000000 1.0
C      1  0.4235250000000  0.5003150000000  0.5587450000000 1.0
C      1  0.5613990000000  0.3816990000000  0.4355950000000 1.0
C      1  0.4302690000000  0.5718560000000  0.5411680000000 1.0
C      1  0.4993040000000  0.4706700000000  0.4416700000000 1.0
C      1  0.5639450000000  0.4848990000000  0.5449440000000 1.0
C      1  0.4823040000000  0.4735920000000  0.5544500000000 1.0
C      1  0.4519160000000  0.5396130000000  0.5661320000000 1.0
C      1  0.5641660000000  0.5454370000000  0.4568320000000 1.0
C      1  0.5070640000000  0.4947550000000  0.4803820000000 1.0
C      1  0.4581170000000  0.5727130000000  0.5329620000000 1.0
C      1  0.5770900000000  0.4669520000000  0.4178760000000 1.0
C      1  0.5280090000000  0.5127720000000  0.4820450000000 1.0
C      1  0.5849170000000  0.4545800000000  0.4423390000000 1.0
C      1  0.4893240000000  0.6064600000000  0.4800450000000 1.0
C      1  0.4941040000000  0.5228090000000  0.4453680000000 1.0
C      1  0.5405730000000  0.4927570000000  0.5311080000000 1.0
C      1  0.4421500000000  0.5017880000000  0.4683570000000 1.0
C      1  0.4175980000000  0.4755340000000  0.5456470000000 1.0
C      1  0.4754070000000  0.5152420000000  0.5258110000000 1.0
C      1  0.5115220000000  0.5476630000000  0.5828110000000 1.0
C      1  0.4371500000000  0.5081600000000  0.4409020000000 1.0
C      1  0.5320020000000  0.5208500000000  0.5260840000000 1.0
C      1  0.4775820000000  0.6005150000000  0.4326840000000 1.0
C      1  0.5177510000000  0.4530850000000  0.4507400000000 1.0
C      1  0.5462020000000  0.5078070000000  0.5888290000000 1.0
C      1  0.4366270000000  0.6055190000000  0.4836900000000 1.0
C      1  0.5424830000000  0.5298580000000  0.4990680000000 1.0
C      1  0.5117980000000  0.5074730000000  0.4006660000000 1.0
C      1  0.5490060000000  0.5623250000000  0.5454220000000 1.0
C      1  0.4630240000000  0.6014550000000  0.4926790000000 1.0
C      1  0.5997210000000  0.4914020000000  0.4803040000000 1.0
C      1  0.4994470000000  0.4761420000000  0.4987080000000 1.0
C      1  0.4450480000000  0.4920810000000  0.4191620000000 1.0
C      1  0.5402960000000  0.4972810000000  0.6413390000000 1.0
C      1  0.4901780000000  0.4095990000000  0.5220070000000 1.0
C      1  0.3830050000000  0.4833620000000  0.4810240000000 1.0
C      1  0.5421880000000  0.4072120000000  0.4726800000000 1.0
C      1  0.4643370000000  0.5773410000000  0.4304970000000 1.0
C      1  0.5907620000000  0.5352270000000  0.4919820000000 1.0
C      1  0.4611380000000  0.5200210000000  0.4797900000000 1.0
C      1  0.5592250000000  0.4816210000000  0.4042360000000 1.0
C      1  0.5803640000000  0.4487690000000  0.5186480000000 1.0
C      1  0.4855990000000  0.5616940000000  0.4871180000000 1.0
C      1  0.5457320000000  0.4313540000000  0.5997150000000 1.0
C      1  0.4617880000000  0.4271790000000  0.5547260000000 1.0
C      1  0.5477650000000  0.4125050000000  0.5288620000000 1.0
C      1  0.5244770000000  0.3927170000000  0.4908970000000 1.0
C      1  0.4646160000000  0.4071800000000  0.5356610000000 1.0
C      1  0.4844100000000  0.4456400000000  0.5537860000000 1.0
C      1  0.4428070000000  0.4666210000000  0.5046610000000 1.0
C      1  0.5380150000000  0.4544160000000  0.4704320000000 1.0
C      1  0.5433930000000  0.5026450000000  0.6160250000000 1.0
C      1  0.4882660000000  0.4947960000000  0.3912490000000 1.0
END
