TITL C-3866672-3872-661 -0.845875564310786 125000 -135.517742184606 0 0 24 (C1) n - 1
REM
REM in /home/nfs/bkarasulu/CARBON/AIRSS/Generating-Clusters/LCBOP/Only-C1/SD-CG/FIRE-CG
REM
REM
REM
REM
REM
REM ./C.cell (11c1c37f851c82e70ff6c80c92926a4b)
REM AIRSS Version 0.9.1 bugfix July 2018 build 013d7b7c2542+ Fri, 06 Jul 2018 19:26:36 +0100
REM compiler GCC version 9.2.1 20190827 (Red Hat 9.2.1-1)
REM options -cpp -mtune=generic -march=x86-64 -g -O0 -fpre-include=/usr/include/finclude/math-vector-fortran.h
REM seed 1706748963 1236325603 -265324017 903087531 1617647529 -103646370 -2137209181 -772074552 520412947 -519793845 2112437736 -2026757930 -949264642 -2138045842 -828630460 468063934 1034326952 1384235909 1026959220 -1385129500 -45373009 961281795 437413763 1134888311 1652577010 -1685159927 -1939274107 -1748075293 -2049954749 813297305 837909326 1939006284 1606563408
REM
CELL 1.54180   50.00000   50.00000   50.00000   90.00000   90.00000   90.00000
LATT -1
SFAC C  
C      1  0.5550420000000  0.5067190000000  0.5256380000000 1.0
C      1  0.4446090000000  0.4877800000000  0.4955130000000 1.0
C      1  0.4624830000000  0.4762530000000  0.4786370000000 1.0
C      1  0.4829750000000  0.4910130000000  0.4662960000000 1.0
C      1  0.4057940000000  0.5397910000000  0.5309400000000 1.0
C      1  0.5492430000000  0.4664800000000  0.4981590000000 1.0
C      1  0.4810770000000  0.5204840000000  0.4709120000000 1.0
C      1  0.5339500000000  0.5248140000000  0.5291720000000 1.0
C      1  0.5001280000000  0.5316150000000  0.4524110000000 1.0
C      1  0.5569490000000  0.4305930000000  0.4669800000000 1.0
C      1  0.5384960000000  0.4503700000000  0.5677480000000 1.0
C      1  0.4695570000000  0.5285980000000  0.4955410000000 1.0
C      1  0.5106190000000  0.5371060000000  0.5259800000000 1.0
C      1  0.4249880000000  0.5274930000000  0.5174390000000 1.0
C      1  0.5071690000000  0.4855360000000  0.4511030000000 1.0
C      1  0.4455050000000  0.5150360000000  0.5035050000000 1.0
C      1  0.5150130000000  0.5114550000000  0.4406290000000 1.0
C      1  0.5438170000000  0.4639990000000  0.5461810000000 1.0
C      1  0.5809180000000  0.5155650000000  0.5246050000000 1.0
C      1  0.4867570000000  0.5399450000000  0.5144960000000 1.0
C      1  0.5438840000000  0.4535800000000  0.4738500000000 1.0
C      1  0.5247420000000  0.4649230000000  0.4568150000000 1.0
C      1  0.3869430000000  0.5519270000000  0.5442440000000 1.0
C      1  0.5493390000000  0.4789240000000  0.5232060000000 1.0
END
