TITL C-3866675-3766-145 0.277832441923581 125000 -134.762035605097 0 0 24 (C1) n - 1
REM
REM in /home/nfs/bkarasulu/CARBON/AIRSS/Generating-Clusters/LCBOP/Only-C1/SD-CG/HFTN-CG/FIRE-CG
REM
REM
REM
REM
REM
REM ./C.cell (11c1c37f851c82e70ff6c80c92926a4b)
REM AIRSS Version 0.9.1 bugfix July 2018 build 013d7b7c2542+ Fri, 06 Jul 2018 19:26:36 +0100
REM compiler GCC version 9.2.1 20190827 (Red Hat 9.2.1-1)
REM options -cpp -mtune=generic -march=x86-64 -g -O0 -fpre-include=/usr/include/finclude/math-vector-fortran.h
REM seed -2002974590 -135395009 732469816 619590311 -2047418809 -2111512260 1543136784 -450090984 1801114868 -1004534460 -679908725 198675730 -1422122906 108415697 -1743792917 149708854 -1764917196 606721744 1782931629 -1508264883 1096361878 -1683615113 -1481792144 1679503489 602721182 -741286316 -174102648 -273427778 821887740 -1762057679 2004751993 -2106698834 1639702601
REM
CELL 1.54180   50.00000   50.00000   50.00000   90.00000   90.00000   90.00000
LATT -1
SFAC C  
C      1  0.5105570000000  0.5310320000000  0.4902950000000 1.0
C      1  0.5039200000000  0.5515610000000  0.4723360000000 1.0
C      1  0.4894510000000  0.5148600000000  0.5007510000000 1.0
C      1  0.5162100000000  0.4307810000000  0.4643510000000 1.0
C      1  0.5824300000000  0.5324200000000  0.5112800000000 1.0
C      1  0.4749040000000  0.4972590000000  0.4836600000000 1.0
C      1  0.5370390000000  0.5258140000000  0.4971720000000 1.0
C      1  0.5622870000000  0.5156420000000  0.5034970000000 1.0
C      1  0.4600940000000  0.5488000000000  0.4499860000000 1.0
C      1  0.5666700000000  0.4880720000000  0.5017630000000 1.0
C      1  0.5328810000000  0.4107190000000  0.4596410000000 1.0
C      1  0.5496020000000  0.3912100000000  0.4552350000000 1.0
C      1  0.4765210000000  0.5177110000000  0.5535240000000 1.0
C      1  0.4467100000000  0.5269240000000  0.4575820000000 1.0
C      1  0.4700770000000  0.5189940000000  0.5791960000000 1.0
C      1  0.4840560000000  0.5591370000000  0.4560870000000 1.0
C      1  0.5698770000000  0.4622770000000  0.4998800000000 1.0
C      1  0.4865000000000  0.4730590000000  0.4758900000000 1.0
C      1  0.4636300000000  0.5202760000000  0.6048750000000 1.0
C      1  0.5005560000000  0.4514810000000  0.4697040000000 1.0
C      1  0.4489090000000  0.5043170000000  0.4741200000000 1.0
C      1  0.4572890000000  0.5215370000000  0.6301300000000 1.0
C      1  0.4269130000000  0.4897200000000  0.4811860000000 1.0
C      1  0.4829170000000  0.5163950000000  0.5278580000000 1.0
END
