TITL C-3866676-3738-407 0.0107194814525779 125000 -823.045111702672 0 0 134 (C1) n - 1
REM
REM in /home/nfs/bkarasulu/CARBON/AIRSS/Generating-Clusters/LCBOP/Only-C1/SD-CG/FIRE-CG
REM
REM
REM
REM
REM
REM ./C.cell (11c1c37f851c82e70ff6c80c92926a4b)
REM AIRSS Version 0.9.1 bugfix July 2018 build 013d7b7c2542+ Fri, 06 Jul 2018 19:26:36 +0100
REM compiler GCC version 9.2.1 20190827 (Red Hat 9.2.1-1)
REM options -cpp -mtune=generic -march=x86-64 -g -O0 -fpre-include=/usr/include/finclude/math-vector-fortran.h
REM seed 683562951 1223577137 2098516284 1791128519 -1021618724 -1570779334 1577206394 -1697007559 667726168 428682862 266558324 357426821 650001826 -607229769 1259446395 -1458762452 -534722151 777143397 823505398 -1717183688 -496901126 1732813954 -1260420924 1248934633 1197782890 318329390 421161056 971368832 306347162 646934979 -342170895 -1430197746 70184994
REM
CELL 1.54180   50.00000   50.00000   50.00000   90.00000   90.00000   90.00000
LATT -1
SFAC C  
C      1  0.4903040000000  0.4231180000000  0.5743920000000 1.0
C      1  0.5699450000000  0.4701870000000  0.5466320000000 1.0
C      1  0.6239310000000  0.4975530000000  0.5331780000000 1.0
C      1  0.4702330000000  0.4412470000000  0.5836810000000 1.0
C      1  0.5533430000000  0.5866090000000  0.5605410000000 1.0
C      1  0.4986270000000  0.4391750000000  0.4885820000000 1.0
C      1  0.5515380000000  0.4395210000000  0.4785350000000 1.0
C      1  0.5074460000000  0.4537370000000  0.4679430000000 1.0
C      1  0.4990980000000  0.4867060000000  0.5037700000000 1.0
C      1  0.5532190000000  0.5746900000000  0.5349150000000 1.0
C      1  0.5496800000000  0.4241380000000  0.5026810000000 1.0
C      1  0.5061630000000  0.6005930000000  0.5567680000000 1.0
C      1  0.4543360000000  0.5007600000000  0.4907190000000 1.0
C      1  0.6107410000000  0.4957700000000  0.5565120000000 1.0
C      1  0.5415880000000  0.4662550000000  0.5515300000000 1.0
C      1  0.5170310000000  0.4626580000000  0.4048440000000 1.0
C      1  0.4624920000000  0.4594220000000  0.4754760000000 1.0
C      1  0.3628360000000  0.4866800000000  0.5380360000000 1.0
C      1  0.5102850000000  0.4904820000000  0.4120640000000 1.0
C      1  0.4854440000000  0.4947520000000  0.3987620000000 1.0
C      1  0.5809240000000  0.5356750000000  0.5174130000000 1.0
C      1  0.4390780000000  0.5581350000000  0.5705410000000 1.0
C      1  0.4892290000000  0.4501290000000  0.4092770000000 1.0
C      1  0.4359680000000  0.5287410000000  0.4274020000000 1.0
C      1  0.4846220000000  0.4552540000000  0.5335290000000 1.0
C      1  0.4954160000000  0.5994470000000  0.4906960000000 1.0
C      1  0.4964670000000  0.4093910000000  0.4399040000000 1.0
C      1  0.5065760000000  0.4622020000000  0.6061810000000 1.0
C      1  0.5617490000000  0.4454390000000  0.3887740000000 1.0
C      1  0.4489500000000  0.5266930000000  0.4850310000000 1.0
C      1  0.5020080000000  0.5195740000000  0.4472110000000 1.0
C      1  0.4221930000000  0.4684910000000  0.5438470000000 1.0
C      1  0.4162840000000  0.4678880000000  0.4942150000000 1.0
C      1  0.4289290000000  0.4996100000000  0.4309690000000 1.0
C      1  0.4131600000000  0.4154210000000  0.5085420000000 1.0
C      1  0.4533980000000  0.5781290000000  0.5283050000000 1.0
C      1  0.4236520000000  0.5401440000000  0.4859060000000 1.0
C      1  0.5073820000000  0.3954550000000  0.4602680000000 1.0
C      1  0.4987920000000  0.5770250000000  0.5080840000000 1.0
C      1  0.4352140000000  0.4914630000000  0.5563920000000 1.0
C      1  0.4986810000000  0.4793200000000  0.5314980000000 1.0
C      1  0.4345520000000  0.5819910000000  0.5064070000000 1.0
C      1  0.4536450000000  0.5798300000000  0.5572680000000 1.0
C      1  0.5333350000000  0.5545420000000  0.5309280000000 1.0
C      1  0.5202660000000  0.5920580000000  0.4527730000000 1.0
C      1  0.4079050000000  0.4911610000000  0.4505370000000 1.0
C      1  0.4986150000000  0.5316240000000  0.4722130000000 1.0
C      1  0.4724120000000  0.5408450000000  0.4788910000000 1.0
C      1  0.3953810000000  0.4399180000000  0.4657640000000 1.0
C      1  0.5307030000000  0.5963620000000  0.5722210000000 1.0
C      1  0.4849720000000  0.5889330000000  0.4449590000000 1.0
C      1  0.4003780000000  0.4210340000000  0.4851590000000 1.0
C      1  0.5249480000000  0.5135010000000  0.5576700000000 1.0
C      1  0.4486900000000  0.5341320000000  0.5831600000000 1.0
C      1  0.4181190000000  0.5504310000000  0.4355760000000 1.0
C      1  0.5212690000000  0.4868790000000  0.5471790000000 1.0
C      1  0.5144030000000  0.4952630000000  0.4399220000000 1.0
C      1  0.5251480000000  0.4926730000000  0.4958350000000 1.0
C      1  0.5846430000000  0.5155350000000  0.4775510000000 1.0
C      1  0.4790450000000  0.5656680000000  0.5239140000000 1.0
C      1  0.4830810000000  0.4330090000000  0.4317290000000 1.0
C      1  0.4839860000000  0.5141620000000  0.6052920000000 1.0
C      1  0.5444760000000  0.5159460000000  0.5778810000000 1.0
C      1  0.4697780000000  0.5208600000000  0.5356700000000 1.0
C      1  0.4866790000000  0.5650870000000  0.5890710000000 1.0
C      1  0.5415730000000  0.5732060000000  0.4486300000000 1.0
C      1  0.4858070000000  0.4388980000000  0.5120910000000 1.0
C      1  0.4324650000000  0.4192440000000  0.5295000000000 1.0
C      1  0.4564470000000  0.4030190000000  0.5298710000000 1.0
C      1  0.3846300000000  0.4928430000000  0.5228240000000 1.0
C      1  0.3989970000000  0.5264060000000  0.4853520000000 1.0
C      1  0.4870910000000  0.5320970000000  0.4267400000000 1.0
C      1  0.5731770000000  0.5254600000000  0.4528300000000 1.0
C      1  0.4831250000000  0.3973310000000  0.5304470000000 1.0
C      1  0.5631590000000  0.5591460000000  0.4620440000000 1.0
C      1  0.4452060000000  0.5033080000000  0.5814010000000 1.0
C      1  0.4066450000000  0.4749160000000  0.5201420000000 1.0
C      1  0.5174950000000  0.6124100000000  0.5303560000000 1.0
C      1  0.3865570000000  0.5170060000000  0.5085780000000 1.0
C      1  0.4681630000000  0.4720300000000  0.4042190000000 1.0
C      1  0.4435700000000  0.4797330000000  0.4161860000000 1.0
C      1  0.5213860000000  0.5377550000000  0.4878580000000 1.0
C      1  0.6109480000000  0.4481330000000  0.4326880000000 1.0
C      1  0.6153010000000  0.4890180000000  0.5079510000000 1.0
C      1  0.5274680000000  0.4064880000000  0.5086270000000 1.0
C      1  0.4759390000000  0.5937780000000  0.4718640000000 1.0
C      1  0.5282830000000  0.4508770000000  0.5945420000000 1.0
C      1  0.6044620000000  0.4517650000000  0.4811850000000 1.0
C      1  0.6099260000000  0.5057790000000  0.4855840000000 1.0
C      1  0.5508610000000  0.4626490000000  0.4615080000000 1.0
C      1  0.5586720000000  0.4897420000000  0.4107450000000 1.0
C      1  0.4681790000000  0.5677080000000  0.4790350000000 1.0
C      1  0.5573020000000  0.5891860000000  0.5090860000000 1.0
C      1  0.5171620000000  0.3931220000000  0.4853230000000 1.0
C      1  0.4682040000000  0.4911800000000  0.5962080000000 1.0
C      1  0.4816480000000  0.5855580000000  0.5682870000000 1.0
C      1  0.4254240000000  0.5691630000000  0.4813920000000 1.0
C      1  0.5153430000000  0.5371470000000  0.5451020000000 1.0
C      1  0.5206130000000  0.5592210000000  0.5054590000000 1.0
C      1  0.5908110000000  0.5581260000000  0.5052340000000 1.0
C      1  0.5141650000000  0.4229220000000  0.5578110000000 1.0
C      1  0.5456010000000  0.4651280000000  0.4003380000000 1.0
C      1  0.6023820000000  0.4634650000000  0.5068130000000 1.0
C      1  0.5696530000000  0.5000890000000  0.4358750000000 1.0
C      1  0.4877080000000  0.5415950000000  0.5373370000000 1.0
C      1  0.5862630000000  0.4350930000000  0.3913610000000 1.0
C      1  0.4752050000000  0.5397320000000  0.5957720000000 1.0
C      1  0.5982510000000  0.4595940000000  0.4547760000000 1.0
C      1  0.5842210000000  0.4891650000000  0.5629060000000 1.0
C      1  0.5665000000000  0.5185950000000  0.4998230000000 1.0
C      1  0.5244280000000  0.4724890000000  0.4552680000000 1.0
C      1  0.4306210000000  0.4413040000000  0.5489000000000 1.0
C      1  0.5743000000000  0.4749900000000  0.4514270000000 1.0
C      1  0.4754060000000  0.4825590000000  0.4875110000000 1.0
C      1  0.5211200000000  0.6066540000000  0.4797370000000 1.0
C      1  0.5829370000000  0.4545180000000  0.5262450000000 1.0
C      1  0.5362100000000  0.6087800000000  0.5052110000000 1.0
C      1  0.6064710000000  0.4371610000000  0.4087620000000 1.0
C      1  0.5690630000000  0.5054350000000  0.5800910000000 1.0
C      1  0.4796000000000  0.4649890000000  0.5971230000000 1.0
C      1  0.5390850000000  0.5164620000000  0.4943570000000 1.0
C      1  0.4467100000000  0.5082140000000  0.5367730000000 1.0
C      1  0.4618940000000  0.5439240000000  0.4248790000000 1.0
C      1  0.4605760000000  0.5723780000000  0.4352840000000 1.0
C      1  0.4042130000000  0.4673690000000  0.4672320000000 1.0
C      1  0.4664540000000  0.4452720000000  0.4514910000000 1.0
C      1  0.5323140000000  0.4438230000000  0.5669790000000 1.0
C      1  0.5720680000000  0.5726610000000  0.4885240000000 1.0
C      1  0.4322570000000  0.5718860000000  0.4511900000000 1.0
C      1  0.4444540000000  0.4379650000000  0.5733530000000 1.0
C      1  0.3930560000000  0.5130860000000  0.4611680000000 1.0
C      1  0.5702280000000  0.4297630000000  0.5209430000000 1.0
C      1  0.4403620000000  0.4532850000000  0.4915380000000 1.0
C      1  0.5108070000000  0.4070850000000  0.5331930000000 1.0
END
