TITL C-3866673-4222-438 -6.01627263214502e-07 125000 -1021.43187856111 0 0 164 (C1) n - 1
REM
REM in /home/nfs/bkarasulu/CARBON/AIRSS/Generating-Clusters/LCBOP/Only-C1/SD-CG/FIRE-CG
REM
REM
REM
REM
REM
REM ./C.cell (11c1c37f851c82e70ff6c80c92926a4b)
REM AIRSS Version 0.9.1 bugfix July 2018 build 013d7b7c2542+ Fri, 06 Jul 2018 19:26:36 +0100
REM compiler GCC version 9.2.1 20190827 (Red Hat 9.2.1-1)
REM options -cpp -mtune=generic -march=x86-64 -g -O0 -fpre-include=/usr/include/finclude/math-vector-fortran.h
REM seed 281582911 821917746 -1304131375 -1776458627 1058793264 1639966847 -1137593926 2034179214 527641958 -157614131 966212592 706029561 1212862206 2003100194 468781667 -166515402 690970417 -1818323489 -1042219115 1688623838 -425274500 975273141 -1926614756 532297311 971545377 -1431432769 -2132620885 1342134649 1347223020 -1249855419 -1213838216 -1528547620 -1383474456
REM
CELL 1.54180   50.00000   50.00000   50.00000   90.00000   90.00000   90.00000
LATT -1
SFAC C  
C      1  0.4470910000000  0.5792280000000  0.4243420000000 1.0
C      1  0.4348620000000  0.3863900000000  0.4725400000000 1.0
C      1  0.5616430000000  0.5918970000000  0.4676980000000 1.0
C      1  0.5310720000000  0.4758170000000  0.6087160000000 1.0
C      1  0.5641860000000  0.5340150000000  0.4994500000000 1.0
C      1  0.4659420000000  0.5698200000000  0.4651390000000 1.0
C      1  0.3590790000000  0.4987810000000  0.5090490000000 1.0
C      1  0.5843550000000  0.4842850000000  0.4336420000000 1.0
C      1  0.5743870000000  0.6029760000000  0.5198530000000 1.0
C      1  0.3862280000000  0.4574410000000  0.5089000000000 1.0
C      1  0.5127850000000  0.4907720000000  0.5273750000000 1.0
C      1  0.4297030000000  0.4849240000000  0.4932290000000 1.0
C      1  0.4884990000000  0.4907580000000  0.5135330000000 1.0
C      1  0.5163000000000  0.4808460000000  0.5530630000000 1.0
C      1  0.5318800000000  0.5310430000000  0.5951070000000 1.0
C      1  0.4835150000000  0.5526130000000  0.5833840000000 1.0
C      1  0.5027700000000  0.4407540000000  0.4170570000000 1.0
C      1  0.5457750000000  0.5453290000000  0.5741650000000 1.0
C      1  0.5388400000000  0.4802870000000  0.4889420000000 1.0
C      1  0.4923020000000  0.5628670000000  0.4263100000000 1.0
C      1  0.5349750000000  0.5064230000000  0.4425190000000 1.0
C      1  0.3377740000000  0.5124870000000  0.5151580000000 1.0
C      1  0.4497580000000  0.5163190000000  0.5238650000000 1.0
C      1  0.4858670000000  0.5295080000000  0.3796340000000 1.0
C      1  0.4668800000000  0.4295240000000  0.5064340000000 1.0
C      1  0.5353600000000  0.4088710000000  0.5644360000000 1.0
C      1  0.5933940000000  0.4591840000000  0.4846310000000 1.0
C      1  0.4824590000000  0.3863540000000  0.5117520000000 1.0
C      1  0.5261020000000  0.3969290000000  0.5386200000000 1.0
C      1  0.5641930000000  0.4125950000000  0.5680220000000 1.0
C      1  0.5456430000000  0.4200250000000  0.4254910000000 1.0
C      1  0.4979180000000  0.4669260000000  0.4542660000000 1.0
C      1  0.4064100000000  0.5451320000000  0.4875640000000 1.0
C      1  0.4676790000000  0.5246150000000  0.5452000000000 1.0
C      1  0.4966710000000  0.4500740000000  0.4761670000000 1.0
C      1  0.4948300000000  0.5289490000000  0.5366380000000 1.0
C      1  0.5252160000000  0.6347340000000  0.5358270000000 1.0
C      1  0.4598700000000  0.5255670000000  0.4973530000000 1.0
C      1  0.5342600000000  0.6077080000000  0.5013840000000 1.0
C      1  0.4723900000000  0.4350710000000  0.4792610000000 1.0
C      1  0.4560590000000  0.4495980000000  0.4344480000000 1.0
C      1  0.5021480000000  0.4666420000000  0.6069440000000 1.0
C      1  0.3849250000000  0.4278850000000  0.4665050000000 1.0
C      1  0.4168310000000  0.5159600000000  0.4467560000000 1.0
C      1  0.6089350000000  0.5232340000000  0.4975280000000 1.0
C      1  0.4587020000000  0.3712620000000  0.4724810000000 1.0
C      1  0.5125830000000  0.4637180000000  0.4306440000000 1.0
C      1  0.5168640000000  0.4537130000000  0.4960210000000 1.0
C      1  0.5678230000000  0.4638160000000  0.5218560000000 1.0
C      1  0.5373190000000  0.5142870000000  0.3793510000000 1.0
C      1  0.6007030000000  0.4960920000000  0.4552360000000 1.0
C      1  0.5827790000000  0.4854460000000  0.5797400000000 1.0
C      1  0.5708900000000  0.5317730000000  0.4714540000000 1.0
C      1  0.5892470000000  0.5368580000000  0.5152430000000 1.0
C      1  0.6023960000000  0.4336500000000  0.4927990000000 1.0
C      1  0.4310250000000  0.4015940000000  0.5183400000000 1.0
C      1  0.5709500000000  0.5779240000000  0.5352170000000 1.0
C      1  0.5153010000000  0.5216760000000  0.4268150000000 1.0
C      1  0.4063050000000  0.4195850000000  0.4528000000000 1.0
C      1  0.4059860000000  0.5207590000000  0.4729570000000 1.0
C      1  0.4355700000000  0.5690460000000  0.5245920000000 1.0
C      1  0.4664880000000  0.4110370000000  0.4065990000000 1.0
C      1  0.5105070000000  0.4963250000000  0.5750780000000 1.0
C      1  0.5670450000000  0.4679230000000  0.4935720000000 1.0
C      1  0.5495670000000  0.6206610000000  0.5229430000000 1.0
C      1  0.5795390000000  0.4983590000000  0.4086370000000 1.0
C      1  0.4216000000000  0.4722990000000  0.5393760000000 1.0
C      1  0.5400280000000  0.5674500000000  0.4282000000000 1.0
C      1  0.5475580000000  0.4561810000000  0.5971590000000 1.0
C      1  0.5561960000000  0.5257410000000  0.4488830000000 1.0
C      1  0.4477790000000  0.5889520000000  0.4520310000000 1.0
C      1  0.4636240000000  0.4998910000000  0.5869880000000 1.0
C      1  0.5819690000000  0.5111560000000  0.5712860000000 1.0
C      1  0.4907440000000  0.5749920000000  0.4517810000000 1.0
C      1  0.5025490000000  0.3859050000000  0.4622260000000 1.0
C      1  0.5723140000000  0.4395240000000  0.5632300000000 1.0
C      1  0.4440080000000  0.4786550000000  0.5840980000000 1.0
C      1  0.5979290000000  0.5225960000000  0.4690550000000 1.0
C      1  0.5172880000000  0.5499270000000  0.4233490000000 1.0
C      1  0.4640030000000  0.5364950000000  0.3973550000000 1.0
C      1  0.5068230000000  0.5482990000000  0.4882250000000 1.0
C      1  0.5254240000000  0.4526980000000  0.5490560000000 1.0
C      1  0.5036010000000  0.6373430000000  0.5135750000000 1.0
C      1  0.4744550000000  0.6248550000000  0.4755000000000 1.0
C      1  0.6109520000000  0.4797210000000  0.4771940000000 1.0
C      1  0.4802960000000  0.6033530000000  0.5911360000000 1.0
C      1  0.4483130000000  0.6127210000000  0.4681890000000 1.0
C      1  0.4988930000000  0.3870370000000  0.5359240000000 1.0
C      1  0.4203320000000  0.3859210000000  0.4972310000000 1.0
C      1  0.4829140000000  0.5088650000000  0.4927410000000 1.0
C      1  0.4537800000000  0.4307920000000  0.4575470000000 1.0
C      1  0.5717710000000  0.5366140000000  0.5629140000000 1.0
C      1  0.5375010000000  0.4777730000000  0.4320480000000 1.0
C      1  0.4657430000000  0.5266760000000  0.5739120000000 1.0
C      1  0.5605260000000  0.4098960000000  0.4955160000000 1.0
C      1  0.5720990000000  0.4593270000000  0.5842250000000 1.0
C      1  0.4326700000000  0.4112270000000  0.4581230000000 1.0
C      1  0.4762940000000  0.6296330000000  0.5062830000000 1.0
C      1  0.4456880000000  0.4762680000000  0.4415960000000 1.0
C      1  0.5384270000000  0.5858590000000  0.4509250000000 1.0
C      1  0.4711530000000  0.5779660000000  0.5945500000000 1.0
C      1  0.5108520000000  0.5944940000000  0.4564460000000 1.0
C      1  0.4712490000000  0.4063510000000  0.5763420000000 1.0
C      1  0.5035220000000  0.5689730000000  0.5083390000000 1.0
C      1  0.5609570000000  0.5071770000000  0.3907330000000 1.0
C      1  0.5177850000000  0.4164820000000  0.4235970000000 1.0
C      1  0.4224850000000  0.4801840000000  0.5662400000000 1.0
C      1  0.4854440000000  0.5733510000000  0.5317450000000 1.0
C      1  0.5831930000000  0.5516110000000  0.5396610000000 1.0
C      1  0.5626200000000  0.4642590000000  0.4382770000000 1.0
C      1  0.5053750000000  0.5206130000000  0.4805670000000 1.0
C      1  0.4043120000000  0.4974400000000  0.4894290000000 1.0
C      1  0.5115810000000  0.5218510000000  0.3748200000000 1.0
C      1  0.5275770000000  0.5828660000000  0.5129210000000 1.0
C      1  0.4669450000000  0.5608560000000  0.4128260000000 1.0
C      1  0.5419690000000  0.5760180000000  0.5369240000000 1.0
C      1  0.4833450000000  0.3889290000000  0.5598570000000 1.0
C      1  0.4792030000000  0.4469910000000  0.5245800000000 1.0
C      1  0.4735650000000  0.4378370000000  0.4142910000000 1.0
C      1  0.5065050000000  0.5430880000000  0.6015400000000 1.0
C      1  0.4412460000000  0.4858300000000  0.5212780000000 1.0
C      1  0.5882410000000  0.4121910000000  0.5012990000000 1.0
C      1  0.4432830000000  0.4776510000000  0.4701250000000 1.0
C      1  0.4527820000000  0.4517670000000  0.5897390000000 1.0
C      1  0.5312880000000  0.5023270000000  0.5949740000000 1.0
C      1  0.5545480000000  0.4238650000000  0.4712980000000 1.0
C      1  0.5768760000000  0.5978690000000  0.4901580000000 1.0
C      1  0.4974710000000  0.6205860000000  0.5796070000000 1.0
C      1  0.4920620000000  0.5079390000000  0.4222780000000 1.0
C      1  0.5205210000000  0.5338910000000  0.5295560000000 1.0
C      1  0.5150780000000  0.6308430000000  0.5620540000000 1.0
C      1  0.5087770000000  0.4459600000000  0.5231940000000 1.0
C      1  0.4995600000000  0.4413670000000  0.5925290000000 1.0
C      1  0.5610580000000  0.5687130000000  0.4106670000000 1.0
C      1  0.3824000000000  0.4851780000000  0.5024660000000 1.0
C      1  0.4791930000000  0.3898690000000  0.4184920000000 1.0
C      1  0.5290050000000  0.5645770000000  0.5593640000000 1.0
C      1  0.4357000000000  0.5014530000000  0.4298230000000 1.0
C      1  0.4686130000000  0.4731260000000  0.5229550000000 1.0
C      1  0.5425380000000  0.5239340000000  0.5144220000000 1.0
C      1  0.4844810000000  0.3781680000000  0.4833030000000 1.0
C      1  0.5424560000000  0.3999660000000  0.5151170000000 1.0
C      1  0.5364340000000  0.4964750000000  0.5137740000000 1.0
C      1  0.4594400000000  0.4042200000000  0.5153180000000 1.0
C      1  0.4468300000000  0.5161010000000  0.4080320000000 1.0
C      1  0.4731820000000  0.4321080000000  0.5873900000000 1.0
C      1  0.5556800000000  0.4513250000000  0.5427780000000 1.0
C      1  0.3774980000000  0.4390380000000  0.4895890000000 1.0
C      1  0.4353200000000  0.6123060000000  0.4942940000000 1.0
C      1  0.5233730000000  0.4358490000000  0.5752960000000 1.0
C      1  0.6210860000000  0.4969620000000  0.4984570000000 1.0
C      1  0.5023780000000  0.3946240000000  0.4347560000000 1.0
C      1  0.4162500000000  0.5589710000000  0.5085780000000 1.0
C      1  0.4553360000000  0.6115570000000  0.5161760000000 1.0
C      1  0.5180500000000  0.6271240000000  0.4895520000000 1.0
C      1  0.5584140000000  0.4358940000000  0.4454930000000 1.0
C      1  0.4590770000000  0.5852090000000  0.5274150000000 1.0
C      1  0.5247960000000  0.5011260000000  0.4703440000000 1.0
C      1  0.4577300000000  0.5483190000000  0.4810150000000 1.0
C      1  0.4163340000000  0.4234910000000  0.5292430000000 1.0
C      1  0.4888650000000  0.4885580000000  0.5925860000000 1.0
C      1  0.5019350000000  0.6187910000000  0.4680040000000 1.0
C      1  0.4990420000000  0.5659010000000  0.5583820000000 1.0
C      1  0.4067000000000  0.4503400000000  0.5279970000000 1.0
END
