TITL C-3866669-3764-348 -5.05657842229741e-08 125000 -200.88355927377 0 0 34 (C1) n - 1
REM
REM in /home/nfs/bkarasulu/CARBON/AIRSS/Generating-Clusters/LCBOP/Only-C1/SD-CG/FIRE-CG
REM
REM
REM
REM
REM
REM ./C.cell (11c1c37f851c82e70ff6c80c92926a4b)
REM AIRSS Version 0.9.1 bugfix July 2018 build 013d7b7c2542+ Fri, 06 Jul 2018 19:26:36 +0100
REM compiler GCC version 9.2.1 20190827 (Red Hat 9.2.1-1)
REM options -cpp -mtune=generic -march=x86-64 -g -O0 -fpre-include=/usr/include/finclude/math-vector-fortran.h
REM seed 1476945863 -168013630 966410926 -1221886127 421628728 -26639426 413695002 -972063267 1150525076 -1188782075 -1026258 243235501 59204104 -1466703431 1672286482 -1587041059 500051541 -247428679 1962837762 -216778358 -1875335490 523062615 -1114156215 198313602 -1031130064 -1764679370 -235885861 75126565 557128741 -1104433275 -250733876 -130442347 984731500
REM
CELL 1.54180   50.00000   50.00000   50.00000   90.00000   90.00000   90.00000
LATT -1
SFAC C  
C      1  0.5371860000000  0.5463670000000  0.5269670000000 1.0
C      1  0.4833110000000  0.4763090000000  0.5407680000000 1.0
C      1  0.4503360000000  0.5062800000000  0.4711310000000 1.0
C      1  0.4674960000000  0.4614350000000  0.5216090000000 1.0
C      1  0.5199900000000  0.5201820000000  0.4894640000000 1.0
C      1  0.4817210000000  0.5025240000000  0.5520140000000 1.0
C      1  0.5244230000000  0.5195430000000  0.4006760000000 1.0
C      1  0.5369170000000  0.5235440000000  0.5120790000000 1.0
C      1  0.5139490000000  0.4495320000000  0.5168380000000 1.0
C      1  0.4867970000000  0.4451450000000  0.5074320000000 1.0
C      1  0.5451120000000  0.5249370000000  0.4456140000000 1.0
C      1  0.4405700000000  0.4611430000000  0.5187560000000 1.0
C      1  0.5535880000000  0.5014500000000  0.5177950000000 1.0
C      1  0.4601510000000  0.5712310000000  0.5618240000000 1.0
C      1  0.4974550000000  0.5059790000000  0.5755650000000 1.0
C      1  0.4727590000000  0.5249360000000  0.5370720000000 1.0
C      1  0.5323970000000  0.5099540000000  0.4655760000000 1.0
C      1  0.5253030000000  0.4692580000000  0.5651270000000 1.0
C      1  0.4202890000000  0.5274270000000  0.5050900000000 1.0
C      1  0.4784220000000  0.5026410000000  0.4671460000000 1.0
C      1  0.5187940000000  0.4901070000000  0.5813440000000 1.0
C      1  0.5542690000000  0.4752430000000  0.5117090000000 1.0
C      1  0.5099800000000  0.4631550000000  0.5423160000000 1.0
C      1  0.4445880000000  0.5196100000000  0.4959740000000 1.0
C      1  0.5300860000000  0.4617440000000  0.4724010000000 1.0
C      1  0.4942640000000  0.4881280000000  0.4487230000000 1.0
C      1  0.4905200000000  0.4895920000000  0.4209040000000 1.0
C      1  0.5416620000000  0.5286210000000  0.4192140000000 1.0
C      1  0.5350930000000  0.4579290000000  0.5000340000000 1.0
C      1  0.5031500000000  0.5030840000000  0.4013370000000 1.0
C      1  0.4662310000000  0.5487930000000  0.5500480000000 1.0
C      1  0.4916350000000  0.5166810000000  0.4900950000000 1.0
C      1  0.5210580000000  0.4843480000000  0.4583430000000 1.0
C      1  0.4705000000000  0.5231500000000  0.5090140000000 1.0
END
