TITL C-3866675-3766-588 0.195810213542873 125000 -1224.24013693217 0 0 198 (C1) n - 1
REM
REM in /home/nfs/bkarasulu/CARBON/AIRSS/Generating-Clusters/LCBOP/Only-C1/SD-CG/FIRE-CG
REM
REM
REM
REM
REM
REM ./C.cell (11c1c37f851c82e70ff6c80c92926a4b)
REM AIRSS Version 0.9.1 bugfix July 2018 build 013d7b7c2542+ Fri, 06 Jul 2018 19:26:36 +0100
REM compiler GCC version 9.2.1 20190827 (Red Hat 9.2.1-1)
REM options -cpp -mtune=generic -march=x86-64 -g -O0 -fpre-include=/usr/include/finclude/math-vector-fortran.h
REM seed -1669150883 253825318 1695353290 -835352499 -1835674481 -213425870 1298896664 931517984 337004693 1217680462 -1705634811 -1127381884 -520971994 1204614526 1301595843 1154891720 1128893415 57186281 -1144227350 -1098063806 679822672 1326911894 639006747 1027348990 1620498020 -500053904 -296716839 1287048956 500138340 -194791548 856908190 1968324351 -1856378536
REM
CELL 1.54180   50.00000   50.00000   50.00000   90.00000   90.00000   90.00000
LATT -1
SFAC C  
C      1  0.4346780000000  0.4565900000000  0.6120110000000 1.0
C      1  0.4887480000000  0.5939850000000  0.4419720000000 1.0
C      1  0.5206400000000  0.3971060000000  0.5607750000000 1.0
C      1  0.4963810000000  0.5461290000000  0.5160010000000 1.0
C      1  0.4800440000000  0.4234780000000  0.4078620000000 1.0
C      1  0.5267240000000  0.5372930000000  0.4192500000000 1.0
C      1  0.4931730000000  0.4642380000000  0.5226600000000 1.0
C      1  0.5626550000000  0.5253870000000  0.4497160000000 1.0
C      1  0.5336130000000  0.6171130000000  0.4758410000000 1.0
C      1  0.5122500000000  0.4778990000000  0.3877250000000 1.0
C      1  0.4716900000000  0.4942180000000  0.4068830000000 1.0
C      1  0.5482120000000  0.4304330000000  0.4166960000000 1.0
C      1  0.4975350000000  0.5990950000000  0.5348500000000 1.0
C      1  0.5409430000000  0.4549850000000  0.4664110000000 1.0
C      1  0.5241010000000  0.5891110000000  0.3760450000000 1.0
C      1  0.3856940000000  0.5679860000000  0.4664960000000 1.0
C      1  0.6076320000000  0.5023540000000  0.6064030000000 1.0
C      1  0.5164010000000  0.5336670000000  0.5580200000000 1.0
C      1  0.4745150000000  0.3554830000000  0.5207230000000 1.0
C      1  0.4247490000000  0.4419100000000  0.4993020000000 1.0
C      1  0.4264530000000  0.4545280000000  0.4533900000000 1.0
C      1  0.5697380000000  0.5361560000000  0.4766130000000 1.0
C      1  0.4743180000000  0.5084980000000  0.5626700000000 1.0
C      1  0.4181100000000  0.5206990000000  0.4306660000000 1.0
C      1  0.5728050000000  0.3839390000000  0.4054880000000 1.0
C      1  0.4835930000000  0.4939440000000  0.4517930000000 1.0
C      1  0.5901470000000  0.6041010000000  0.4581630000000 1.0
C      1  0.4424560000000  0.4101910000000  0.4649700000000 1.0
C      1  0.3704030000000  0.5528570000000  0.4496520000000 1.0
C      1  0.4249040000000  0.5197040000000  0.4578420000000 1.0
C      1  0.4475620000000  0.4646380000000  0.4366320000000 1.0
C      1  0.4965840000000  0.5782840000000  0.6028900000000 1.0
C      1  0.3965380000000  0.4908810000000  0.3690020000000 1.0
C      1  0.4280720000000  0.5576040000000  0.4905760000000 1.0
C      1  0.3975160000000  0.4488600000000  0.5041160000000 1.0
C      1  0.4837610000000  0.4702690000000  0.3935020000000 1.0
C      1  0.4566950000000  0.4997440000000  0.5087070000000 1.0
C      1  0.4351650000000  0.3718380000000  0.5698130000000 1.0
C      1  0.4226850000000  0.3500680000000  0.5768700000000 1.0
C      1  0.4915320000000  0.4137580000000  0.5963690000000 1.0
C      1  0.3870770000000  0.5166980000000  0.3668170000000 1.0
C      1  0.3811260000000  0.4784230000000  0.4509520000000 1.0
C      1  0.6708510000000  0.4437270000000  0.5114930000000 1.0
C      1  0.5566140000000  0.5723760000000  0.4389680000000 1.0
C      1  0.5104650000000  0.5084150000000  0.3867580000000 1.0
C      1  0.5362320000000  0.3646070000000  0.4988770000000 1.0
C      1  0.4881540000000  0.4911430000000  0.6277780000000 1.0
C      1  0.5780210000000  0.4963430000000  0.5679610000000 1.0
C      1  0.5327830000000  0.5943520000000  0.5663710000000 1.0
C      1  0.6120740000000  0.4772300000000  0.6150170000000 1.0
C      1  0.4624680000000  0.3959720000000  0.4541970000000 1.0
C      1  0.5569380000000  0.5854410000000  0.5776060000000 1.0
C      1  0.5271880000000  0.6010220000000  0.5375320000000 1.0
C      1  0.4505810000000  0.5048570000000  0.5782450000000 1.0
C      1  0.4665160000000  0.5116980000000  0.5348190000000 1.0
C      1  0.4941160000000  0.3747100000000  0.5197890000000 1.0
C      1  0.4851290000000  0.4182740000000  0.5411440000000 1.0
C      1  0.3987630000000  0.5565610000000  0.4893150000000 1.0
C      1  0.5449030000000  0.4920170000000  0.4971680000000 1.0
C      1  0.5899850000000  0.5257060000000  0.4371200000000 1.0
C      1  0.5301780000000  0.5931340000000  0.4889150000000 1.0
C      1  0.4013070000000  0.4607620000000  0.4394040000000 1.0
C      1  0.5824540000000  0.5533070000000  0.5255320000000 1.0
C      1  0.4978820000000  0.3921620000000  0.5423730000000 1.0
C      1  0.6016210000000  0.6273170000000  0.4610840000000 1.0
C      1  0.4477360000000  0.3940590000000  0.5627960000000 1.0
C      1  0.3666730000000  0.5249710000000  0.4528780000000 1.0
C      1  0.4804980000000  0.6296690000000  0.4991260000000 1.0
C      1  0.5371510000000  0.4344200000000  0.4843780000000 1.0
C      1  0.5228670000000  0.5036790000000  0.5098040000000 1.0
C      1  0.5624550000000  0.3942670000000  0.5288260000000 1.0
C      1  0.4606660000000  0.4215080000000  0.5587740000000 1.0
C      1  0.6094280000000  0.5506170000000  0.5150060000000 1.0
C      1  0.3922000000000  0.5456000000000  0.5992710000000 1.0
C      1  0.4616790000000  0.4501020000000  0.6054610000000 1.0
C      1  0.5944660000000  0.6097200000000  0.3895710000000 1.0
C      1  0.4402380000000  0.4383630000000  0.5448400000000 1.0
C      1  0.4488060000000  0.5724550000000  0.5043480000000 1.0
C      1  0.4153800000000  0.5447930000000  0.6136740000000 1.0
C      1  0.5061650000000  0.3955950000000  0.4746680000000 1.0
C      1  0.5687400000000  0.5308610000000  0.5372530000000 1.0
C      1  0.4938180000000  0.5704440000000  0.4570020000000 1.0
C      1  0.6334300000000  0.5428590000000  0.5276740000000 1.0
C      1  0.5439130000000  0.5346080000000  0.5510350000000 1.0
C      1  0.5786180000000  0.5787460000000  0.4570550000000 1.0
C      1  0.5987020000000  0.4178010000000  0.5034740000000 1.0
C      1  0.3753320000000  0.4863110000000  0.4797940000000 1.0
C      1  0.5661770000000  0.5761420000000  0.5198700000000 1.0
C      1  0.4878200000000  0.5430400000000  0.4477330000000 1.0
C      1  0.4690360000000  0.4291380000000  0.5877110000000 1.0
C      1  0.3749370000000  0.5033040000000  0.4353580000000 1.0
C      1  0.3953150000000  0.5100890000000  0.4139880000000 1.0
C      1  0.5523790000000  0.4986620000000  0.4516430000000 1.0
C      1  0.5354040000000  0.5209150000000  0.3967370000000 1.0
C      1  0.5159130000000  0.5718970000000  0.4758100000000 1.0
C      1  0.6496670000000  0.5250740000000  0.5149290000000 1.0
C      1  0.4315900000000  0.5582200000000  0.5634510000000 1.0
C      1  0.5032210000000  0.5095370000000  0.5667880000000 1.0
C      1  0.4769080000000  0.6098910000000  0.5185480000000 1.0
C      1  0.5422380000000  0.5907690000000  0.5152700000000 1.0
C      1  0.4130470000000  0.4878600000000  0.5480250000000 1.0
C      1  0.5837960000000  0.4732960000000  0.4221240000000 1.0
C      1  0.5040130000000  0.5971780000000  0.4187240000000 1.0
C      1  0.4399760000000  0.5363200000000  0.4754730000000 1.0
C      1  0.5906830000000  0.4878190000000  0.5200570000000 1.0
C      1  0.3702570000000  0.5156700000000  0.4802210000000 1.0
C      1  0.5732950000000  0.4159620000000  0.5125790000000 1.0
C      1  0.4311000000000  0.4346750000000  0.4727670000000 1.0
C      1  0.4632550000000  0.4877490000000  0.4335360000000 1.0
C      1  0.4446120000000  0.4494250000000  0.5187620000000 1.0
C      1  0.5159950000000  0.5307330000000  0.5004960000000 1.0
C      1  0.4836010000000  0.5172960000000  0.6325520000000 1.0
C      1  0.4128730000000  0.4407440000000  0.6045920000000 1.0
C      1  0.4812330000000  0.4674000000000  0.6171190000000 1.0
C      1  0.3915110000000  0.5347590000000  0.5500470000000 1.0
C      1  0.4630580000000  0.5205990000000  0.4850710000000 1.0
C      1  0.6402230000000  0.5090030000000  0.4932910000000 1.0
C      1  0.6875780000000  0.4245870000000  0.5172770000000 1.0
C      1  0.5160540000000  0.4154700000000  0.5828620000000 1.0
C      1  0.5978020000000  0.4675660000000  0.4730200000000 1.0
C      1  0.4307820000000  0.4838320000000  0.6175270000000 1.0
C      1  0.5261120000000  0.5458060000000  0.4771370000000 1.0
C      1  0.4021600000000  0.4842510000000  0.3964190000000 1.0
C      1  0.5030040000000  0.4384960000000  0.5310670000000 1.0
C      1  0.4802020000000  0.5637560000000  0.6182720000000 1.0
C      1  0.4737400000000  0.5585530000000  0.5049310000000 1.0
C      1  0.3858030000000  0.5288220000000  0.3917540000000 1.0
C      1  0.6535590000000  0.4629230000000  0.5056320000000 1.0
C      1  0.4694470000000  0.6623310000000  0.4652830000000 1.0
C      1  0.4301440000000  0.5847020000000  0.5609320000000 1.0
C      1  0.5497140000000  0.4806340000000  0.4725120000000 1.0
C      1  0.4421680000000  0.5062330000000  0.6052720000000 1.0
C      1  0.5177500000000  0.4862830000000  0.5576390000000 1.0
C      1  0.4819620000000  0.5193220000000  0.4640900000000 1.0
C      1  0.4673400000000  0.5398920000000  0.6255790000000 1.0
C      1  0.5212280000000  0.4547530000000  0.4461310000000 1.0
C      1  0.5266240000000  0.5916570000000  0.4032190000000 1.0
C      1  0.4018220000000  0.4943670000000  0.5212170000000 1.0
C      1  0.3857360000000  0.4746970000000  0.5041920000000 1.0
C      1  0.3793450000000  0.5418110000000  0.5752300000000 1.0
C      1  0.5801550000000  0.5046480000000  0.5405760000000 1.0
C      1  0.4110930000000  0.4613570000000  0.4103830000000 1.0
C      1  0.4905610000000  0.3972750000000  0.4498470000000 1.0
C      1  0.5987120000000  0.4550200000000  0.6075240000000 1.0
C      1  0.4667740000000  0.4469060000000  0.3981640000000 1.0
C      1  0.5551420000000  0.5004370000000  0.3943610000000 1.0
C      1  0.5112240000000  0.4853980000000  0.5289860000000 1.0
C      1  0.4342950000000  0.6016370000000  0.5406520000000 1.0
C      1  0.5594670000000  0.4564440000000  0.4116300000000 1.0
C      1  0.4266160000000  0.4965960000000  0.5029560000000 1.0
C      1  0.5895950000000  0.5139620000000  0.5880330000000 1.0
C      1  0.5996100000000  0.4804220000000  0.4474020000000 1.0
C      1  0.5224630000000  0.4317920000000  0.4293440000000 1.0
C      1  0.5414960000000  0.4065380000000  0.5442920000000 1.0
C      1  0.4998440000000  0.5515620000000  0.5436600000000 1.0
C      1  0.5829440000000  0.5412990000000  0.5898990000000 1.0
C      1  0.5817960000000  0.4960660000000  0.4032230000000 1.0
C      1  0.4205170000000  0.4971990000000  0.4747640000000 1.0
C      1  0.5568660000000  0.3701590000000  0.5153860000000 1.0
C      1  0.5521680000000  0.5881450000000  0.4154840000000 1.0
C      1  0.4991160000000  0.4148860000000  0.4275650000000 1.0
C      1  0.5503750000000  0.4331000000000  0.5085980000000 1.0
C      1  0.5877500000000  0.5580760000000  0.4740580000000 1.0
C      1  0.4872610000000  0.5178170000000  0.4022370000000 1.0
C      1  0.4409270000000  0.5323510000000  0.6168370000000 1.0
C      1  0.5409820000000  0.4739020000000  0.3949400000000 1.0
C      1  0.4751190000000  0.6366210000000  0.4724550000000 1.0
C      1  0.5429850000000  0.5453540000000  0.4425070000000 1.0
C      1  0.3831230000000  0.5335910000000  0.4994830000000 1.0
C      1  0.4927880000000  0.5771010000000  0.5538480000000 1.0
C      1  0.4144020000000  0.4367110000000  0.5561290000000 1.0
C      1  0.5106010000000  0.3763450000000  0.4957990000000 1.0
C      1  0.4031570000000  0.4347360000000  0.5803360000000 1.0
C      1  0.4195740000000  0.5340790000000  0.5569460000000 1.0
C      1  0.6092030000000  0.5089780000000  0.4507010000000 1.0
C      1  0.6343200000000  0.4819870000000  0.4996040000000 1.0
C      1  0.4656490000000  0.4694850000000  0.5138260000000 1.0
C      1  0.4758850000000  0.6159220000000  0.4535060000000 1.0
C      1  0.5633040000000  0.4729590000000  0.5755130000000 1.0
C      1  0.5265650000000  0.4422540000000  0.5810110000000 1.0
C      1  0.6225410000000  0.5224560000000  0.4743240000000 1.0
C      1  0.4401330000000  0.4538610000000  0.4097400000000 1.0
C      1  0.5610820000000  0.4066810000000  0.4104340000000 1.0
C      1  0.4977350000000  0.5363360000000  0.4218220000000 1.0
C      1  0.5318000000000  0.4310910000000  0.5305440000000 1.0
C      1  0.6062500000000  0.4762310000000  0.4989730000000 1.0
C      1  0.5351920000000  0.4679720000000  0.5715180000000 1.0
C      1  0.5743160000000  0.5997540000000  0.4027590000000 1.0
C      1  0.3878440000000  0.5216240000000  0.5247590000000 1.0
C      1  0.5114080000000  0.4224180000000  0.4826000000000 1.0
C      1  0.5780940000000  0.4536870000000  0.5902510000000 1.0
C      1  0.6110980000000  0.5477110000000  0.4859910000000 1.0
C      1  0.4891780000000  0.4385630000000  0.4828040000000 1.0
C      1  0.4278900000000  0.5075160000000  0.5616630000000 1.0
C      1  0.5047750000000  0.4767430000000  0.4484680000000 1.0
C      1  0.5074350000000  0.5845540000000  0.5780410000000 1.0
C      1  0.4508770000000  0.5971750000000  0.5185620000000 1.0
C      1  0.5729210000000  0.5658780000000  0.5865150000000 1.0
END
