TITL C-3866669-3764-410 149.508788496986 125000 -316.415861333093 0 0 54 (C1) n - 1
REM
REM in /home/nfs/bkarasulu/CARBON/AIRSS/Generating-Clusters/LCBOP/Only-C1/SD-CG/FIRE-CG
REM
REM
REM
REM
REM
REM ./C.cell (11c1c37f851c82e70ff6c80c92926a4b)
REM AIRSS Version 0.9.1 bugfix July 2018 build 013d7b7c2542+ Fri, 06 Jul 2018 19:26:36 +0100
REM compiler GCC version 9.2.1 20190827 (Red Hat 9.2.1-1)
REM options -cpp -mtune=generic -march=x86-64 -g -O0 -fpre-include=/usr/include/finclude/math-vector-fortran.h
REM seed 847602392 786271476 525582116 111855494 280173686 1627951566 -1012225765 2031415372 -844026633 -549007829 1382961320 1838289161 -714314168 -489019351 1633577547 -1496272752 -1314807881 -158331144 570936425 -1962109131 1487209162 397122403 -1525530853 -1768379003 940820312 -1411183802 -1043722589 -825082437 20204590 1645499695 -300841599 1797143782 1558080959
REM
CELL 1.54180   50.00000   50.00000   50.00000   90.00000   90.00000   90.00000
LATT -1
SFAC C  
C      1  0.5536540000000  0.4505090000000  0.4565400000000 1.0
C      1  0.5018660000000  0.4933950000000  0.4237170000000 1.0
C      1  0.4939970000000  0.4694030000000  0.5021930000000 1.0
C      1  0.5325800000000  0.4131680000000  0.5093770000000 1.0
C      1  0.5074080000000  0.4488070000000  0.4637960000000 1.0
C      1  0.4953800000000  0.5182830000000  0.5694020000000 1.0
C      1  0.5296890000000  0.4956070000000  0.5392880000000 1.0
C      1  0.5033950000000  0.5764810000000  0.4788030000000 1.0
C      1  0.4592350000000  0.4604960000000  0.5498740000000 1.0
C      1  0.4249200000000  0.5215450000000  0.4647580000000 1.0
C      1  0.4435360000000  0.4096270000000  0.4814590000000 1.0
C      1  0.5276320000000  0.4528450000000  0.4436880000000 1.0
C      1  0.4635220000000  0.5006730000000  0.5235140000000 1.0
C      1  0.5537920000000  0.4202430000000  0.4944110000000 1.0
C      1  0.4726360000000  0.4812530000000  0.4860520000000 1.0
C      1  0.4483700000000  0.5371310000000  0.4652690000000 1.0
C      1  0.5311270000000  0.5408320000000  0.4554810000000 1.0
C      1  0.4746680000000  0.5740950000000  0.4799880000000 1.0
C      1  0.5287880000000  0.4929670000000  0.4760000000000 1.0
C      1  0.5024420000000  0.4682430000000  0.5688840000000 1.0
C      1  0.4667760000000  0.5237470000000  0.5623070000000 1.0
C      1  0.4271330000000  0.4946870000000  0.4658900000000 1.0
C      1  0.5489340000000  0.4782830000000  0.5271270000000 1.0
C      1  0.5600950000000  0.4461840000000  0.4846270000000 1.0
C      1  0.4473500000000  0.4518060000000  0.5050280000000 1.0
C      1  0.4973590000000  0.4498770000000  0.5240570000000 1.0
C      1  0.4945330000000  0.5197800000000  0.5177220000000 1.0
C      1  0.4518550000000  0.4729820000000  0.5252260000000 1.0
C      1  0.4502140000000  0.4821870000000  0.4714070000000 1.0
C      1  0.5181930000000  0.5640820000000  0.4584190000000 1.0
C      1  0.4964520000000  0.5716040000000  0.5244490000000 1.0
C      1  0.5654290000000  0.5713430000000  0.5015300000000 1.0
C      1  0.5364510000000  0.5429380000000  0.5303900000000 1.0
C      1  0.5114650000000  0.4258550000000  0.5197640000000 1.0
C      1  0.5125790000000  0.5407880000000  0.5740110000000 1.0
C      1  0.5192290000000  0.4725360000000  0.4248390000000 1.0
C      1  0.4866630000000  0.4541680000000  0.5505370000000 1.0
C      1  0.4501700000000  0.5229140000000  0.5367050000000 1.0
C      1  0.5113360000000  0.4940610000000  0.5623240000000 1.0
C      1  0.4579610000000  0.4328150000000  0.4853720000000 1.0
C      1  0.5605420000000  0.4659900000000  0.5057150000000 1.0
C      1  0.5159740000000  0.5773530000000  0.5047220000000 1.0
C      1  0.5147530000000  0.4697190000000  0.4831010000000 1.0
C      1  0.5224280000000  0.5182730000000  0.5235740000000 1.0
C      1  0.4687050000000  0.5288940000000  0.4465840000000 1.0
C      1  0.4547950000000  0.5540450000000  0.4875040000000 1.0
C      1  0.5352800000000  0.5160810000000  0.4644750000000 1.0
C      1  0.4555580000000  0.5450280000000  0.5164450000000 1.0
C      1  0.5885190000000  0.5773980000000  0.4910770000000 1.0
C      1  0.5405290000000  0.5641310000000  0.5113650000000 1.0
C      1  0.4841460000000  0.5467950000000  0.5211680000000 1.0
C      1  0.4847780000000  0.5124310000000  0.4324210000000 1.0
C      1  0.5327990000000  0.5496130000000  0.5580200000000 1.0
C      1  0.4823790000000  0.4360070000000  0.4696030000000 1.0
END
