TITL C-3866676-3738-231 -115.662314866817 125000 -942.162753920344 0 0 156 (C1) n - 1
REM
REM in /home/nfs/bkarasulu/CARBON/AIRSS/Generating-Clusters/LCBOP/Only-C1/SD-CG/HFTN-CG/FIRE-CG
REM
REM
REM
REM
REM
REM ./C.cell (11c1c37f851c82e70ff6c80c92926a4b)
REM AIRSS Version 0.9.1 bugfix July 2018 build 013d7b7c2542+ Fri, 06 Jul 2018 19:26:36 +0100
REM compiler GCC version 9.2.1 20190827 (Red Hat 9.2.1-1)
REM options -cpp -mtune=generic -march=x86-64 -g -O0 -fpre-include=/usr/include/finclude/math-vector-fortran.h
REM seed -262590575 1245475119 -358028525 1706946957 1782627633 2021757661 292602301 89583636 -2060778111 1416276628 -56372435 594395351 -950375878 -1325767707 1523908384 -496914844 380060407 -243533447 -1876199439 -528587657 -340515915 -2006822367 -1044887391 -1642859482 -1745590876 315733640 -2144037724 540271103 627851513 802566586 -597278600 11624791 1325470728
REM
CELL 1.54180   50.00000   50.00000   50.00000   90.00000   90.00000   90.00000
LATT -1
SFAC C  
C      1  0.4443510000000  0.4952050000000  0.3855890000000 1.0
C      1  0.5431810000000  0.4166780000000  0.5614400000000 1.0
C      1  0.4998730000000  0.5776200000000  0.6169550000000 1.0
C      1  0.4533950000000  0.4489640000000  0.5546240000000 1.0
C      1  0.5565380000000  0.5246700000000  0.4254760000000 1.0
C      1  0.4575350000000  0.6089300000000  0.4401120000000 1.0
C      1  0.4831390000000  0.6030160000000  0.4325700000000 1.0
C      1  0.4103300000000  0.5047970000000  0.4863180000000 1.0
C      1  0.4337990000000  0.4840120000000  0.4888450000000 1.0
C      1  0.4590730000000  0.5345770000000  0.4097920000000 1.0
C      1  0.5291640000000  0.4600420000000  0.4521120000000 1.0
C      1  0.4108590000000  0.5472170000000  0.4471520000000 1.0
C      1  0.5068330000000  0.5011050000000  0.4540530000000 1.0
C      1  0.5631440000000  0.3975530000000  0.4914390000000 1.0
C      1  0.5305200000000  0.5311040000000  0.4119330000000 1.0
C      1  0.4729510000000  0.4227860000000  0.4806860000000 1.0
C      1  0.5417930000000  0.4443390000000  0.5013380000000 1.0
C      1  0.5520110000000  0.5447580000000  0.5887760000000 1.0
C      1  0.4218900000000  0.5836890000000  0.5042010000000 1.0
C      1  0.3890900000000  0.4730480000000  0.5312300000000 1.0
C      1  0.5034610000000  0.4991690000000  0.5927420000000 1.0
C      1  0.6179600000000  0.5349120000000  0.4944190000000 1.0
C      1  0.3916470000000  0.4141220000000  0.4909750000000 1.0
C      1  0.4837080000000  0.5309360000000  0.4234650000000 1.0
C      1  0.4392540000000  0.4719620000000  0.4023450000000 1.0
C      1  0.5254890000000  0.5460280000000  0.4775110000000 1.0
C      1  0.4104600000000  0.5570970000000  0.5013580000000 1.0
C      1  0.5148970000000  0.5087810000000  0.5328330000000 1.0
C      1  0.5020440000000  0.4903010000000  0.4258200000000 1.0
C      1  0.6001640000000  0.5342320000000  0.4712330000000 1.0
C      1  0.4385810000000  0.4803910000000  0.5876240000000 1.0
C      1  0.5748300000000  0.4762780000000  0.4530810000000 1.0
C      1  0.5585450000000  0.5865270000000  0.4715270000000 1.0
C      1  0.3872440000000  0.4330440000000  0.4721260000000 1.0
C      1  0.6057940000000  0.4549490000000  0.5255390000000 1.0
C      1  0.4993650000000  0.4640480000000  0.5249630000000 1.0
C      1  0.5298930000000  0.5793690000000  0.4310390000000 1.0
C      1  0.5682150000000  0.4235580000000  0.4500850000000 1.0
C      1  0.4885320000000  0.5529700000000  0.5263470000000 1.0
C      1  0.4587500000000  0.5628660000000  0.5616400000000 1.0
C      1  0.4659240000000  0.5001760000000  0.5275300000000 1.0
C      1  0.5249560000000  0.4127860000000  0.3947330000000 1.0
C      1  0.4759950000000  0.4422920000000  0.5968090000000 1.0
C      1  0.5372930000000  0.6038870000000  0.5130980000000 1.0
C      1  0.5226660000000  0.4573820000000  0.5433320000000 1.0
C      1  0.4798130000000  0.4718890000000  0.4303110000000 1.0
C      1  0.6443830000000  0.5281680000000  0.4932110000000 1.0
C      1  0.4432100000000  0.5091570000000  0.4477270000000 1.0
C      1  0.5457400000000  0.4853560000000  0.6105860000000 1.0
C      1  0.4602190000000  0.4904090000000  0.5019590000000 1.0
C      1  0.4439490000000  0.4849910000000  0.4597560000000 1.0
C      1  0.4664950000000  0.4305010000000  0.4099240000000 1.0
C      1  0.4132680000000  0.5105920000000  0.4150530000000 1.0
C      1  0.5201820000000  0.4059140000000  0.5476340000000 1.0
C      1  0.5650420000000  0.4338050000000  0.5677210000000 1.0
C      1  0.4649060000000  0.5461290000000  0.5397200000000 1.0
C      1  0.4671000000000  0.4140060000000  0.4313750000000 1.0
C      1  0.5253710000000  0.5596270000000  0.4110400000000 1.0
C      1  0.4706090000000  0.5821480000000  0.4792750000000 1.0
C      1  0.4509650000000  0.5223000000000  0.5356950000000 1.0
C      1  0.4999610000000  0.5630660000000  0.5932670000000 1.0
C      1  0.5623710000000  0.4768240000000  0.5912510000000 1.0
C      1  0.4151180000000  0.4800710000000  0.4182500000000 1.0
C      1  0.5031800000000  0.4690690000000  0.6298270000000 1.0
C      1  0.5711290000000  0.5030090000000  0.4944660000000 1.0
C      1  0.4941550000000  0.5791630000000  0.5236540000000 1.0
C      1  0.5459720000000  0.3835450000000  0.5090940000000 1.0
C      1  0.4237850000000  0.6003770000000  0.4802810000000 1.0
C      1  0.4783990000000  0.4762330000000  0.4848100000000 1.0
C      1  0.4480870000000  0.5057790000000  0.5961240000000 1.0
C      1  0.5787570000000  0.4482750000000  0.4454890000000 1.0
C      1  0.4627710000000  0.4584100000000  0.4113490000000 1.0
C      1  0.4367520000000  0.6090730000000  0.4578350000000 1.0
C      1  0.4731600000000  0.5533090000000  0.5851380000000 1.0
C      1  0.4129420000000  0.4580890000000  0.5238500000000 1.0
C      1  0.4950370000000  0.4188220000000  0.5526790000000 1.0
C      1  0.4214650000000  0.5918240000000  0.5739000000000 1.0
C      1  0.5672930000000  0.4551030000000  0.4974880000000 1.0
C      1  0.4390180000000  0.5828410000000  0.5548220000000 1.0
C      1  0.4027280000000  0.4733690000000  0.4445020000000 1.0
C      1  0.4565420000000  0.4211080000000  0.4566290000000 1.0
C      1  0.4612210000000  0.5295220000000  0.5963940000000 1.0
C      1  0.5813750000000  0.5579040000000  0.5094520000000 1.0
C      1  0.4760700000000  0.6209120000000  0.5049840000000 1.0
C      1  0.5342430000000  0.5950690000000  0.5385540000000 1.0
C      1  0.4016770000000  0.5218090000000  0.4392410000000 1.0
C      1  0.3980130000000  0.5001320000000  0.4593930000000 1.0
C      1  0.5275620000000  0.4337520000000  0.4100040000000 1.0
C      1  0.4554500000000  0.6149610000000  0.5216000000000 1.0
C      1  0.5557060000000  0.4785550000000  0.3852920000000 1.0
C      1  0.5709900000000  0.5501290000000  0.4350250000000 1.0
C      1  0.6124230000000  0.4124660000000  0.5823770000000 1.0
C      1  0.5552970000000  0.5744660000000  0.4448420000000 1.0
C      1  0.6103370000000  0.4779850000000  0.5389240000000 1.0
C      1  0.4115380000000  0.5282740000000  0.5045810000000 1.0
C      1  0.5021500000000  0.4176420000000  0.4799380000000 1.0
C      1  0.4057580000000  0.4469270000000  0.4557720000000 1.0
C      1  0.6071140000000  0.5031170000000  0.5482300000000 1.0
C      1  0.4740870000000  0.5365010000000  0.4718220000000 1.0
C      1  0.5540260000000  0.5525310000000  0.5453680000000 1.0
C      1  0.4162530000000  0.4761060000000  0.5692500000000 1.0
C      1  0.5887020000000  0.4399050000000  0.5086980000000 1.0
C      1  0.5059580000000  0.5153630000000  0.4110140000000 1.0
C      1  0.5977750000000  0.5468440000000  0.4457330000000 1.0
C      1  0.4295880000000  0.4572080000000  0.5021730000000 1.0
C      1  0.4118020000000  0.4037050000000  0.5055320000000 1.0
C      1  0.3913450000000  0.4837590000000  0.5569110000000 1.0
C      1  0.4236680000000  0.5221660000000  0.5295970000000 1.0
C      1  0.4370360000000  0.5196300000000  0.3995480000000 1.0
C      1  0.4853930000000  0.4501350000000  0.6222250000000 1.0
C      1  0.5721700000000  0.4782120000000  0.4820320000000 1.0
C      1  0.5354560000000  0.4561990000000  0.4244980000000 1.0
C      1  0.5487450000000  0.5359410000000  0.4717050000000 1.0
C      1  0.5737060000000  0.5240780000000  0.4765470000000 1.0
C      1  0.4871620000000  0.6042740000000  0.4849610000000 1.0
C      1  0.4269930000000  0.4568150000000  0.5487470000000 1.0
C      1  0.4375430000000  0.4082820000000  0.5124130000000 1.0
C      1  0.5708520000000  0.5413640000000  0.5658140000000 1.0
C      1  0.5367110000000  0.6005610000000  0.4846460000000 1.0
C      1  0.5635970000000  0.4953030000000  0.4314320000000 1.0
C      1  0.5594530000000  0.5134240000000  0.5179360000000 1.0
C      1  0.4559840000000  0.4569030000000  0.5830340000000 1.0
C      1  0.5120830000000  0.6037210000000  0.4707970000000 1.0
C      1  0.4309810000000  0.4335450000000  0.4548280000000 1.0
C      1  0.4693170000000  0.4724700000000  0.4576540000000 1.0
C      1  0.5093880000000  0.5965670000000  0.4426250000000 1.0
C      1  0.5092310000000  0.4580490000000  0.5690530000000 1.0
C      1  0.5418130000000  0.4988080000000  0.5338280000000 1.0
C      1  0.5186720000000  0.4312020000000  0.4987730000000 1.0
C      1  0.5462410000000  0.4730050000000  0.5451180000000 1.0
C      1  0.5989900000000  0.5303140000000  0.5461900000000 1.0
C      1  0.5512700000000  0.4767700000000  0.4121840000000 1.0
C      1  0.5078700000000  0.5336490000000  0.5228570000000 1.0
C      1  0.4565580000000  0.4311770000000  0.5064210000000 1.0
C      1  0.5043840000000  0.4727600000000  0.4939570000000 1.0
C      1  0.5191630000000  0.4800350000000  0.4699830000000 1.0
C      1  0.4896190000000  0.5248090000000  0.4523330000000 1.0
C      1  0.5622050000000  0.4626830000000  0.5667840000000 1.0
C      1  0.4969740000000  0.4847070000000  0.5695780000000 1.0
C      1  0.5894040000000  0.4226380000000  0.5756120000000 1.0
C      1  0.4373260000000  0.5934720000000  0.5276070000000 1.0
C      1  0.4580570000000  0.5591100000000  0.4704210000000 1.0
C      1  0.5599160000000  0.5425680000000  0.5204590000000 1.0
C      1  0.5517750000000  0.4060530000000  0.4657690000000 1.0
C      1  0.5269180000000  0.3871530000000  0.5277540000000 1.0
C      1  0.5783210000000  0.5773340000000  0.4896380000000 1.0
C      1  0.4334610000000  0.5580170000000  0.4567340000000 1.0
C      1  0.6047050000000  0.5434550000000  0.5193070000000 1.0
C      1  0.4954450000000  0.4346080000000  0.5772830000000 1.0
C      1  0.4912350000000  0.4912660000000  0.5398560000000 1.0
C      1  0.5179260000000  0.4879200000000  0.6146390000000 1.0
C      1  0.5224110000000  0.4045970000000  0.4630330000000 1.0
C      1  0.4755450000000  0.4396890000000  0.5319270000000 1.0
C      1  0.5854460000000  0.4121840000000  0.5026000000000 1.0
C      1  0.5349770000000  0.5718570000000  0.5546840000000 1.0
C      1  0.5264390000000  0.5604500000000  0.5809690000000 1.0
END
