TITL C-3866673-4222-144 5421.10938102854 125000 -794.436029620747 0 0 131 (C1) n - 1
REM
REM in /home/nfs/bkarasulu/CARBON/AIRSS/Generating-Clusters/LCBOP/Only-C1/SD-CG/HFTN-CG/FIRE-CG
REM
REM
REM
REM
REM
REM ./C.cell (11c1c37f851c82e70ff6c80c92926a4b)
REM AIRSS Version 0.9.1 bugfix July 2018 build 013d7b7c2542+ Fri, 06 Jul 2018 19:26:36 +0100
REM compiler GCC version 9.2.1 20190827 (Red Hat 9.2.1-1)
REM options -cpp -mtune=generic -march=x86-64 -g -O0 -fpre-include=/usr/include/finclude/math-vector-fortran.h
REM seed 1998140350 -722212948 916069327 268788657 -1687751796 -1308553192 799537196 -1662350976 504991994 -1330398024 763446363 2107350895 -529157024 -1190021231 331430554 1663163889 -301446124 1040357238 1407822245 297105299 -1128911797 922008200 -411979806 -1203502826 -842982669 -2109107449 52261979 -721909336 2109710708 18419876 1751474200 895899100 -502403429
REM
CELL 1.54180   50.00000   50.00000   50.00000   90.00000   90.00000   90.00000
LATT -1
SFAC C  
C      1  0.4944500000000  0.5356940000000  0.4655460000000 1.0
C      1  0.5706980000000  0.4419020000000  0.5086240000000 1.0
C      1  0.5085120000000  0.5158580000000  0.5959240000000 1.0
C      1  0.6124960000000  0.4704370000000  0.5005640000000 1.0
C      1  0.6240620000000  0.4926450000000  0.5110270000000 1.0
C      1  0.3859910000000  0.4828950000000  0.5484840000000 1.0
C      1  0.5358050000000  0.3869700000000  0.5382020000000 1.0
C      1  0.4762800000000  0.4936480000000  0.5331670000000 1.0
C      1  0.4758410000000  0.5160110000000  0.4540160000000 1.0
C      1  0.4955430000000  0.4764870000000  0.4722860000000 1.0
C      1  0.5532800000000  0.4195320000000  0.4694050000000 1.0
C      1  0.6337110000000  0.4524670000000  0.4344610000000 1.0
C      1  0.5523320000000  0.5471140000000  0.4320440000000 1.0
C      1  0.4084140000000  0.5161310000000  0.5006690000000 1.0
C      1  0.5360990000000  0.5505880000000  0.5188360000000 1.0
C      1  0.5776530000000  0.5116970000000  0.5172540000000 1.0
C      1  0.5227440000000  0.5520080000000  0.3958110000000 1.0
C      1  0.5513070000000  0.5187790000000  0.4349500000000 1.0
C      1  0.4308500000000  0.5155010000000  0.5966510000000 1.0
C      1  0.4135780000000  0.5597220000000  0.5393760000000 1.0
C      1  0.5031550000000  0.5202050000000  0.4259350000000 1.0
C      1  0.4486520000000  0.4761390000000  0.4736980000000 1.0
C      1  0.4343930000000  0.4242420000000  0.5466450000000 1.0
C      1  0.4281120000000  0.5431980000000  0.4690340000000 1.0
C      1  0.4252790000000  0.4447790000000  0.4428360000000 1.0
C      1  0.4537650000000  0.5362050000000  0.4802890000000 1.0
C      1  0.5178860000000  0.3951100000000  0.4912090000000 1.0
C      1  0.5570300000000  0.4977170000000  0.5834480000000 1.0
C      1  0.4128150000000  0.5205770000000  0.5746660000000 1.0
C      1  0.4557250000000  0.4534350000000  0.4108450000000 1.0
C      1  0.4727420000000  0.4769400000000  0.4138490000000 1.0
C      1  0.5412200000000  0.4653740000000  0.4793240000000 1.0
C      1  0.6032580000000  0.4538450000000  0.5428460000000 1.0
C      1  0.5098360000000  0.4327960000000  0.4574540000000 1.0
C      1  0.4607890000000  0.5378410000000  0.5338420000000 1.0
C      1  0.5915730000000  0.5480290000000  0.5459990000000 1.0
C      1  0.4083570000000  0.4989070000000  0.5565360000000 1.0
C      1  0.4803850000000  0.4251890000000  0.5377620000000 1.0
C      1  0.4597350000000  0.4319380000000  0.5566000000000 1.0
C      1  0.5256360000000  0.4115750000000  0.4691600000000 1.0
C      1  0.4472620000000  0.4738100000000  0.5021320000000 1.0
C      1  0.5752420000000  0.5314810000000  0.4969960000000 1.0
C      1  0.4669210000000  0.5514910000000  0.5577230000000 1.0
C      1  0.4657230000000  0.4497590000000  0.5784610000000 1.0
C      1  0.4723260000000  0.4902940000000  0.4665700000000 1.0
C      1  0.4561410000000  0.5272250000000  0.4082840000000 1.0
C      1  0.4273550000000  0.4147770000000  0.5223440000000 1.0
C      1  0.4592110000000  0.5172620000000  0.5932490000000 1.0
C      1  0.5576640000000  0.5805290000000  0.4925090000000 1.0
C      1  0.5013540000000  0.5956290000000  0.4082680000000 1.0
C      1  0.5322040000000  0.5129680000000  0.5787360000000 1.0
C      1  0.6439630000000  0.5173090000000  0.5485180000000 1.0
C      1  0.5243280000000  0.5121340000000  0.5485080000000 1.0
C      1  0.5824100000000  0.4969300000000  0.5655320000000 1.0
C      1  0.4837600000000  0.4710680000000  0.5849010000000 1.0
C      1  0.5507140000000  0.4004860000000  0.5566960000000 1.0
C      1  0.4710050000000  0.5429690000000  0.5842630000000 1.0
C      1  0.4205280000000  0.5089320000000  0.6211900000000 1.0
C      1  0.4435300000000  0.4103840000000  0.4721340000000 1.0
C      1  0.5967780000000  0.4520630000000  0.5153560000000 1.0
C      1  0.5955800000000  0.4882370000000  0.4398720000000 1.0
C      1  0.4443040000000  0.5480730000000  0.4248010000000 1.0
C      1  0.5421610000000  0.4879190000000  0.5407710000000 1.0
C      1  0.4095060000000  0.5462950000000  0.5625860000000 1.0
C      1  0.5601580000000  0.4439140000000  0.4824470000000 1.0
C      1  0.5634950000000  0.5867020000000  0.5219310000000 1.0
C      1  0.5499950000000  0.4362070000000  0.5280730000000 1.0
C      1  0.4247770000000  0.4654420000000  0.4617000000000 1.0
C      1  0.5231580000000  0.4783800000000  0.4221350000000 1.0
C      1  0.4973000000000  0.5429190000000  0.5957170000000 1.0
C      1  0.6221930000000  0.5091090000000  0.5342760000000 1.0
C      1  0.4668430000000  0.4313820000000  0.4288320000000 1.0
C      1  0.5227650000000  0.5265840000000  0.5223460000000 1.0
C      1  0.4524910000000  0.5482120000000  0.5086460000000 1.0
C      1  0.4755700000000  0.5862660000000  0.4088490000000 1.0
C      1  0.5227600000000  0.5998510000000  0.4517970000000 1.0
C      1  0.4292010000000  0.4980710000000  0.5375230000000 1.0
C      1  0.4924480000000  0.4471770000000  0.5233200000000 1.0
C      1  0.4111380000000  0.5426990000000  0.4922680000000 1.0
C      1  0.5261610000000  0.4656480000000  0.5501610000000 1.0
C      1  0.5009820000000  0.5352430000000  0.4017060000000 1.0
C      1  0.5374120000000  0.5653300000000  0.4165050000000 1.0
C      1  0.5580390000000  0.4914380000000  0.5177590000000 1.0
C      1  0.5536010000000  0.4689720000000  0.5911980000000 1.0
C      1  0.5386350000000  0.5750300000000  0.5342010000000 1.0
C      1  0.5250770000000  0.5898780000000  0.4243880000000 1.0
C      1  0.4756070000000  0.5353980000000  0.3892410000000 1.0
C      1  0.4026880000000  0.5181230000000  0.4393050000000 1.0
C      1  0.3916080000000  0.4978930000000  0.4542950000000 1.0
C      1  0.4336490000000  0.4086630000000  0.4970010000000 1.0
C      1  0.4989630000000  0.4640890000000  0.4207820000000 1.0
C      1  0.5093250000000  0.6014480000000  0.5708240000000 1.0
C      1  0.5936950000000  0.5169150000000  0.5429250000000 1.0
C      1  0.5745330000000  0.5043090000000  0.4402460000000 1.0
C      1  0.5039130000000  0.4740430000000  0.5650440000000 1.0
C      1  0.4458000000000  0.4243420000000  0.4480070000000 1.0
C      1  0.4619360000000  0.5720460000000  0.4302090000000 1.0
C      1  0.4725490000000  0.4697080000000  0.5176410000000 1.0
C      1  0.4545570000000  0.5104070000000  0.5370530000000 1.0
C      1  0.5102490000000  0.5757600000000  0.4880760000000 1.0
C      1  0.4951950000000  0.6156270000000  0.5875230000000 1.0
C      1  0.4274380000000  0.4534890000000  0.4154840000000 1.0
C      1  0.5419100000000  0.4892940000000  0.4941650000000 1.0
C      1  0.5668470000000  0.4499960000000  0.5734100000000 1.0
C      1  0.5553760000000  0.5512540000000  0.4959150000000 1.0
C      1  0.5217270000000  0.5094940000000  0.4989210000000 1.0
C      1  0.4762120000000  0.5802050000000  0.4547410000000 1.0
C      1  0.3809160000000  0.4704390000000  0.5243690000000 1.0
C      1  0.5266590000000  0.5053210000000  0.4293690000000 1.0
C      1  0.5339660000000  0.5893640000000  0.4772800000000 1.0
C      1  0.5581510000000  0.4281260000000  0.5556550000000 1.0
C      1  0.4227540000000  0.5386260000000  0.4420600000000 1.0
C      1  0.5884860000000  0.4670540000000  0.5625460000000 1.0
C      1  0.5222640000000  0.4470270000000  0.5289210000000 1.0
C      1  0.4973840000000  0.4981060000000  0.5500210000000 1.0
C      1  0.4242980000000  0.5578100000000  0.5131790000000 1.0
C      1  0.4705580000000  0.5413370000000  0.3632500000000 1.0
C      1  0.3972460000000  0.4721560000000  0.5006480000000 1.0
C      1  0.4824310000000  0.4981450000000  0.5969680000000 1.0
C      1  0.5229680000000  0.5864350000000  0.5537810000000 1.0
C      1  0.4633860000000  0.5032740000000  0.4209490000000 1.0
C      1  0.5854120000000  0.5726920000000  0.5354710000000 1.0
C      1  0.4930650000000  0.6045910000000  0.4545340000000 1.0
C      1  0.4945840000000  0.4375120000000  0.4337930000000 1.0
C      1  0.4209800000000  0.4893480000000  0.5102920000000 1.0
C      1  0.6150450000000  0.4705090000000  0.4368270000000 1.0
C      1  0.5146410000000  0.3908700000000  0.5193660000000 1.0
C      1  0.3997460000000  0.4759030000000  0.4712200000000 1.0
C      1  0.4911820000000  0.5625660000000  0.4720460000000 1.0
C      1  0.4903170000000  0.3998410000000  0.5309520000000 1.0
C      1  0.5156240000000  0.4578430000000  0.4702440000000 1.0
END
