TITL C-3866676-3738-629 191870.726856554 125000 -1135.66380364257 0 0 186 (C1) n - 1
REM
REM in /home/nfs/bkarasulu/CARBON/AIRSS/Generating-Clusters/LCBOP/Only-C1/SD-CG/FIRE-CG
REM
REM
REM
REM
REM
REM ./C.cell (11c1c37f851c82e70ff6c80c92926a4b)
REM AIRSS Version 0.9.1 bugfix July 2018 build 013d7b7c2542+ Fri, 06 Jul 2018 19:26:36 +0100
REM compiler GCC version 9.2.1 20190827 (Red Hat 9.2.1-1)
REM options -cpp -mtune=generic -march=x86-64 -g -O0 -fpre-include=/usr/include/finclude/math-vector-fortran.h
REM seed -54460945 219442401 -1570459534 -1687513867 -2028794483 168710056 -1981116983 975075215 189060691 -919872454 1525762907 -1225845805 -291456369 -2012268226 -1603710791 213792345 784545547 -1011301011 -1207473110 339082046 188250916 2045927853 -1549701098 -1895886760 -1803141681 1826234634 159576658 -59828342 -457134716 783494154 -774131252 -1705240919 -153153273
REM
CELL 1.54180   50.00000   50.00000   50.00000   90.00000   90.00000   90.00000
LATT -1
SFAC C  
C      1  0.4946420000000  0.5568500000000  0.4989370000000 1.0
C      1  0.5738030000000  0.5056830000000  0.5301250000000 1.0
C      1  0.4664640000000  0.5492720000000  0.4963330000000 1.0
C      1  0.6131970000000  0.5708560000000  0.5717820000000 1.0
C      1  0.4592770000000  0.4775910000000  0.4955890000000 1.0
C      1  0.5107070000000  0.6005060000000  0.5019460000000 1.0
C      1  0.5466760000000  0.5668910000000  0.3659740000000 1.0
C      1  0.4813330000000  0.5588160000000  0.3901490000000 1.0
C      1  0.3852010000000  0.4673010000000  0.5285510000000 1.0
C      1  0.5360640000000  0.5634410000000  0.5210750000000 1.0
C      1  0.5298120000000  0.4499590000000  0.3993260000000 1.0
C      1  0.5063670000000  0.4509940000000  0.6001780000000 1.0
C      1  0.6360790000000  0.5621380000000  0.5609640000000 1.0
C      1  0.5653970000000  0.4382140000000  0.4692790000000 1.0
C      1  0.4741390000000  0.5185910000000  0.6283040000000 1.0
C      1  0.5754160000000  0.5439600000000  0.4397710000000 1.0
C      1  0.5259060000000  0.4710270000000  0.5265730000000 1.0
C      1  0.5070740000000  0.4764450000000  0.4808870000000 1.0
C      1  0.5513800000000  0.3950000000000  0.4827840000000 1.0
C      1  0.5438020000000  0.5580040000000  0.4707980000000 1.0
C      1  0.3829610000000  0.4880580000000  0.4718770000000 1.0
C      1  0.4684950000000  0.4890530000000  0.4507650000000 1.0
C      1  0.5163150000000  0.3925440000000  0.5637590000000 1.0
C      1  0.4929670000000  0.5034770000000  0.6125680000000 1.0
C      1  0.3726360000000  0.4615790000000  0.4810120000000 1.0
C      1  0.4153040000000  0.5032940000000  0.5382110000000 1.0
C      1  0.4252840000000  0.5786900000000  0.5460450000000 1.0
C      1  0.3605930000000  0.4445550000000  0.5920700000000 1.0
C      1  0.4385750000000  0.4862070000000  0.5375390000000 1.0
C      1  0.5701110000000  0.5539360000000  0.5574550000000 1.0
C      1  0.5174840000000  0.5511080000000  0.4810160000000 1.0
C      1  0.6266040000000  0.4788540000000  0.5021040000000 1.0
C      1  0.5653590000000  0.5395200000000  0.4667170000000 1.0
C      1  0.5610890000000  0.5261060000000  0.3924040000000 1.0
C      1  0.4645310000000  0.5776720000000  0.5829630000000 1.0
C      1  0.5871990000000  0.4521660000000  0.4579440000000 1.0
C      1  0.5393480000000  0.4870050000000  0.5976010000000 1.0
C      1  0.5540430000000  0.4798640000000  0.4886300000000 1.0
C      1  0.4898400000000  0.4542020000000  0.5494430000000 1.0
C      1  0.6129580000000  0.6030990000000  0.5035210000000 1.0
C      1  0.5708390000000  0.4872460000000  0.5096890000000 1.0
C      1  0.5056760000000  0.5633080000000  0.5283330000000 1.0
C      1  0.4335140000000  0.4217750000000  0.5345440000000 1.0
C      1  0.4651730000000  0.5222660000000  0.5040030000000 1.0
C      1  0.4437180000000  0.5692470000000  0.6007490000000 1.0
C      1  0.4374930000000  0.5869620000000  0.4822010000000 1.0
C      1  0.4520020000000  0.4442980000000  0.4137320000000 1.0
C      1  0.6021790000000  0.4743120000000  0.4612850000000 1.0
C      1  0.3944740000000  0.4939390000000  0.5217370000000 1.0
C      1  0.5593190000000  0.5513080000000  0.5308160000000 1.0
C      1  0.4625240000000  0.4989250000000  0.5464410000000 1.0
C      1  0.5037840000000  0.5166570000000  0.5326360000000 1.0
C      1  0.3873590000000  0.5468300000000  0.4677790000000 1.0
C      1  0.4238790000000  0.4705620000000  0.4629620000000 1.0
C      1  0.4166900000000  0.5293710000000  0.5502070000000 1.0
C      1  0.5529170000000  0.4512240000000  0.4910090000000 1.0
C      1  0.3955570000000  0.4511530000000  0.5511040000000 1.0
C      1  0.5975240000000  0.5621740000000  0.4400000000000 1.0
C      1  0.4232050000000  0.5293920000000  0.4424090000000 1.0
C      1  0.5282490000000  0.5392550000000  0.6013820000000 1.0
C      1  0.5037030000000  0.4304350000000  0.4751740000000 1.0
C      1  0.5305700000000  0.5023320000000  0.4504270000000 1.0
C      1  0.4797040000000  0.4475790000000  0.6097280000000 1.0
C      1  0.4494910000000  0.5261230000000  0.6190720000000 1.0
C      1  0.5045560000000  0.5823800000000  0.4520970000000 1.0
C      1  0.5816560000000  0.5306050000000  0.4884840000000 1.0
C      1  0.5776020000000  0.4165990000000  0.5272930000000 1.0
C      1  0.5323330000000  0.4218980000000  0.5258250000000 1.0
C      1  0.5725760000000  0.5312190000000  0.5160740000000 1.0
C      1  0.5688130000000  0.4012690000000  0.5059410000000 1.0
C      1  0.4654780000000  0.5175330000000  0.3797210000000 1.0
C      1  0.4772000000000  0.4300240000000  0.5461910000000 1.0
C      1  0.5712030000000  0.6011770000000  0.4815230000000 1.0
C      1  0.5386510000000  0.5070500000000  0.3889100000000 1.0
C      1  0.4597610000000  0.4411490000000  0.4413370000000 1.0
C      1  0.4546160000000  0.4206770000000  0.4615920000000 1.0
C      1  0.4886000000000  0.5603350000000  0.5869360000000 1.0
C      1  0.4804870000000  0.5413480000000  0.4354330000000 1.0
C      1  0.4752520000000  0.3801540000000  0.4825370000000 1.0
C      1  0.5291370000000  0.6008640000000  0.5500380000000 1.0
C      1  0.5034470000000  0.5950750000000  0.5308070000000 1.0
C      1  0.4394610000000  0.4518340000000  0.5780450000000 1.0
C      1  0.4133410000000  0.5539600000000  0.5344130000000 1.0
C      1  0.5216940000000  0.5106350000000  0.6043330000000 1.0
C      1  0.5082430000000  0.5019020000000  0.4334580000000 1.0
C      1  0.4184260000000  0.3726010000000  0.5369130000000 1.0
C      1  0.4424170000000  0.4663840000000  0.5158340000000 1.0
C      1  0.4814090000000  0.4189080000000  0.5208290000000 1.0
C      1  0.5288790000000  0.3775530000000  0.4847860000000 1.0
C      1  0.3897580000000  0.5063080000000  0.4952830000000 1.0
C      1  0.3988810000000  0.5687970000000  0.4253840000000 1.0
C      1  0.4817850000000  0.4811960000000  0.3976650000000 1.0
C      1  0.4875240000000  0.3888050000000  0.5662670000000 1.0
C      1  0.6298860000000  0.5353850000000  0.4929430000000 1.0
C      1  0.4640010000000  0.5488750000000  0.4125920000000 1.0
C      1  0.4384110000000  0.5411240000000  0.5975570000000 1.0
C      1  0.3960540000000  0.5346110000000  0.4917710000000 1.0
C      1  0.3670430000000  0.4580940000000  0.5087420000000 1.0
C      1  0.4754340000000  0.6162390000000  0.4717860000000 1.0
C      1  0.6071490000000  0.5811570000000  0.4570590000000 1.0
C      1  0.4989510000000  0.6008660000000  0.4748420000000 1.0
C      1  0.5586170000000  0.4799710000000  0.5743940000000 1.0
C      1  0.4477200000000  0.5259420000000  0.4013960000000 1.0
C      1  0.4531030000000  0.5776850000000  0.5554810000000 1.0
C      1  0.4349330000000  0.5171920000000  0.4655230000000 1.0
C      1  0.5261290000000  0.5453200000000  0.4178610000000 1.0
C      1  0.4976900000000  0.4664340000000  0.5259580000000 1.0
C      1  0.4379960000000  0.4373370000000  0.5109890000000 1.0
C      1  0.5113250000000  0.4125710000000  0.4258170000000 1.0
C      1  0.4559270000000  0.3805770000000  0.5036660000000 1.0
C      1  0.5498900000000  0.4355210000000  0.4150230000000 1.0
C      1  0.6068010000000  0.4526960000000  0.5413930000000 1.0
C      1  0.5993080000000  0.5969640000000  0.4794760000000 1.0
C      1  0.5054150000000  0.5575530000000  0.4359850000000 1.0
C      1  0.5502270000000  0.4281250000000  0.5807730000000 1.0
C      1  0.4160290000000  0.5500260000000  0.5061810000000 1.0
C      1  0.4160110000000  0.4442680000000  0.4701020000000 1.0
C      1  0.6233820000000  0.4654250000000  0.5248970000000 1.0
C      1  0.4027190000000  0.5488410000000  0.4443100000000 1.0
C      1  0.4275100000000  0.5145410000000  0.4179680000000 1.0
C      1  0.4306910000000  0.4641690000000  0.4101550000000 1.0
C      1  0.5542220000000  0.5848980000000  0.4642510000000 1.0
C      1  0.4909180000000  0.5321820000000  0.3803660000000 1.0
C      1  0.5563770000000  0.5396670000000  0.4186770000000 1.0
C      1  0.4402200000000  0.5617180000000  0.4940750000000 1.0
C      1  0.4497140000000  0.6092960000000  0.4743550000000 1.0
C      1  0.6133990000000  0.4916260000000  0.4805680000000 1.0
C      1  0.4462340000000  0.4894150000000  0.4707360000000 1.0
C      1  0.5696510000000  0.5030360000000  0.5588250000000 1.0
C      1  0.5834910000000  0.6000570000000  0.5468900000000 1.0
C      1  0.4760490000000  0.4364510000000  0.3983930000000 1.0
C      1  0.5362600000000  0.5872590000000  0.5034460000000 1.0
C      1  0.5573450000000  0.6072980000000  0.5367230000000 1.0
C      1  0.5641520000000  0.4497540000000  0.5670080000000 1.0
C      1  0.5715330000000  0.5289380000000  0.5712920000000 1.0
C      1  0.4751700000000  0.4142190000000  0.5692890000000 1.0
C      1  0.5629300000000  0.5458010000000  0.3715580000000 1.0
C      1  0.5335320000000  0.4064980000000  0.5822540000000 1.0
C      1  0.5392080000000  0.4472870000000  0.5159800000000 1.0
C      1  0.5251750000000  0.3987710000000  0.5375180000000 1.0
C      1  0.4832960000000  0.5129130000000  0.4425130000000 1.0
C      1  0.5052340000000  0.4861570000000  0.4104480000000 1.0
C      1  0.4710310000000  0.3971620000000  0.4595140000000 1.0
C      1  0.4363290000000  0.4292980000000  0.4827960000000 1.0
C      1  0.5579890000000  0.6048630000000  0.5070300000000 1.0
C      1  0.4943200000000  0.4199380000000  0.4977210000000 1.0
C      1  0.6471100000000  0.5534880000000  0.5382590000000 1.0
C      1  0.6442210000000  0.5453830000000  0.5130460000000 1.0
C      1  0.4026430000000  0.4844650000000  0.4484880000000 1.0
C      1  0.5280130000000  0.5864310000000  0.5759000000000 1.0
C      1  0.5159800000000  0.5271470000000  0.3933700000000 1.0
C      1  0.5044610000000  0.4327630000000  0.4044360000000 1.0
C      1  0.4871500000000  0.4746130000000  0.5010730000000 1.0
C      1  0.5261670000000  0.4994240000000  0.5319240000000 1.0
C      1  0.4672560000000  0.3754110000000  0.5503450000000 1.0
C      1  0.3982060000000  0.5884190000000  0.4082470000000 1.0
C      1  0.3881670000000  0.4401370000000  0.4702800000000 1.0
C      1  0.4889870000000  0.5331940000000  0.5736570000000 1.0
C      1  0.5822610000000  0.4393410000000  0.5455460000000 1.0
C      1  0.5235040000000  0.5798700000000  0.3709630000000 1.0
C      1  0.5057280000000  0.4554190000000  0.5721890000000 1.0
C      1  0.5289290000000  0.4636100000000  0.6115090000000 1.0
C      1  0.5313910000000  0.4900810000000  0.4754810000000 1.0
C      1  0.5394490000000  0.4162460000000  0.4348180000000 1.0
C      1  0.4779100000000  0.4618300000000  0.4482500000000 1.0
C      1  0.4736140000000  0.5075990000000  0.5713340000000 1.0
C      1  0.4370300000000  0.5338730000000  0.5691660000000 1.0
C      1  0.4910490000000  0.3976200000000  0.4388930000000 1.0
C      1  0.4972850000000  0.5423330000000  0.5453640000000 1.0
C      1  0.5006560000000  0.4552700000000  0.4630760000000 1.0
C      1  0.5169940000000  0.5647860000000  0.5915380000000 1.0
C      1  0.4604000000000  0.4639190000000  0.5951860000000 1.0
C      1  0.5024700000000  0.3716020000000  0.4860140000000 1.0
C      1  0.3768410000000  0.4464230000000  0.5717800000000 1.0
C      1  0.4227520000000  0.4394010000000  0.5561570000000 1.0
C      1  0.5871200000000  0.5762670000000  0.5625370000000 1.0
C      1  0.4776120000000  0.5089780000000  0.5248940000000 1.0
C      1  0.4747470000000  0.4898870000000  0.5931820000000 1.0
C      1  0.4443820000000  0.3869320000000  0.5317100000000 1.0
C      1  0.4984010000000  0.5794980000000  0.3812810000000 1.0
C      1  0.4598640000000  0.5514720000000  0.5474190000000 1.0
C      1  0.6081530000000  0.5196740000000  0.4842060000000 1.0
C      1  0.5528180000000  0.4140360000000  0.4605100000000 1.0
C      1  0.4162170000000  0.4876360000000  0.4211510000000 1.0
C      1  0.5295010000000  0.4794820000000  0.3963310000000 1.0
C      1  0.6052710000000  0.6065900000000  0.5292940000000 1.0
END
