TITL C-3866670-4165-35 -0.000151309425201404 125000 -407.679246574067 0 0 67 (C1) n - 1
REM
REM in /home/nfs/bkarasulu/CARBON/AIRSS/Generating-Clusters/LCBOP/Only-C1/SD-CG/HFTN-CG/FIRE-CG
REM
REM
REM
REM
REM
REM ./C.cell (11c1c37f851c82e70ff6c80c92926a4b)
REM AIRSS Version 0.9.1 bugfix July 2018 build 013d7b7c2542+ Fri, 06 Jul 2018 19:26:36 +0100
REM compiler GCC version 9.2.1 20190827 (Red Hat 9.2.1-1)
REM options -cpp -mtune=generic -march=x86-64 -g -O0 -fpre-include=/usr/include/finclude/math-vector-fortran.h
REM seed 1465452085 889430648 236905210 1127880569 -1533955393 1589867078 570401 1750663362 -101340721 -5755230 -84333161 -928873135 2121014795 -631995403 -1852343374 -1722394165 2110542463 -1676934634 87450485 1058960543 2089957309 597863390 1773348637 878847017 1094495756 1242368263 667077070 118111754 -1173757422 1754928332 -2065269509 660500283 1896406650
REM
CELL 1.54180   50.00000   50.00000   50.00000   90.00000   90.00000   90.00000
LATT -1
SFAC C  
C      1  0.5606780000000  0.5611240000000  0.4995110000000 1.0
C      1  0.5114320000000  0.5537220000000  0.4534850000000 1.0
C      1  0.5161950000000  0.4165920000000  0.4901440000000 1.0
C      1  0.4182610000000  0.5020200000000  0.4946270000000 1.0
C      1  0.5002440000000  0.5209460000000  0.5983270000000 1.0
C      1  0.5675020000000  0.4671190000000  0.5066380000000 1.0
C      1  0.5228790000000  0.4233480000000  0.4636360000000 1.0
C      1  0.5504460000000  0.5154800000000  0.4500900000000 1.0
C      1  0.4276740000000  0.5469590000000  0.5055320000000 1.0
C      1  0.4570490000000  0.4696830000000  0.5646970000000 1.0
C      1  0.4910060000000  0.5232920000000  0.4903020000000 1.0
C      1  0.5120990000000  0.5442710000000  0.5556070000000 1.0
C      1  0.4672050000000  0.4925400000000  0.6194700000000 1.0
C      1  0.5442350000000  0.5066690000000  0.4237020000000 1.0
C      1  0.4937570000000  0.5658840000000  0.4738650000000 1.0
C      1  0.5712630000000  0.5075210000000  0.5403140000000 1.0
C      1  0.5087510000000  0.4764900000000  0.4405260000000 1.0
C      1  0.4834310000000  0.4916140000000  0.5256280000000 1.0
C      1  0.4705210000000  0.4943580000000  0.5708710000000 1.0
C      1  0.5627000000000  0.4505450000000  0.5273150000000 1.0
C      1  0.5166860000000  0.4570030000000  0.5366170000000 1.0
C      1  0.5577160000000  0.4651880000000  0.4563920000000 1.0
C      1  0.5361980000000  0.5394400000000  0.4575760000000 1.0
C      1  0.4871000000000  0.5366020000000  0.5440110000000 1.0
C      1  0.4898740000000  0.5500670000000  0.4976210000000 1.0
C      1  0.4265280000000  0.5156890000000  0.4688620000000 1.0
C      1  0.4861050000000  0.4613730000000  0.4330100000000 1.0
C      1  0.5331060000000  0.5492910000000  0.5377940000000 1.0
C      1  0.4484260000000  0.5581610000000  0.5209360000000 1.0
C      1  0.4803000000000  0.5088910000000  0.5479520000000 1.0
C      1  0.5086130000000  0.4857140000000  0.4684370000000 1.0
C      1  0.4771840000000  0.5265620000000  0.4284440000000 1.0
C      1  0.5030710000000  0.4327890000000  0.5324720000000 1.0
C      1  0.4966730000000  0.5453930000000  0.4302530000000 1.0
C      1  0.4781970000000  0.4394700000000  0.4489650000000 1.0
C      1  0.4309070000000  0.5440290000000  0.4761260000000 1.0
C      1  0.4691350000000  0.5764900000000  0.4640040000000 1.0
C      1  0.4372820000000  0.4806630000000  0.4972170000000 1.0
C      1  0.5222210000000  0.4836490000000  0.4946100000000 1.0
C      1  0.5444360000000  0.4412300000000  0.4573020000000 1.0
C      1  0.4622150000000  0.4461330000000  0.4723310000000 1.0
C      1  0.4886030000000  0.5056540000000  0.4695310000000 1.0
C      1  0.5587420000000  0.4928950000000  0.4666120000000 1.0
C      1  0.4990740000000  0.4201520000000  0.4481410000000 1.0
C      1  0.5080650000000  0.4786440000000  0.5194560000000 1.0
C      1  0.5518180000000  0.4726400000000  0.5679920000000 1.0
C      1  0.5430000000000  0.4560650000000  0.5470010000000 1.0
C      1  0.5253290000000  0.4876300000000  0.4206460000000 1.0
C      1  0.5838070000000  0.6004380000000  0.4734040000000 1.0
C      1  0.5142890000000  0.5379570000000  0.5829400000000 1.0
C      1  0.4518100000000  0.4381870000000  0.5224990000000 1.0
C      1  0.4589750000000  0.4846930000000  0.5142300000000 1.0
C      1  0.5664470000000  0.4949030000000  0.5635510000000 1.0
C      1  0.4948010000000  0.4244330000000  0.5066910000000 1.0
C      1  0.4761490000000  0.5527390000000  0.5227080000000 1.0
C      1  0.4459550000000  0.4707950000000  0.4711110000000 1.0
C      1  0.5585300000000  0.5146510000000  0.5157580000000 1.0
C      1  0.5726190000000  0.5810660000000  0.4867870000000 1.0
C      1  0.4683080000000  0.4339280000000  0.4990320000000 1.0
C      1  0.5523570000000  0.4918000000000  0.4963980000000 1.0
C      1  0.4445850000000  0.4967070000000  0.4553360000000 1.0
C      1  0.4695440000000  0.5083610000000  0.4485810000000 1.0
C      1  0.4448210000000  0.5646030000000  0.4628510000000 1.0
C      1  0.4790510000000  0.5022970000000  0.5968820000000 1.0
C      1  0.4504690000000  0.4501800000000  0.5469460000000 1.0
C      1  0.5494340000000  0.5417030000000  0.5160060000000 1.0
C      1  0.4141160000000  0.5228750000000  0.5136930000000 1.0
END
