TITL C-3866671-3735-522 -0.112598547228575 125000 -497.809841651965 0 0 82 (C1) n - 1
REM
REM in /home/nfs/bkarasulu/CARBON/AIRSS/Generating-Clusters/LCBOP/Only-C1/SD-CG/FIRE-CG
REM
REM
REM
REM
REM
REM ./C.cell (11c1c37f851c82e70ff6c80c92926a4b)
REM AIRSS Version 0.9.1 bugfix July 2018 build 013d7b7c2542+ Fri, 06 Jul 2018 19:26:36 +0100
REM compiler GCC version 9.2.1 20190827 (Red Hat 9.2.1-1)
REM options -cpp -mtune=generic -march=x86-64 -g -O0 -fpre-include=/usr/include/finclude/math-vector-fortran.h
REM seed 1842396910 -12722548 -171557326 -679236720 -2086536836 -2019545209 -694014496 85787559 803476444 -1454432494 610473863 907806175 -2051272454 1299801401 374384748 1736598759 -1459491555 -1043330183 1745625775 1343575518 1993217691 2128403346 -1051115391 -1905578794 1664009261 -440164302 -2144589955 507437257 1714362865 978502059 -2105756712 -810424960 -1853957137
REM
CELL 1.54180   50.00000   50.00000   50.00000   90.00000   90.00000   90.00000
LATT -1
SFAC C  
C      1  0.4034510000000  0.4449430000000  0.4229340000000 1.0
C      1  0.3913870000000  0.4826850000000  0.3789790000000 1.0
C      1  0.4482730000000  0.4665760000000  0.5280080000000 1.0
C      1  0.4457970000000  0.5069700000000  0.4445850000000 1.0
C      1  0.4480490000000  0.4637150000000  0.5000710000000 1.0
C      1  0.5163550000000  0.5096820000000  0.5961160000000 1.0
C      1  0.4962260000000  0.5813280000000  0.4713010000000 1.0
C      1  0.4872540000000  0.5714430000000  0.5214000000000 1.0
C      1  0.4923960000000  0.5252180000000  0.6041690000000 1.0
C      1  0.4719730000000  0.5374820000000  0.4893520000000 1.0
C      1  0.4692120000000  0.5108360000000  0.6112910000000 1.0
C      1  0.4676620000000  0.5222500000000  0.4445190000000 1.0
C      1  0.5437420000000  0.5243560000000  0.5306090000000 1.0
C      1  0.5626840000000  0.4095510000000  0.5329090000000 1.0
C      1  0.5303190000000  0.5720360000000  0.5321560000000 1.0
C      1  0.4745560000000  0.5462220000000  0.5157630000000 1.0
C      1  0.5939190000000  0.5319310000000  0.4975020000000 1.0
C      1  0.5297790000000  0.5843910000000  0.5049800000000 1.0
C      1  0.5873350000000  0.5858380000000  0.5292230000000 1.0
C      1  0.5856660000000  0.4615050000000  0.5463680000000 1.0
C      1  0.4611860000000  0.4420290000000  0.4867250000000 1.0
C      1  0.4339200000000  0.4207360000000  0.4501340000000 1.0
C      1  0.4923070000000  0.4262710000000  0.4066090000000 1.0
C      1  0.5997190000000  0.5298220000000  0.5242120000000 1.0
C      1  0.5076680000000  0.4168580000000  0.3871870000000 1.0
C      1  0.5506820000000  0.5519310000000  0.5312350000000 1.0
C      1  0.4528590000000  0.4940210000000  0.5980870000000 1.0
C      1  0.4745210000000  0.5270150000000  0.5362070000000 1.0
C      1  0.5279150000000  0.4877400000000  0.4475410000000 1.0
C      1  0.5593180000000  0.4573940000000  0.5398340000000 1.0
C      1  0.4061620000000  0.4260580000000  0.4445240000000 1.0
C      1  0.5483800000000  0.5906850000000  0.5845710000000 1.0
C      1  0.4899420000000  0.5428340000000  0.5806600000000 1.0
C      1  0.4477820000000  0.4792120000000  0.5763570000000 1.0
C      1  0.5352310000000  0.5656600000000  0.5836990000000 1.0
C      1  0.5543260000000  0.5531830000000  0.4725220000000 1.0
C      1  0.5709270000000  0.5674360000000  0.5158510000000 1.0
C      1  0.4294230000000  0.4432550000000  0.4087810000000 1.0
C      1  0.5228130000000  0.4077130000000  0.3680390000000 1.0
C      1  0.4334280000000  0.4813040000000  0.4835540000000 1.0
C      1  0.4762950000000  0.4370740000000  0.4268030000000 1.0
C      1  0.5305730000000  0.5508210000000  0.4568290000000 1.0
C      1  0.5373020000000  0.4395080000000  0.4835620000000 1.0
C      1  0.4980260000000  0.4309130000000  0.5600010000000 1.0
C      1  0.4742480000000  0.4425590000000  0.5602720000000 1.0
C      1  0.5016070000000  0.5846830000000  0.4987060000000 1.0
C      1  0.5545970000000  0.5743580000000  0.4921120000000 1.0
C      1  0.5850230000000  0.6008300000000  0.5513730000000 1.0
C      1  0.3914480000000  0.4705270000000  0.4253730000000 1.0
C      1  0.4555840000000  0.4627580000000  0.5548890000000 1.0
C      1  0.5571370000000  0.5056900000000  0.4835830000000 1.0
C      1  0.5235850000000  0.4275440000000  0.5540060000000 1.0
C      1  0.3517110000000  0.4912180000000  0.4058540000000 1.0
C      1  0.5052980000000  0.4747170000000  0.4413100000000 1.0
C      1  0.5051530000000  0.5718240000000  0.5451610000000 1.0
C      1  0.4821780000000  0.5372780000000  0.4629380000000 1.0
C      1  0.4313080000000  0.4548350000000  0.3834130000000 1.0
C      1  0.5438270000000  0.4789780000000  0.5316770000000 1.0
C      1  0.4144760000000  0.4715870000000  0.3707030000000 1.0
C      1  0.4889930000000  0.5220860000000  0.5592540000000 1.0
C      1  0.5490910000000  0.4851490000000  0.4659920000000 1.0
C      1  0.5528700000000  0.5423580000000  0.5868820000000 1.0
C      1  0.5769490000000  0.5380580000000  0.5717330000000 1.0
C      1  0.4019930000000  0.4864730000000  0.4460560000000 1.0
C      1  0.4485950000000  0.4316790000000  0.4270350000000 1.0
C      1  0.5027060000000  0.5565120000000  0.4585930000000 1.0
C      1  0.5417220000000  0.5207440000000  0.6016620000000 1.0
C      1  0.5076660000000  0.5638430000000  0.5728110000000 1.0
C      1  0.5113560000000  0.5051540000000  0.5672680000000 1.0
C      1  0.5485890000000  0.4311410000000  0.5421250000000 1.0
C      1  0.5687160000000  0.6033120000000  0.5725000000000 1.0
C      1  0.5929820000000  0.5321090000000  0.5505460000000 1.0
C      1  0.5712360000000  0.5301830000000  0.4793740000000 1.0
C      1  0.5511160000000  0.5024580000000  0.5105990000000 1.0
C      1  0.5109100000000  0.4358310000000  0.4862920000000 1.0
C      1  0.4868230000000  0.4442720000000  0.4746610000000 1.0
C      1  0.4449380000000  0.4216780000000  0.4757350000000 1.0
C      1  0.4263550000000  0.4924360000000  0.4587020000000 1.0
C      1  0.5329430000000  0.5033620000000  0.5501430000000 1.0
C      1  0.4883620000000  0.4529840000000  0.4472210000000 1.0
C      1  0.5539440000000  0.4584360000000  0.4742540000000 1.0
C      1  0.3772280000000  0.4819240000000  0.4034290000000 1.0
END
