TITL C-3866676-3738-694 253.427298482674 125000 -660.27981714696 0 0 108 (C1) n - 1
REM
REM in /home/nfs/bkarasulu/CARBON/AIRSS/Generating-Clusters/LCBOP/Only-C1/SD-CG/FIRE-CG
REM
REM
REM
REM
REM
REM ./C.cell (11c1c37f851c82e70ff6c80c92926a4b)
REM AIRSS Version 0.9.1 bugfix July 2018 build 013d7b7c2542+ Fri, 06 Jul 2018 19:26:36 +0100
REM compiler GCC version 9.2.1 20190827 (Red Hat 9.2.1-1)
REM options -cpp -mtune=generic -march=x86-64 -g -O0 -fpre-include=/usr/include/finclude/math-vector-fortran.h
REM seed 301328083 590007200 1850798619 884513540 564793112 -1681002953 1464312390 687678655 1708158964 162881200 1617267058 -1474834376 -1568210863 -2080293031 1134049931 1872161143 -1381797826 1794720704 1377522389 -1675257811 576777050 248958750 -1109734828 1072053775 738809164 977899711 -56286344 -1794440493 -545555099 2027984866 -1852399271 564738212 1411877209
REM
CELL 1.54180   50.00000   50.00000   50.00000   90.00000   90.00000   90.00000
LATT -1
SFAC C  
C      1  0.5314330000000  0.4850980000000  0.4200840000000 1.0
C      1  0.5053530000000  0.4119050000000  0.4441910000000 1.0
C      1  0.4717770000000  0.4706990000000  0.4212680000000 1.0
C      1  0.4655410000000  0.4959010000000  0.4676540000000 1.0
C      1  0.5578460000000  0.5413890000000  0.5314330000000 1.0
C      1  0.5221600000000  0.5846630000000  0.5557590000000 1.0
C      1  0.4128320000000  0.4891340000000  0.5038420000000 1.0
C      1  0.4209740000000  0.5459730000000  0.4521340000000 1.0
C      1  0.5689230000000  0.5049270000000  0.5776060000000 1.0
C      1  0.5236580000000  0.4828930000000  0.3700200000000 1.0
C      1  0.4805260000000  0.4527310000000  0.5004410000000 1.0
C      1  0.4604050000000  0.5454290000000  0.5558150000000 1.0
C      1  0.4404160000000  0.3910930000000  0.4994540000000 1.0
C      1  0.5940130000000  0.5089720000000  0.4868680000000 1.0
C      1  0.4697970000000  0.5638760000000  0.4874550000000 1.0
C      1  0.4387450000000  0.4831030000000  0.5143400000000 1.0
C      1  0.5785970000000  0.4807650000000  0.4450640000000 1.0
C      1  0.5071500000000  0.5101060000000  0.5251260000000 1.0
C      1  0.3897860000000  0.4815150000000  0.5178260000000 1.0
C      1  0.5920550000000  0.5679410000000  0.5077240000000 1.0
C      1  0.5168050000000  0.5381960000000  0.5707350000000 1.0
C      1  0.4536330000000  0.5310910000000  0.5318290000000 1.0
C      1  0.5222600000000  0.5583200000000  0.4287330000000 1.0
C      1  0.5272090000000  0.5212380000000  0.5912210000000 1.0
C      1  0.5325030000000  0.4197480000000  0.4870140000000 1.0
C      1  0.4846400000000  0.5069980000000  0.3584790000000 1.0
C      1  0.4889180000000  0.5337640000000  0.4577340000000 1.0
C      1  0.5876430000000  0.5159270000000  0.5590390000000 1.0
C      1  0.4498310000000  0.5015560000000  0.5340820000000 1.0
C      1  0.5755100000000  0.5302910000000  0.4825280000000 1.0
C      1  0.4521540000000  0.5441410000000  0.4153290000000 1.0
C      1  0.4902250000000  0.4598560000000  0.4739530000000 1.0
C      1  0.5586120000000  0.4799520000000  0.4267810000000 1.0
C      1  0.5309460000000  0.5318310000000  0.4902290000000 1.0
C      1  0.4462490000000  0.3971020000000  0.4727300000000 1.0
C      1  0.4466090000000  0.5509770000000  0.4420580000000 1.0
C      1  0.4083010000000  0.5275000000000  0.4664790000000 1.0
C      1  0.5478840000000  0.5550340000000  0.4156550000000 1.0
C      1  0.5063140000000  0.5644880000000  0.5701310000000 1.0
C      1  0.4780070000000  0.5668760000000  0.5610480000000 1.0
C      1  0.4047760000000  0.3892040000000  0.6290730000000 1.0
C      1  0.5145950000000  0.5324050000000  0.4437690000000 1.0
C      1  0.5163100000000  0.4949150000000  0.5926540000000 1.0
C      1  0.4580690000000  0.5475150000000  0.5082130000000 1.0
C      1  0.4977720000000  0.5910400000000  0.4592390000000 1.0
C      1  0.3762870000000  0.4698470000000  0.5375300000000 1.0
C      1  0.4796470000000  0.4734200000000  0.5729550000000 1.0
C      1  0.4091930000000  0.5059360000000  0.4818740000000 1.0
C      1  0.4705230000000  0.3989540000000  0.5383750000000 1.0
C      1  0.4412880000000  0.4341810000000  0.5242290000000 1.0
C      1  0.4918920000000  0.5833010000000  0.4864590000000 1.0
C      1  0.5830130000000  0.5404090000000  0.5451160000000 1.0
C      1  0.5428590000000  0.5873080000000  0.4940860000000 1.0
C      1  0.5166320000000  0.5266190000000  0.5450290000000 1.0
C      1  0.4036500000000  0.4044820000000  0.6079800000000 1.0
C      1  0.5112810000000  0.5111460000000  0.4966320000000 1.0
C      1  0.4026190000000  0.4199980000000  0.5865290000000 1.0
C      1  0.5551820000000  0.5213900000000  0.5961330000000 1.0
C      1  0.5739730000000  0.4753130000000  0.5427240000000 1.0
C      1  0.5553240000000  0.5347820000000  0.5041890000000 1.0
C      1  0.4530640000000  0.4570070000000  0.5107680000000 1.0
C      1  0.4790540000000  0.4192090000000  0.4372600000000 1.0
C      1  0.5254750000000  0.4860010000000  0.4869190000000 1.0
C      1  0.5022420000000  0.4427590000000  0.5179130000000 1.0
C      1  0.5084670000000  0.4958320000000  0.3515070000000 1.0
C      1  0.5436290000000  0.5868700000000  0.4651060000000 1.0
C      1  0.4583020000000  0.4061860000000  0.4508940000000 1.0
C      1  0.4863220000000  0.5128730000000  0.4778590000000 1.0
C      1  0.4745630000000  0.5059310000000  0.3850820000000 1.0
C      1  0.4885170000000  0.4891230000000  0.5954180000000 1.0
C      1  0.5278940000000  0.4407820000000  0.5050490000000 1.0
C      1  0.5658010000000  0.5972780000000  0.5360540000000 1.0
C      1  0.5688920000000  0.5454360000000  0.4306220000000 1.0
C      1  0.4604870000000  0.4842490000000  0.4436550000000 1.0
C      1  0.5153820000000  0.4809610000000  0.3970540000000 1.0
C      1  0.5642850000000  0.5360940000000  0.4568450000000 1.0
C      1  0.4898020000000  0.4120760000000  0.5519000000000 1.0
C      1  0.6035640000000  0.5133260000000  0.5138350000000 1.0
C      1  0.4922320000000  0.4888380000000  0.5332340000000 1.0
C      1  0.5162260000000  0.4950690000000  0.4411830000000 1.0
C      1  0.4737330000000  0.4426040000000  0.4226350000000 1.0
C      1  0.5485160000000  0.5937720000000  0.5563870000000 1.0
C      1  0.4241080000000  0.4372200000000  0.5461750000000 1.0
C      1  0.5065100000000  0.5924830000000  0.5321110000000 1.0
C      1  0.5363110000000  0.5336200000000  0.4629740000000 1.0
C      1  0.5681290000000  0.5855300000000  0.5101070000000 1.0
C      1  0.5560740000000  0.4804620000000  0.5659180000000 1.0
C      1  0.5670980000000  0.5354010000000  0.6161460000000 1.0
C      1  0.5397110000000  0.4660520000000  0.5003720000000 1.0
C      1  0.4245620000000  0.3696740000000  0.5056720000000 1.0
C      1  0.4508460000000  0.4075190000000  0.5200220000000 1.0
C      1  0.5011310000000  0.4372290000000  0.5460340000000 1.0
C      1  0.5108650000000  0.4778220000000  0.4633580000000 1.0
C      1  0.4600930000000  0.5268850000000  0.3966280000000 1.0
C      1  0.4023460000000  0.4359880000000  0.5637850000000 1.0
C      1  0.5239470000000  0.4106600000000  0.4633410000000 1.0
C      1  0.5924070000000  0.4888850000000  0.4669700000000 1.0
C      1  0.5215980000000  0.5818140000000  0.4468760000000 1.0
C      1  0.5935390000000  0.4965700000000  0.5365880000000 1.0
C      1  0.4793510000000  0.5882780000000  0.5413220000000 1.0
C      1  0.5289550000000  0.4742580000000  0.5744990000000 1.0
C      1  0.4863540000000  0.4849690000000  0.4011840000000 1.0
C      1  0.4678980000000  0.5523210000000  0.4606520000000 1.0
C      1  0.3803130000000  0.4519330000000  0.5569280000000 1.0
C      1  0.4695150000000  0.4875720000000  0.5501680000000 1.0
C      1  0.5049360000000  0.4579470000000  0.5654580000000 1.0
C      1  0.6014350000000  0.5433150000000  0.5217910000000 1.0
C      1  0.5143920000000  0.5881550000000  0.5050670000000 1.0
END
