TITL C-3866675-3766-206 -0.00242110135974604 125000 -587.925958860633 0 0 97 (C1) n - 1
REM
REM in /home/nfs/bkarasulu/CARBON/AIRSS/Generating-Clusters/LCBOP/Only-C1/SD-CG/HFTN-CG/FIRE-CG
REM
REM
REM
REM
REM
REM ./C.cell (11c1c37f851c82e70ff6c80c92926a4b)
REM AIRSS Version 0.9.1 bugfix July 2018 build 013d7b7c2542+ Fri, 06 Jul 2018 19:26:36 +0100
REM compiler GCC version 9.2.1 20190827 (Red Hat 9.2.1-1)
REM options -cpp -mtune=generic -march=x86-64 -g -O0 -fpre-include=/usr/include/finclude/math-vector-fortran.h
REM seed -1592601262 -946825829 -598696921 585480313 1621223427 360329803 -691673043 -1991298804 1439307551 -2047799801 521834467 1833870841 -1605395732 1161910043 610619911 -878771727 -207300751 1467757834 1842321571 1271374771 -772826330 -233744585 1675999250 -1084273918 -76249443 591185886 -746220278 -1054655967 1474795570 -445117001 -1433541588 -621790644 1810518002
REM
CELL 1.54180   50.00000   50.00000   50.00000   90.00000   90.00000   90.00000
LATT -1
SFAC C  
C      1  0.4730820000000  0.5046700000000  0.4325100000000 1.0
C      1  0.4847460000000  0.4586460000000  0.4071710000000 1.0
C      1  0.4430580000000  0.4938230000000  0.5526610000000 1.0
C      1  0.5177250000000  0.4494250000000  0.5886660000000 1.0
C      1  0.4699310000000  0.4550190000000  0.5781400000000 1.0
C      1  0.4803430000000  0.5235830000000  0.5661190000000 1.0
C      1  0.5272290000000  0.5611830000000  0.5229080000000 1.0
C      1  0.5628810000000  0.4516610000000  0.5677940000000 1.0
C      1  0.4981160000000  0.4138440000000  0.5682030000000 1.0
C      1  0.5634670000000  0.4796310000000  0.5646600000000 1.0
C      1  0.4579130000000  0.5665250000000  0.5326600000000 1.0
C      1  0.4805320000000  0.4377530000000  0.5224660000000 1.0
C      1  0.6086370000000  0.4223960000000  0.5652140000000 1.0
C      1  0.4292640000000  0.4827590000000  0.5295300000000 1.0
C      1  0.5140260000000  0.5121180000000  0.4596750000000 1.0
C      1  0.5079750000000  0.4156660000000  0.4618070000000 1.0
C      1  0.4817710000000  0.3916110000000  0.5658580000000 1.0
C      1  0.4327060000000  0.4568050000000  0.5160500000000 1.0
C      1  0.4805390000000  0.5638180000000  0.4686650000000 1.0
C      1  0.5539210000000  0.5756860000000  0.4757770000000 1.0
C      1  0.4656800000000  0.4788470000000  0.5644350000000 1.0
C      1  0.4423660000000  0.5059640000000  0.4902680000000 1.0
C      1  0.5880090000000  0.5027180000000  0.5026330000000 1.0
C      1  0.4916670000000  0.4381680000000  0.5829340000000 1.0
C      1  0.4135570000000  0.5151740000000  0.4513700000000 1.0
C      1  0.4244030000000  0.5415730000000  0.4529270000000 1.0
C      1  0.5555170000000  0.5302360000000  0.5580980000000 1.0
C      1  0.5555640000000  0.4481250000000  0.4902600000000 1.0
C      1  0.4720540000000  0.4499960000000  0.4601140000000 1.0
C      1  0.4132770000000  0.5514530000000  0.5006090000000 1.0
C      1  0.5445900000000  0.5168880000000  0.5072610000000 1.0
C      1  0.5192370000000  0.4027690000000  0.4823210000000 1.0
C      1  0.5221350000000  0.4819000000000  0.4757290000000 1.0
C      1  0.4881300000000  0.4965150000000  0.5586800000000 1.0
C      1  0.4238180000000  0.4548540000000  0.4882630000000 1.0
C      1  0.5283800000000  0.3991070000000  0.5071750000000 1.0
C      1  0.4516350000000  0.5233970000000  0.5562420000000 1.0
C      1  0.4639690000000  0.5531700000000  0.4226850000000 1.0
C      1  0.4634080000000  0.6618240000000  0.5085210000000 1.0
C      1  0.5337180000000  0.5325200000000  0.4641920000000 1.0
C      1  0.5017550000000  0.5407570000000  0.5746190000000 1.0
C      1  0.4812670000000  0.5481320000000  0.4452090000000 1.0
C      1  0.5059780000000  0.4509170000000  0.4256560000000 1.0
C      1  0.5960620000000  0.5423590000000  0.5317390000000 1.0
C      1  0.5252190000000  0.4164370000000  0.5573850000000 1.0
C      1  0.4259680000000  0.4632060000000  0.4604040000000 1.0
C      1  0.5326550000000  0.4624800000000  0.4254750000000 1.0
C      1  0.5305380000000  0.5610900000000  0.4672780000000 1.0
C      1  0.5321790000000  0.4045550000000  0.5330700000000 1.0
C      1  0.5578530000000  0.4766740000000  0.4303180000000 1.0
C      1  0.4139000000000  0.4881440000000  0.4529260000000 1.0
C      1  0.4590440000000  0.6094490000000  0.5091240000000 1.0
C      1  0.5031300000000  0.4670360000000  0.4896830000000 1.0
C      1  0.5023340000000  0.4492040000000  0.5114080000000 1.0
C      1  0.4561580000000  0.5673760000000  0.4835810000000 1.0
C      1  0.4899940000000  0.5010080000000  0.3768760000000 1.0
C      1  0.5474900000000  0.4692970000000  0.4751340000000 1.0
C      1  0.6046680000000  0.5232490000000  0.5140860000000 1.0
C      1  0.5761850000000  0.5042880000000  0.4747040000000 1.0
C      1  0.4304210000000  0.5545750000000  0.4780240000000 1.0
C      1  0.5866440000000  0.4370440000000  0.5671200000000 1.0
C      1  0.4855330000000  0.5047350000000  0.5098260000000 1.0
C      1  0.4409680000000  0.5455860000000  0.5416130000000 1.0
C      1  0.4237040000000  0.5018960000000  0.5093330000000 1.0
C      1  0.4611540000000  0.6358540000000  0.5088620000000 1.0
C      1  0.4547210000000  0.4914090000000  0.4182330000000 1.0
C      1  0.4486060000000  0.4532430000000  0.4444990000000 1.0
C      1  0.4772450000000  0.4707590000000  0.4785620000000 1.0
C      1  0.4951740000000  0.5645880000000  0.5877700000000 1.0
C      1  0.4165390000000  0.5457950000000  0.5269950000000 1.0
C      1  0.5734460000000  0.4845700000000  0.4092080000000 1.0
C      1  0.5252200000000  0.5332340000000  0.5190400000000 1.0
C      1  0.5646890000000  0.5794250000000  0.5006600000000 1.0
C      1  0.4538350000000  0.4399020000000  0.5240170000000 1.0
C      1  0.5382870000000  0.4386180000000  0.5713910000000 1.0
C      1  0.5537680000000  0.5220650000000  0.4804530000000 1.0
C      1  0.5094980000000  0.5764200000000  0.5071270000000 1.0
C      1  0.5298570000000  0.5351030000000  0.5703810000000 1.0
C      1  0.4365740000000  0.5527790000000  0.4298080000000 1.0
C      1  0.4732430000000  0.5460730000000  0.3969650000000 1.0
C      1  0.5621250000000  0.5030370000000  0.5496110000000 1.0
C      1  0.4830860000000  0.5265760000000  0.3813110000000 1.0
C      1  0.5550130000000  0.5687020000000  0.5254010000000 1.0
C      1  0.4882570000000  0.5873130000000  0.5984860000000 1.0
C      1  0.4910800000000  0.4753650000000  0.3849880000000 1.0
C      1  0.4904860000000  0.5209790000000  0.4464910000000 1.0
C      1  0.4680120000000  0.4953640000000  0.4896190000000 1.0
C      1  0.6301850000000  0.4078660000000  0.5631800000000 1.0
C      1  0.4573430000000  0.4630930000000  0.4185540000000 1.0
C      1  0.4954590000000  0.4370920000000  0.4487820000000 1.0
C      1  0.5705040000000  0.5506490000000  0.5422020000000 1.0
C      1  0.4975530000000  0.4960700000000  0.5323210000000 1.0
C      1  0.4660200000000  0.3711900000000  0.5621260000000 1.0
C      1  0.5659600000000  0.4823870000000  0.4576550000000 1.0
C      1  0.5059200000000  0.5704540000000  0.4795300000000 1.0
C      1  0.4582440000000  0.5815870000000  0.5086490000000 1.0
C      1  0.5642700000000  0.5011270000000  0.5212850000000 1.0
END
