TITL C-3866675-3766-249 -1.05110860803126e-06 125000 -786.417201951822 0 0 129 (C1) n - 1
REM
REM in /home/nfs/bkarasulu/CARBON/AIRSS/Generating-Clusters/LCBOP/Only-C1/SD-CG/HFTN-CG/FIRE-CG
REM
REM
REM
REM
REM
REM ./C.cell (11c1c37f851c82e70ff6c80c92926a4b)
REM AIRSS Version 0.9.1 bugfix July 2018 build 013d7b7c2542+ Fri, 06 Jul 2018 19:26:36 +0100
REM compiler GCC version 9.2.1 20190827 (Red Hat 9.2.1-1)
REM options -cpp -mtune=generic -march=x86-64 -g -O0 -fpre-include=/usr/include/finclude/math-vector-fortran.h
REM seed 803066097 -1115680682 195246615 2062202681 1455399627 1262485293 549954197 -1336515864 -1860475368 1827019177 -1299296262 306791252 2058215523 -572752365 316822937 -1779868959 1816403265 -560474899 992164018 711300396 -204566853 -819644960 -1658017740 -1970497609 -110943471 -88660962 1139976121 324496419 1574561357 260938516 -1110607223 -22578771 251974018
REM
CELL 1.54180   50.00000   50.00000   50.00000   90.00000   90.00000   90.00000
LATT -1
SFAC C  
C      1  0.4280940000000  0.5891560000000  0.5277360000000 1.0
C      1  0.5421200000000  0.3952960000000  0.4661050000000 1.0
C      1  0.4580930000000  0.4695880000000  0.5920360000000 1.0
C      1  0.4902050000000  0.5940730000000  0.5739010000000 1.0
C      1  0.4918260000000  0.5447380000000  0.5037010000000 1.0
C      1  0.4153150000000  0.5574090000000  0.5140030000000 1.0
C      1  0.4530090000000  0.5991360000000  0.5418090000000 1.0
C      1  0.5367840000000  0.5331180000000  0.5097180000000 1.0
C      1  0.4998480000000  0.4638280000000  0.3987050000000 1.0
C      1  0.5221850000000  0.4595180000000  0.4386940000000 1.0
C      1  0.4668720000000  0.4286570000000  0.4441050000000 1.0
C      1  0.5720110000000  0.4358860000000  0.4508650000000 1.0
C      1  0.5529710000000  0.4555530000000  0.4042960000000 1.0
C      1  0.5325200000000  0.5699270000000  0.4098230000000 1.0
C      1  0.4685890000000  0.4484980000000  0.5175910000000 1.0
C      1  0.4536270000000  0.4293270000000  0.5031860000000 1.0
C      1  0.5144970000000  0.5473680000000  0.5231890000000 1.0
C      1  0.5945050000000  0.4716990000000  0.4810960000000 1.0
C      1  0.5231260000000  0.3941200000000  0.5300660000000 1.0
C      1  0.5821130000000  0.4452280000000  0.4771910000000 1.0
C      1  0.5144650000000  0.5818510000000  0.5736280000000 1.0
C      1  0.5085770000000  0.5385090000000  0.5502290000000 1.0
C      1  0.6091230000000  0.4969790000000  0.5604880000000 1.0
C      1  0.4985010000000  0.4815500000000  0.5450980000000 1.0
C      1  0.4410330000000  0.5274880000000  0.5507890000000 1.0
C      1  0.5357090000000  0.5431950000000  0.4109670000000 1.0
C      1  0.4281680000000  0.4606420000000  0.4660470000000 1.0
C      1  0.4177220000000  0.4388230000000  0.3937280000000 1.0
C      1  0.4364070000000  0.4641310000000  0.5493760000000 1.0
C      1  0.5655330000000  0.5033720000000  0.5787060000000 1.0
C      1  0.5488770000000  0.5504420000000  0.4890530000000 1.0
C      1  0.5076040000000  0.5169280000000  0.4679030000000 1.0
C      1  0.5420170000000  0.4350220000000  0.5129700000000 1.0
C      1  0.5483820000000  0.4185520000000  0.4517430000000 1.0
C      1  0.5343440000000  0.5041850000000  0.5112170000000 1.0
C      1  0.4889020000000  0.4351900000000  0.4605100000000 1.0
C      1  0.4425290000000  0.3669660000000  0.4657090000000 1.0
C      1  0.4442930000000  0.4996050000000  0.4421370000000 1.0
C      1  0.5527570000000  0.5455330000000  0.5708540000000 1.0
C      1  0.5252150000000  0.4220510000000  0.5336790000000 1.0
C      1  0.4617730000000  0.4919570000000  0.4854050000000 1.0
C      1  0.5534580000000  0.4898280000000  0.5311710000000 1.0
C      1  0.5153650000000  0.5093010000000  0.4414000000000 1.0
C      1  0.5906660000000  0.4937310000000  0.4998550000000 1.0
C      1  0.5209530000000  0.4890270000000  0.6148700000000 1.0
C      1  0.5449550000000  0.4718710000000  0.4823620000000 1.0
C      1  0.5258770000000  0.5750720000000  0.5232260000000 1.0
C      1  0.4675530000000  0.5176620000000  0.4067390000000 1.0
C      1  0.4526340000000  0.5390080000000  0.4197750000000 1.0
C      1  0.4243640000000  0.5420890000000  0.4630020000000 1.0
C      1  0.4631350000000  0.5780910000000  0.4932770000000 1.0
C      1  0.5319300000000  0.5818080000000  0.4965070000000 1.0
C      1  0.5307830000000  0.4859350000000  0.4422000000000 1.0
C      1  0.4772420000000  0.4336580000000  0.5609660000000 1.0
C      1  0.5103200000000  0.5829490000000  0.4178250000000 1.0
C      1  0.5827280000000  0.5172290000000  0.4350200000000 1.0
C      1  0.4214860000000  0.5600450000000  0.4847310000000 1.0
C      1  0.4225640000000  0.5138860000000  0.5342900000000 1.0
C      1  0.4959980000000  0.6154010000000  0.5110670000000 1.0
C      1  0.4861580000000  0.5854620000000  0.4776760000000 1.0
C      1  0.5517610000000  0.4897540000000  0.4613340000000 1.0
C      1  0.5054060000000  0.5083590000000  0.5510800000000 1.0
C      1  0.4588360000000  0.4442800000000  0.4214160000000 1.0
C      1  0.4832640000000  0.4726230000000  0.5225290000000 1.0
C      1  0.4963990000000  0.5416200000000  0.4748160000000 1.0
C      1  0.5106920000000  0.3833740000000  0.5071610000000 1.0
C      1  0.5712160000000  0.4491310000000  0.4243410000000 1.0
C      1  0.6042920000000  0.5641240000000  0.5216180000000 1.0
C      1  0.4885790000000  0.5724100000000  0.4322100000000 1.0
C      1  0.4603610000000  0.4006210000000  0.4991980000000 1.0
C      1  0.5889830000000  0.5411970000000  0.5255250000000 1.0
C      1  0.4440200000000  0.5951670000000  0.5896450000000 1.0
C      1  0.4739850000000  0.4670410000000  0.4120400000000 1.0
C      1  0.6015620000000  0.4776480000000  0.5430030000000 1.0
C      1  0.4458590000000  0.4166590000000  0.4597740000000 1.0
C      1  0.4045050000000  0.5322550000000  0.5221630000000 1.0
C      1  0.4453020000000  0.4948480000000  0.5908750000000 1.0
C      1  0.4942200000000  0.5216540000000  0.3995680000000 1.0
C      1  0.4614670000000  0.4922830000000  0.4190700000000 1.0
C      1  0.4963180000000  0.4796630000000  0.6248380000000 1.0
C      1  0.5019340000000  0.5330540000000  0.6057300000000 1.0
C      1  0.4826650000000  0.5434720000000  0.5897080000000 1.0
C      1  0.5353050000000  0.4689930000000  0.6008860000000 1.0
C      1  0.5486150000000  0.5233080000000  0.5906230000000 1.0
C      1  0.5810170000000  0.4829220000000  0.5241830000000 1.0
C      1  0.4853900000000  0.4889300000000  0.4999240000000 1.0
C      1  0.4818160000000  0.5466260000000  0.5612530000000 1.0
C      1  0.5355760000000  0.4675370000000  0.5728470000000 1.0
C      1  0.5871170000000  0.5232400000000  0.5011980000000 1.0
C      1  0.4827640000000  0.3860640000000  0.5072940000000 1.0
C      1  0.5675610000000  0.5138570000000  0.4583050000000 1.0
C      1  0.5274340000000  0.5574420000000  0.5658320000000 1.0
C      1  0.5693890000000  0.4329640000000  0.5015670000000 1.0
C      1  0.5050340000000  0.4424680000000  0.4806310000000 1.0
C      1  0.5081240000000  0.5988420000000  0.4903560000000 1.0
C      1  0.5979840000000  0.5180380000000  0.4139080000000 1.0
C      1  0.4731160000000  0.6133960000000  0.5259190000000 1.0
C      1  0.3780800000000  0.5263010000000  0.5187210000000 1.0
C      1  0.4415400000000  0.5174460000000  0.5771860000000 1.0
C      1  0.4368000000000  0.5849020000000  0.4845370000000 1.0
C      1  0.5162920000000  0.5237190000000  0.4169050000000 1.0
C      1  0.4378250000000  0.4375830000000  0.4795610000000 1.0
C      1  0.4372330000000  0.5280850000000  0.4419880000000 1.0
C      1  0.4064980000000  0.4325680000000  0.3710560000000 1.0
C      1  0.5251630000000  0.5165190000000  0.6063800000000 1.0
C      1  0.5894600000000  0.5154310000000  0.5680690000000 1.0
C      1  0.5263600000000  0.3824230000000  0.4836490000000 1.0
C      1  0.4430860000000  0.4848330000000  0.4661080000000 1.0
C      1  0.4619270000000  0.5958640000000  0.5689740000000 1.0
C      1  0.5520700000000  0.4861820000000  0.5602470000000 1.0
C      1  0.4644090000000  0.5643750000000  0.4203760000000 1.0
C      1  0.4608420000000  0.5459850000000  0.5413650000000 1.0
C      1  0.4300980000000  0.4456890000000  0.4176040000000 1.0
C      1  0.4924230000000  0.5652120000000  0.4591720000000 1.0
C      1  0.5271810000000  0.4329060000000  0.4393670000000 1.0
C      1  0.5130690000000  0.4611970000000  0.5582430000000 1.0
C      1  0.4243640000000  0.4852830000000  0.5368380000000 1.0
C      1  0.5284840000000  0.4513740000000  0.4933550000000 1.0
C      1  0.4561420000000  0.4533570000000  0.5680210000000 1.0
C      1  0.5270840000000  0.4600230000000  0.3952470000000 1.0
C      1  0.4251240000000  0.6038670000000  0.5028960000000 1.0
C      1  0.5702870000000  0.5333440000000  0.4794430000000 1.0
C      1  0.5778220000000  0.5384640000000  0.5529080000000 1.0
C      1  0.4756280000000  0.4666070000000  0.6136950000000 1.0
C      1  0.4489420000000  0.3919840000000  0.4737240000000 1.0
C      1  0.4159320000000  0.4546600000000  0.4406970000000 1.0
C      1  0.5105880000000  0.4997430000000  0.4919640000000 1.0
C      1  0.4675160000000  0.5563190000000  0.5137770000000 1.0
C      1  0.5054480000000  0.4347420000000  0.5515520000000 1.0
END
