TITL C-3866673-4222-668 8.82419627013734 125000 -1184.42270333537 0 0 192 (C1) n - 1
REM
REM in /home/nfs/bkarasulu/CARBON/AIRSS/Generating-Clusters/LCBOP/Only-C1/SD-CG/FIRE-CG
REM
REM
REM
REM
REM
REM ./C.cell (11c1c37f851c82e70ff6c80c92926a4b)
REM AIRSS Version 0.9.1 bugfix July 2018 build 013d7b7c2542+ Fri, 06 Jul 2018 19:26:36 +0100
REM compiler GCC version 9.2.1 20190827 (Red Hat 9.2.1-1)
REM options -cpp -mtune=generic -march=x86-64 -g -O0 -fpre-include=/usr/include/finclude/math-vector-fortran.h
REM seed 595274007 -602438888 -1264163289 740614470 1913604496 -20307863 1486678633 1472534117 -1701862650 -1538716111 1545322483 -283466107 1776432275 13587202 -1898522985 653102437 -729960116 199777983 1747826176 -1519154340 -106739141 -350747187 919872961 -1357183952 -1177597958 2037652778 -1358125834 -1658627954 -201173310 -325119871 -1731009173 1462915834 -2104142751
REM
CELL 1.54180   50.00000   50.00000   50.00000   90.00000   90.00000   90.00000
LATT -1
SFAC C  
C      1  0.4481860000000  0.5130550000000  0.5221300000000 1.0
C      1  0.4356940000000  0.5457560000000  0.4370340000000 1.0
C      1  0.4517000000000  0.4481370000000  0.5744850000000 1.0
C      1  0.5590730000000  0.6707870000000  0.4106860000000 1.0
C      1  0.5248870000000  0.4851170000000  0.6136230000000 1.0
C      1  0.6035320000000  0.5189720000000  0.4674240000000 1.0
C      1  0.4329810000000  0.4313320000000  0.4411830000000 1.0
C      1  0.6210880000000  0.4588210000000  0.5018610000000 1.0
C      1  0.6156260000000  0.5518320000000  0.5286590000000 1.0
C      1  0.4800930000000  0.4868960000000  0.4613360000000 1.0
C      1  0.4517530000000  0.5008420000000  0.6108550000000 1.0
C      1  0.4838160000000  0.5733300000000  0.5896780000000 1.0
C      1  0.4974660000000  0.4920310000000  0.6167120000000 1.0
C      1  0.5602160000000  0.5580180000000  0.4054190000000 1.0
C      1  0.3902840000000  0.4906700000000  0.5704300000000 1.0
C      1  0.5034230000000  0.4307320000000  0.5957260000000 1.0
C      1  0.6115960000000  0.4972640000000  0.5318310000000 1.0
C      1  0.5246630000000  0.4170750000000  0.6060160000000 1.0
C      1  0.6266830000000  0.5457500000000  0.5048310000000 1.0
C      1  0.4309750000000  0.5799340000000  0.5670450000000 1.0
C      1  0.4136010000000  0.4742090000000  0.4743900000000 1.0
C      1  0.4607740000000  0.4653580000000  0.4161440000000 1.0
C      1  0.5467670000000  0.5031790000000  0.6102100000000 1.0
C      1  0.5962500000000  0.5422010000000  0.5467080000000 1.0
C      1  0.4092330000000  0.5118920000000  0.4148500000000 1.0
C      1  0.4711050000000  0.4783130000000  0.6117220000000 1.0
C      1  0.5653540000000  0.4313390000000  0.4647930000000 1.0
C      1  0.4358750000000  0.3421480000000  0.5285140000000 1.0
C      1  0.4662850000000  0.5790010000000  0.5237170000000 1.0
C      1  0.5081000000000  0.5360990000000  0.5511640000000 1.0
C      1  0.5577720000000  0.5985560000000  0.5429530000000 1.0
C      1  0.5606190000000  0.4672790000000  0.5073550000000 1.0
C      1  0.4302390000000  0.5218780000000  0.3966340000000 1.0
C      1  0.4145640000000  0.4757660000000  0.4468850000000 1.0
C      1  0.4870280000000  0.4740960000000  0.3701820000000 1.0
C      1  0.5667960000000  0.5940270000000  0.5177680000000 1.0
C      1  0.5796640000000  0.5015470000000  0.3927500000000 1.0
C      1  0.4221890000000  0.5276520000000  0.5799910000000 1.0
C      1  0.5543430000000  0.5970130000000  0.4439850000000 1.0
C      1  0.4089640000000  0.3905930000000  0.4513550000000 1.0
C      1  0.4421350000000  0.4886990000000  0.5376010000000 1.0
C      1  0.4690800000000  0.4533830000000  0.5064560000000 1.0
C      1  0.4049990000000  0.5862560000000  0.4893460000000 1.0
C      1  0.4941600000000  0.5782890000000  0.5289210000000 1.0
C      1  0.4050950000000  0.5494990000000  0.5198520000000 1.0
C      1  0.5667930000000  0.4379720000000  0.4167330000000 1.0
C      1  0.4626320000000  0.6212240000000  0.5081810000000 1.0
C      1  0.4652640000000  0.3806600000000  0.5045830000000 1.0
C      1  0.3840070000000  0.5080160000000  0.5060630000000 1.0
C      1  0.5575060000000  0.5133440000000  0.3781120000000 1.0
C      1  0.4261490000000  0.4139360000000  0.4900430000000 1.0
C      1  0.4695650000000  0.6066270000000  0.4826170000000 1.0
C      1  0.4803360000000  0.5746990000000  0.4161260000000 1.0
C      1  0.5032050000000  0.4750130000000  0.4222280000000 1.0
C      1  0.3937600000000  0.4516440000000  0.5090420000000 1.0
C      1  0.5091890000000  0.5550440000000  0.5297820000000 1.0
C      1  0.5469450000000  0.4937010000000  0.4221350000000 1.0
C      1  0.4642690000000  0.4784700000000  0.3893420000000 1.0
C      1  0.3855290000000  0.4789640000000  0.5182260000000 1.0
C      1  0.6209920000000  0.4713140000000  0.5283580000000 1.0
C      1  0.5083070000000  0.3254230000000  0.4857070000000 1.0
C      1  0.6225950000000  0.4512020000000  0.5753140000000 1.0
C      1  0.6001890000000  0.4300590000000  0.5345970000000 1.0
C      1  0.3795600000000  0.5312720000000  0.5532390000000 1.0
C      1  0.3866730000000  0.5296600000000  0.5260420000000 1.0
C      1  0.5001720000000  0.5732350000000  0.4641250000000 1.0
C      1  0.4811800000000  0.4921160000000  0.5618700000000 1.0
C      1  0.5476820000000  0.5967300000000  0.4721720000000 1.0
C      1  0.4416050000000  0.5203180000000  0.4488100000000 1.0
C      1  0.5161700000000  0.4964900000000  0.5149520000000 1.0
C      1  0.5649870000000  0.4947140000000  0.5006410000000 1.0
C      1  0.4929130000000  0.5216140000000  0.6212990000000 1.0
C      1  0.3852360000000  0.5204770000000  0.4784320000000 1.0
C      1  0.5496710000000  0.5475250000000  0.5703740000000 1.0
C      1  0.4752200000000  0.5195080000000  0.5244950000000 1.0
C      1  0.5493410000000  0.4390220000000  0.3963550000000 1.0
C      1  0.5588390000000  0.5745410000000  0.4268690000000 1.0
C      1  0.5395780000000  0.5298430000000  0.6175330000000 1.0
C      1  0.5650180000000  0.5827440000000  0.4911920000000 1.0
C      1  0.5149110000000  0.3957280000000  0.4998670000000 1.0
C      1  0.5266480000000  0.4545120000000  0.4535410000000 1.0
C      1  0.5403210000000  0.5036170000000  0.5407910000000 1.0
C      1  0.4643850000000  0.5228520000000  0.6244020000000 1.0
C      1  0.6284890000000  0.4520990000000  0.6006820000000 1.0
C      1  0.4739130000000  0.4686380000000  0.4809280000000 1.0
C      1  0.4849490000000  0.4325280000000  0.4434430000000 1.0
C      1  0.5129370000000  0.5522590000000  0.4805680000000 1.0
C      1  0.5870620000000  0.4757290000000  0.4406150000000 1.0
C      1  0.4432750000000  0.4679790000000  0.5162140000000 1.0
C      1  0.5077390000000  0.4484320000000  0.4337210000000 1.0
C      1  0.3957570000000  0.5187210000000  0.5727730000000 1.0
C      1  0.4407230000000  0.5463150000000  0.4086110000000 1.0
C      1  0.5011670000000  0.3496630000000  0.4920710000000 1.0
C      1  0.4142590000000  0.5581630000000  0.4515530000000 1.0
C      1  0.5828750000000  0.5024250000000  0.5710000000000 1.0
C      1  0.5155690000000  0.4151720000000  0.4789680000000 1.0
C      1  0.4873680000000  0.5176360000000  0.5501450000000 1.0
C      1  0.5361120000000  0.4956970000000  0.3678410000000 1.0
C      1  0.4827120000000  0.4140700000000  0.5497630000000 1.0
C      1  0.4630160000000  0.4532160000000  0.6007940000000 1.0
C      1  0.4492610000000  0.5856400000000  0.4776050000000 1.0
C      1  0.4778960000000  0.4817010000000  0.4337030000000 1.0
C      1  0.4520310000000  0.4914070000000  0.5638060000000 1.0
C      1  0.5335640000000  0.5266790000000  0.5586610000000 1.0
C      1  0.4710610000000  0.4261570000000  0.4936710000000 1.0
C      1  0.5277500000000  0.4813220000000  0.4603190000000 1.0
C      1  0.5528970000000  0.5411570000000  0.5102280000000 1.0
C      1  0.5059480000000  0.4501880000000  0.5744930000000 1.0
C      1  0.4545700000000  0.5211970000000  0.4740860000000 1.0
C      1  0.4470350000000  0.5711970000000  0.5043190000000 1.0
C      1  0.3919600000000  0.5377640000000  0.4547840000000 1.0
C      1  0.5198710000000  0.4965770000000  0.4165210000000 1.0
C      1  0.5586410000000  0.5103290000000  0.4769890000000 1.0
C      1  0.4921930000000  0.4586540000000  0.5258650000000 1.0
C      1  0.4356460000000  0.5538260000000  0.5790800000000 1.0
C      1  0.5579510000000  0.6465580000000  0.4213750000000 1.0
C      1  0.4936970000000  0.4667920000000  0.5544380000000 1.0
C      1  0.5213380000000  0.6175110000000  0.5097890000000 1.0
C      1  0.5034170000000  0.5370850000000  0.4361870000000 1.0
C      1  0.4784500000000  0.4683860000000  0.3442050000000 1.0
C      1  0.5478810000000  0.4763160000000  0.5515050000000 1.0
C      1  0.4246380000000  0.4997690000000  0.4367600000000 1.0
C      1  0.4120160000000  0.4143480000000  0.5377280000000 1.0
C      1  0.4398790000000  0.5053360000000  0.5855060000000 1.0
C      1  0.5330500000000  0.5079290000000  0.4659470000000 1.0
C      1  0.4374410000000  0.3995950000000  0.5829600000000 1.0
C      1  0.5276500000000  0.4028550000000  0.5249090000000 1.0
C      1  0.4933560000000  0.5106190000000  0.5044760000000 1.0
C      1  0.5891550000000  0.5132040000000  0.5426530000000 1.0
C      1  0.4527030000000  0.4056230000000  0.4982330000000 1.0
C      1  0.5776600000000  0.5311200000000  0.4724510000000 1.0
C      1  0.4216620000000  0.5818300000000  0.4658890000000 1.0
C      1  0.4599790000000  0.5652210000000  0.4011150000000 1.0
C      1  0.5168170000000  0.4742280000000  0.3728530000000 1.0
C      1  0.6243810000000  0.5318910000000  0.4817790000000 1.0
C      1  0.4763410000000  0.4275970000000  0.6054950000000 1.0
C      1  0.5769870000000  0.5529030000000  0.5643950000000 1.0
C      1  0.5341820000000  0.5705120000000  0.5796040000000 1.0
C      1  0.5748360000000  0.4908750000000  0.4190340000000 1.0
C      1  0.4623140000000  0.4307160000000  0.5561090000000 1.0
C      1  0.5298170000000  0.4503460000000  0.3817900000000 1.0
C      1  0.5145420000000  0.4684750000000  0.5112120000000 1.0
C      1  0.5562010000000  0.4087550000000  0.5243040000000 1.0
C      1  0.5692500000000  0.4988310000000  0.5938600000000 1.0
C      1  0.4472760000000  0.5017250000000  0.3853310000000 1.0
C      1  0.5132920000000  0.5406960000000  0.6140150000000 1.0
C      1  0.5616380000000  0.4575620000000  0.5350030000000 1.0
C      1  0.4303410000000  0.4827370000000  0.4942670000000 1.0
C      1  0.5099160000000  0.5230250000000  0.4130280000000 1.0
C      1  0.5758750000000  0.4476140000000  0.4423820000000 1.0
C      1  0.5765280000000  0.4086740000000  0.4776380000000 1.0
C      1  0.5083450000000  0.4070240000000  0.5450740000000 1.0
C      1  0.6186410000000  0.4729920000000  0.4779810000000 1.0
C      1  0.3875060000000  0.5256370000000  0.4281570000000 1.0
C      1  0.4091240000000  0.4263200000000  0.5112630000000 1.0
C      1  0.5478610000000  0.5391490000000  0.3878710000000 1.0
C      1  0.4746050000000  0.5981800000000  0.5784950000000 1.0
C      1  0.4936600000000  0.3757880000000  0.4991480000000 1.0
C      1  0.4215370000000  0.4040840000000  0.5611380000000 1.0
C      1  0.5361960000000  0.4556390000000  0.4982100000000 1.0
C      1  0.4501640000000  0.3605140000000  0.5167860000000 1.0
C      1  0.5699740000000  0.5540370000000  0.4894180000000 1.0
C      1  0.5196040000000  0.5380610000000  0.3912790000000 1.0
C      1  0.5567150000000  0.6223800000000  0.4321160000000 1.0
C      1  0.4228760000000  0.4124040000000  0.4610240000000 1.0
C      1  0.5366430000000  0.4366890000000  0.4745940000000 1.0
C      1  0.5431280000000  0.5937000000000  0.5654680000000 1.0
C      1  0.5637860000000  0.5143180000000  0.5240500000000 1.0
C      1  0.4841310000000  0.5131120000000  0.4748280000000 1.0
C      1  0.4391840000000  0.5103620000000  0.4954390000000 1.0
C      1  0.5094220000000  0.5265250000000  0.4636370000000 1.0
C      1  0.4592130000000  0.4389910000000  0.4311090000000 1.0
C      1  0.3832700000000  0.4787360000000  0.5471640000000 1.0
C      1  0.4583380000000  0.4055680000000  0.5998310000000 1.0
C      1  0.4623420000000  0.5544590000000  0.5900520000000 1.0
C      1  0.6151740000000  0.4511250000000  0.5487010000000 1.0
C      1  0.5082250000000  0.6030320000000  0.5284840000000 1.0
C      1  0.4514070000000  0.6004660000000  0.5609320000000 1.0
C      1  0.5700290000000  0.3978630000000  0.5016120000000 1.0
C      1  0.5105350000000  0.5640280000000  0.5960160000000 1.0
C      1  0.5227640000000  0.6093840000000  0.4827110000000 1.0
C      1  0.6119660000000  0.4319060000000  0.5076930000000 1.0
C      1  0.4969230000000  0.5995840000000  0.4737030000000 1.0
C      1  0.6040260000000  0.4898350000000  0.4602090000000 1.0
C      1  0.4572150000000  0.6059320000000  0.5329240000000 1.0
C      1  0.5713720000000  0.4306210000000  0.5366340000000 1.0
C      1  0.4137620000000  0.4510730000000  0.4338930000000 1.0
C      1  0.5601740000000  0.6946190000000  0.4001750000000 1.0
C      1  0.5251340000000  0.5494410000000  0.5068820000000 1.0
C      1  0.4949220000000  0.5643010000000  0.4375990000000 1.0
C      1  0.4888560000000  0.4229890000000  0.4706560000000 1.0
C      1  0.4184710000000  0.5708810000000  0.5095950000000 1.0
END
