TITL C-3866674-3872-364 377.029392393585 125000 -1189.21385316201 0 0 197 (C1) n - 1
REM
REM in /home/nfs/bkarasulu/CARBON/AIRSS/Generating-Clusters/LCBOP/Only-C1/SD-CG/FIRE-CG
REM
REM
REM
REM
REM
REM ./C.cell (11c1c37f851c82e70ff6c80c92926a4b)
REM AIRSS Version 0.9.1 bugfix July 2018 build 013d7b7c2542+ Fri, 06 Jul 2018 19:26:36 +0100
REM compiler GCC version 9.2.1 20190827 (Red Hat 9.2.1-1)
REM options -cpp -mtune=generic -march=x86-64 -g -O0 -fpre-include=/usr/include/finclude/math-vector-fortran.h
REM seed -1183897820 1933577668 2115923526 -543474947 -420011650 -1406139353 319823590 1031175126 -694568786 -2043639292 -1335459223 -1721411764 -1806992980 948555180 881979411 374823175 -476741814 320728284 -1449788805 1735505152 1213838766 89083191 -631940994 -684312195 -1506191643 78632578 1226669142 329540627 -1755839778 -214959463 339401750 -1687463311 1277520196
REM
CELL 1.54180   50.00000   50.00000   50.00000   90.00000   90.00000   90.00000
LATT -1
SFAC C  
C      1  0.4625550000000  0.4006470000000  0.4468210000000 1.0
C      1  0.6319360000000  0.5025010000000  0.4762860000000 1.0
C      1  0.4224460000000  0.4456550000000  0.4101110000000 1.0
C      1  0.5123850000000  0.5862330000000  0.5918120000000 1.0
C      1  0.5730770000000  0.4884750000000  0.4518670000000 1.0
C      1  0.5075480000000  0.4067980000000  0.5600490000000 1.0
C      1  0.4645570000000  0.5592210000000  0.4175920000000 1.0
C      1  0.4879500000000  0.5535630000000  0.4637960000000 1.0
C      1  0.4786600000000  0.4138730000000  0.5552180000000 1.0
C      1  0.5606610000000  0.4585270000000  0.5366800000000 1.0
C      1  0.5332610000000  0.5656260000000  0.4556630000000 1.0
C      1  0.5231090000000  0.4849810000000  0.4343010000000 1.0
C      1  0.5367660000000  0.4738050000000  0.3874660000000 1.0
C      1  0.5193870000000  0.5818830000000  0.4948730000000 1.0
C      1  0.5754740000000  0.3888150000000  0.4484140000000 1.0
C      1  0.5009330000000  0.4943090000000  0.4167180000000 1.0
C      1  0.5837450000000  0.5274750000000  0.5075600000000 1.0
C      1  0.4268540000000  0.4747200000000  0.4045980000000 1.0
C      1  0.5049260000000  0.3875570000000  0.4652820000000 1.0
C      1  0.3721570000000  0.5370460000000  0.5091620000000 1.0
C      1  0.4098830000000  0.5365420000000  0.5378350000000 1.0
C      1  0.5485620000000  0.5883440000000  0.4912120000000 1.0
C      1  0.4708520000000  0.5349890000000  0.3998620000000 1.0
C      1  0.5488690000000  0.5341910000000  0.5391540000000 1.0
C      1  0.5135990000000  0.4126740000000  0.5041270000000 1.0
C      1  0.4684800000000  0.5186860000000  0.4900990000000 1.0
C      1  0.5433560000000  0.5889280000000  0.5414920000000 1.0
C      1  0.4622370000000  0.4894200000000  0.5007220000000 1.0
C      1  0.5384770000000  0.5037570000000  0.3821270000000 1.0
C      1  0.6053680000000  0.4718370000000  0.5522610000000 1.0
C      1  0.4713510000000  0.6263720000000  0.5143640000000 1.0
C      1  0.4235110000000  0.4889550000000  0.4513280000000 1.0
C      1  0.5954990000000  0.4292640000000  0.6200030000000 1.0
C      1  0.6389470000000  0.5279460000000  0.4803090000000 1.0
C      1  0.5670760000000  0.5391150000000  0.4088360000000 1.0
C      1  0.5929930000000  0.5130240000000  0.5738080000000 1.0
C      1  0.4793370000000  0.4351740000000  0.5329780000000 1.0
C      1  0.5031120000000  0.4293010000000  0.4008090000000 1.0
C      1  0.4967460000000  0.4437350000000  0.4490770000000 1.0
C      1  0.5910510000000  0.4847870000000  0.5742040000000 1.0
C      1  0.6117670000000  0.4118830000000  0.4772670000000 1.0
C      1  0.5378040000000  0.3723950000000  0.4944920000000 1.0
C      1  0.5293540000000  0.4936070000000  0.5573400000000 1.0
C      1  0.4565400000000  0.5130690000000  0.5636440000000 1.0
C      1  0.5413170000000  0.5913910000000  0.4421510000000 1.0
C      1  0.4845940000000  0.4784660000000  0.5175240000000 1.0
C      1  0.5405530000000  0.5813240000000  0.5950020000000 1.0
C      1  0.4678600000000  0.3980230000000  0.5010110000000 1.0
C      1  0.6062320000000  0.5669760000000  0.5272400000000 1.0
C      1  0.4824170000000  0.4088760000000  0.3969010000000 1.0
C      1  0.4081580000000  0.4575210000000  0.5433510000000 1.0
C      1  0.4423230000000  0.5106660000000  0.4542010000000 1.0
C      1  0.5701020000000  0.5988270000000  0.5410900000000 1.0
C      1  0.4135280000000  0.4922820000000  0.4246650000000 1.0
C      1  0.5743240000000  0.4725830000000  0.5952190000000 1.0
C      1  0.5384960000000  0.5077850000000  0.6005840000000 1.0
C      1  0.4512290000000  0.4439810000000  0.5252370000000 1.0
C      1  0.4043950000000  0.5001330000000  0.5632950000000 1.0
C      1  0.6030130000000  0.4609620000000  0.4275410000000 1.0
C      1  0.5853350000000  0.5635960000000  0.5702570000000 1.0
C      1  0.4246760000000  0.4159230000000  0.4716380000000 1.0
C      1  0.5263040000000  0.4273240000000  0.5697480000000 1.0
C      1  0.6161750000000  0.4790410000000  0.4750660000000 1.0
C      1  0.5812250000000  0.5718520000000  0.4508690000000 1.0
C      1  0.4658460000000  0.5199220000000  0.4418750000000 1.0
C      1  0.4043080000000  0.5753880000000  0.5102070000000 1.0
C      1  0.5857030000000  0.4505240000000  0.6085520000000 1.0
C      1  0.4681390000000  0.4754370000000  0.4365140000000 1.0
C      1  0.5234450000000  0.5128990000000  0.5774720000000 1.0
C      1  0.5475300000000  0.3914370000000  0.4473460000000 1.0
C      1  0.5310040000000  0.3749730000000  0.4656590000000 1.0
C      1  0.4429340000000  0.3996450000000  0.5172140000000 1.0
C      1  0.4516570000000  0.5634740000000  0.5039030000000 1.0
C      1  0.5019820000000  0.6033250000000  0.5707640000000 1.0
C      1  0.4688460000000  0.5489130000000  0.4443260000000 1.0
C      1  0.5269700000000  0.3897500000000  0.5154320000000 1.0
C      1  0.4706780000000  0.4796300000000  0.6174450000000 1.0
C      1  0.5978990000000  0.3963930000000  0.4606550000000 1.0
C      1  0.5072370000000  0.5744790000000  0.4672250000000 1.0
C      1  0.4621700000000  0.5873310000000  0.4185640000000 1.0
C      1  0.4464180000000  0.5835960000000  0.5817810000000 1.0
C      1  0.5919410000000  0.5819440000000  0.5476620000000 1.0
C      1  0.4228680000000  0.5280110000000  0.3948310000000 1.0
C      1  0.5590140000000  0.4701320000000  0.4065410000000 1.0
C      1  0.4520270000000  0.4673360000000  0.4806560000000 1.0
C      1  0.4308830000000  0.5642670000000  0.5961860000000 1.0
C      1  0.4204230000000  0.4081520000000  0.4998640000000 1.0
C      1  0.4992680000000  0.4739820000000  0.6177220000000 1.0
C      1  0.4613190000000  0.4074900000000  0.4176110000000 1.0
C      1  0.5086110000000  0.5332150000000  0.5648060000000 1.0
C      1  0.4092500000000  0.5386380000000  0.4436350000000 1.0
C      1  0.5511230000000  0.5831540000000  0.4166070000000 1.0
C      1  0.4768940000000  0.3864550000000  0.4681100000000 1.0
C      1  0.5717230000000  0.5635480000000  0.4235350000000 1.0
C      1  0.4324930000000  0.4947340000000  0.5746720000000 1.0
C      1  0.4835680000000  0.5160340000000  0.4197640000000 1.0
C      1  0.6159180000000  0.4610290000000  0.4982350000000 1.0
C      1  0.4539090000000  0.4546550000000  0.6152070000000 1.0
C      1  0.4869750000000  0.5471700000000  0.5787440000000 1.0
C      1  0.4716110000000  0.5182480000000  0.5404810000000 1.0
C      1  0.4401050000000  0.5957440000000  0.5360440000000 1.0
C      1  0.4283020000000  0.5339600000000  0.4657360000000 1.0
C      1  0.4085080000000  0.4337780000000  0.5585730000000 1.0
C      1  0.4949530000000  0.5872140000000  0.5087010000000 1.0
C      1  0.5093310000000  0.4574060000000  0.3895220000000 1.0
C      1  0.6170380000000  0.4335840000000  0.4917170000000 1.0
C      1  0.4733860000000  0.6098440000000  0.5671330000000 1.0
C      1  0.4465020000000  0.4686300000000  0.5741140000000 1.0
C      1  0.5447600000000  0.5309370000000  0.3917650000000 1.0
C      1  0.5847470000000  0.4584580000000  0.4073500000000 1.0
C      1  0.5091220000000  0.4244670000000  0.4289520000000 1.0
C      1  0.5653450000000  0.4863370000000  0.5264260000000 1.0
C      1  0.4029060000000  0.4346210000000  0.4278280000000 1.0
C      1  0.5555100000000  0.4411670000000  0.4772250000000 1.0
C      1  0.6260040000000  0.5697230000000  0.5076790000000 1.0
C      1  0.4325440000000  0.4234490000000  0.5710980000000 1.0
C      1  0.5211360000000  0.6046990000000  0.5495870000000 1.0
C      1  0.5246740000000  0.4628170000000  0.6091160000000 1.0
C      1  0.5363640000000  0.4987650000000  0.4794440000000 1.0
C      1  0.4785400000000  0.5606520000000  0.6511590000000 1.0
C      1  0.4606200000000  0.6167640000000  0.5397780000000 1.0
C      1  0.5202380000000  0.3870640000000  0.5429910000000 1.0
C      1  0.5252470000000  0.4372950000000  0.5964380000000 1.0
C      1  0.5093160000000  0.4889940000000  0.5119450000000 1.0
C      1  0.3936790000000  0.4823370000000  0.5426810000000 1.0
C      1  0.5422420000000  0.5449890000000  0.4755750000000 1.0
C      1  0.5527850000000  0.4856710000000  0.4305490000000 1.0
C      1  0.4946670000000  0.5658210000000  0.6000070000000 1.0
C      1  0.5422220000000  0.4537330000000  0.4968240000000 1.0
C      1  0.4320230000000  0.4638010000000  0.5285420000000 1.0
C      1  0.4493340000000  0.5181910000000  0.3885860000000 1.0
C      1  0.5643330000000  0.4968290000000  0.4771760000000 1.0
C      1  0.4188930000000  0.5375830000000  0.5914950000000 1.0
C      1  0.5252790000000  0.6139580000000  0.4515400000000 1.0
C      1  0.4425870000000  0.4449120000000  0.5899620000000 1.0
C      1  0.4259170000000  0.5161970000000  0.5245410000000 1.0
C      1  0.5375830000000  0.4470070000000  0.5509160000000 1.0
C      1  0.5770860000000  0.4996610000000  0.5032120000000 1.0
C      1  0.4499460000000  0.4065520000000  0.5525910000000 1.0
C      1  0.5067760000000  0.5952470000000  0.4069380000000 1.0
C      1  0.5430130000000  0.4417570000000  0.4521970000000 1.0
C      1  0.5128940000000  0.4131100000000  0.4763690000000 1.0
C      1  0.3930040000000  0.5519590000000  0.5207030000000 1.0
C      1  0.5496780000000  0.5053750000000  0.5410860000000 1.0
C      1  0.3875230000000  0.4433750000000  0.4973430000000 1.0
C      1  0.4397870000000  0.6012440000000  0.4119890000000 1.0
C      1  0.4876700000000  0.4780820000000  0.3951180000000 1.0
C      1  0.5256820000000  0.5525840000000  0.3869060000000 1.0
C      1  0.4047160000000  0.4215840000000  0.4517460000000 1.0
C      1  0.5289900000000  0.5785790000000  0.3992690000000 1.0
C      1  0.4869900000000  0.4171280000000  0.5110460000000 1.0
C      1  0.4719490000000  0.5632030000000  0.5487830000000 1.0
C      1  0.4862850000000  0.5630980000000  0.6263980000000 1.0
C      1  0.4463290000000  0.5397140000000  0.4885090000000 1.0
C      1  0.4768160000000  0.5676360000000  0.5200740000000 1.0
C      1  0.4482820000000  0.5764420000000  0.5557850000000 1.0
C      1  0.5136770000000  0.5171570000000  0.5159310000000 1.0
C      1  0.5016520000000  0.5466830000000  0.3748020000000 1.0
C      1  0.5180130000000  0.4683090000000  0.5513180000000 1.0
C      1  0.5965030000000  0.5391570000000  0.5304510000000 1.0
C      1  0.4379580000000  0.4907480000000  0.5193340000000 1.0
C      1  0.5710670000000  0.5845330000000  0.4742430000000 1.0
C      1  0.5649220000000  0.5712420000000  0.5885930000000 1.0
C      1  0.3956990000000  0.4196350000000  0.5074900000000 1.0
C      1  0.3981300000000  0.4697290000000  0.4934280000000 1.0
C      1  0.5990340000000  0.4757220000000  0.4515230000000 1.0
C      1  0.5418040000000  0.5603560000000  0.5387370000000 1.0
C      1  0.5475220000000  0.4808690000000  0.6045350000000 1.0
C      1  0.5213040000000  0.5249830000000  0.4869090000000 1.0
C      1  0.4477870000000  0.4329210000000  0.4136020000000 1.0
C      1  0.4094750000000  0.5210240000000  0.4191580000000 1.0
C      1  0.3867060000000  0.4881150000000  0.5140700000000 1.0
C      1  0.4843820000000  0.6108610000000  0.4937200000000 1.0
C      1  0.5195500000000  0.4615090000000  0.4508350000000 1.0
C      1  0.6137380000000  0.4679140000000  0.5264020000000 1.0
C      1  0.6375900000000  0.5526730000000  0.4904240000000 1.0
C      1  0.4991100000000  0.5264400000000  0.5381680000000 1.0
C      1  0.4313860000000  0.5825270000000  0.5123660000000 1.0
C      1  0.4305020000000  0.5104920000000  0.6024770000000 1.0
C      1  0.4593930000000  0.5074310000000  0.6102770000000 1.0
C      1  0.4668810000000  0.4451850000000  0.4674740000000 1.0
C      1  0.5267550000000  0.4766940000000  0.4948210000000 1.0
C      1  0.5360530000000  0.4169840000000  0.4381450000000 1.0
C      1  0.5920150000000  0.5370100000000  0.5596890000000 1.0
C      1  0.4899600000000  0.4619610000000  0.5419960000000 1.0
C      1  0.3708370000000  0.5102600000000  0.5069730000000 1.0
C      1  0.4534150000000  0.4879110000000  0.3914750000000 1.0
C      1  0.5676600000000  0.5432380000000  0.4895330000000 1.0
C      1  0.4222130000000  0.4725320000000  0.4750350000000 1.0
C      1  0.4639530000000  0.4540630000000  0.4225620000000 1.0
C      1  0.4972880000000  0.6028300000000  0.4587900000000 1.0
C      1  0.4864670000000  0.5991710000000  0.4276160000000 1.0
C      1  0.4931110000000  0.5297890000000  0.4782410000000 1.0
C      1  0.4046120000000  0.5298120000000  0.5654610000000 1.0
C      1  0.4506730000000  0.4220080000000  0.4626020000000 1.0
C      1  0.4706540000000  0.5234760000000  0.5881650000000 1.0
C      1  0.4723860000000  0.4697760000000  0.5638350000000 1.0
END
