TITL C-3866669-3764-658 -26.6759499680109 125000 -705.110096756225 0 0 117 (C1) n - 1
REM
REM in /home/nfs/bkarasulu/CARBON/AIRSS/Generating-Clusters/LCBOP/Only-C1/SD-CG/FIRE-CG
REM
REM
REM
REM
REM
REM ./C.cell (11c1c37f851c82e70ff6c80c92926a4b)
REM AIRSS Version 0.9.1 bugfix July 2018 build 013d7b7c2542+ Fri, 06 Jul 2018 19:26:36 +0100
REM compiler GCC version 9.2.1 20190827 (Red Hat 9.2.1-1)
REM options -cpp -mtune=generic -march=x86-64 -g -O0 -fpre-include=/usr/include/finclude/math-vector-fortran.h
REM seed 1746897688 660508565 -373981110 -304662631 -552601768 1157808306 -1796449003 765787849 -1595808842 1049677011 -533345355 1139007794 1616294166 -1207702088 -298343086 171687620 -1473175173 -1034714481 -60852357 1885836634 -1686586094 -1093418740 -1900348256 655421494 -1814704108 -651664589 490516793 -1535154836 2023070307 466812752 -2003096449 -1589778923 -1497691036
REM
CELL 1.54180   50.00000   50.00000   50.00000   90.00000   90.00000   90.00000
LATT -1
SFAC C  
C      1  0.4572670000000  0.5753960000000  0.4587910000000 1.0
C      1  0.5153940000000  0.5435100000000  0.3828980000000 1.0
C      1  0.4655450000000  0.3831880000000  0.4423660000000 1.0
C      1  0.4762860000000  0.5604500000000  0.5332910000000 1.0
C      1  0.4933180000000  0.4715240000000  0.4811430000000 1.0
C      1  0.4386060000000  0.5071040000000  0.4853640000000 1.0
C      1  0.4881320000000  0.5115330000000  0.5591260000000 1.0
C      1  0.5151180000000  0.5590020000000  0.5707650000000 1.0
C      1  0.5552080000000  0.5190220000000  0.5600240000000 1.0
C      1  0.4126520000000  0.4767050000000  0.5267690000000 1.0
C      1  0.5086200000000  0.4477390000000  0.4323330000000 1.0
C      1  0.5059440000000  0.4970090000000  0.3976830000000 1.0
C      1  0.5398380000000  0.5326770000000  0.4592740000000 1.0
C      1  0.5348940000000  0.4696380000000  0.5691610000000 1.0
C      1  0.5187930000000  0.4820810000000  0.5885850000000 1.0
C      1  0.4420860000000  0.5892830000000  0.5361110000000 1.0
C      1  0.4973330000000  0.5237220000000  0.3909280000000 1.0
C      1  0.5284100000000  0.4804740000000  0.5435350000000 1.0
C      1  0.4431740000000  0.3950610000000  0.4550340000000 1.0
C      1  0.4711430000000  0.5602450000000  0.4790990000000 1.0
C      1  0.5449320000000  0.5565290000000  0.4760070000000 1.0
C      1  0.5035670000000  0.6269360000000  0.5324520000000 1.0
C      1  0.5138170000000  0.3820110000000  0.4491680000000 1.0
C      1  0.5195600000000  0.4727610000000  0.4373280000000 1.0
C      1  0.5538650000000  0.4500770000000  0.5738410000000 1.0
C      1  0.5164730000000  0.5500270000000  0.5433220000000 1.0
C      1  0.6006800000000  0.5266050000000  0.5115500000000 1.0
C      1  0.5212510000000  0.4068050000000  0.5205740000000 1.0
C      1  0.5729780000000  0.4583210000000  0.4152350000000 1.0
C      1  0.4643780000000  0.4840050000000  0.4203520000000 1.0
C      1  0.4819540000000  0.4406050000000  0.4289310000000 1.0
C      1  0.3494660000000  0.5007530000000  0.4983140000000 1.0
C      1  0.5013640000000  0.4725140000000  0.5340200000000 1.0
C      1  0.4274950000000  0.4662440000000  0.5046780000000 1.0
C      1  0.4361360000000  0.4846730000000  0.5721000000000 1.0
C      1  0.4705580000000  0.5195100000000  0.5182560000000 1.0
C      1  0.4705840000000  0.5885860000000  0.5398620000000 1.0
C      1  0.4487120000000  0.6010450000000  0.4609180000000 1.0
C      1  0.5418980000000  0.5612690000000  0.5809580000000 1.0
C      1  0.4667200000000  0.4700930000000  0.4699360000000 1.0
C      1  0.5026160000000  0.4612870000000  0.5076750000000 1.0
C      1  0.5961340000000  0.6029700000000  0.4544560000000 1.0
C      1  0.4986370000000  0.5216560000000  0.4802680000000 1.0
C      1  0.5414710000000  0.4676660000000  0.4818420000000 1.0
C      1  0.4933660000000  0.5517960000000  0.5898500000000 1.0
C      1  0.5045340000000  0.5843070000000  0.5045660000000 1.0
C      1  0.4771120000000  0.5342700000000  0.4679990000000 1.0
C      1  0.4310130000000  0.5121950000000  0.5804470000000 1.0
C      1  0.5522740000000  0.5506250000000  0.4146350000000 1.0
C      1  0.5077860000000  0.5082480000000  0.5805700000000 1.0
C      1  0.5196010000000  0.5262560000000  0.5269240000000 1.0
C      1  0.5544680000000  0.5852640000000  0.5867840000000 1.0
C      1  0.6065770000000  0.6224470000000  0.4406280000000 1.0
C      1  0.5391750000000  0.4258100000000  0.5105550000000 1.0
C      1  0.4313460000000  0.4191700000000  0.4521610000000 1.0
C      1  0.4612780000000  0.4609790000000  0.4406430000000 1.0
C      1  0.4361460000000  0.4441310000000  0.4430170000000 1.0
C      1  0.4254010000000  0.5403040000000  0.5208000000000 1.0
C      1  0.5370850000000  0.5555830000000  0.3930310000000 1.0
C      1  0.5540990000000  0.5352270000000  0.5839700000000 1.0
C      1  0.4273340000000  0.5683960000000  0.5261100000000 1.0
C      1  0.5649320000000  0.4328100000000  0.4170490000000 1.0
C      1  0.4630420000000  0.4761980000000  0.5749420000000 1.0
C      1  0.4829150000000  0.5646790000000  0.5039960000000 1.0
C      1  0.5853100000000  0.5830740000000  0.4681970000000 1.0
C      1  0.5346070000000  0.3948960000000  0.4384230000000 1.0
C      1  0.4540790000000  0.5581190000000  0.4359480000000 1.0
C      1  0.5659780000000  0.4203540000000  0.5099780000000 1.0
C      1  0.5518320000000  0.4114910000000  0.4264880000000 1.0
C      1  0.4115700000000  0.5252450000000  0.5645910000000 1.0
C      1  0.5727430000000  0.5616300000000  0.4808980000000 1.0
C      1  0.5196920000000  0.4819870000000  0.4655700000000 1.0
C      1  0.5709100000000  0.4302110000000  0.5779170000000 1.0
C      1  0.4449570000000  0.5242020000000  0.5066960000000 1.0
C      1  0.3966210000000  0.5005960000000  0.5243570000000 1.0
C      1  0.4435580000000  0.4792100000000  0.4850860000000 1.0
C      1  0.4074850000000  0.5243570000000  0.5365420000000 1.0
C      1  0.4749250000000  0.5329710000000  0.5434140000000 1.0
C      1  0.6133610000000  0.5075690000000  0.5240580000000 1.0
C      1  0.4851360000000  0.3512530000000  0.4739490000000 1.0
C      1  0.4737650000000  0.4811360000000  0.6018670000000 1.0
C      1  0.4608360000000  0.5563330000000  0.4080010000000 1.0
C      1  0.4508740000000  0.5261180000000  0.5962800000000 1.0
C      1  0.4719060000000  0.5098510000000  0.6097270000000 1.0
C      1  0.4822040000000  0.3313310000000  0.4904920000000 1.0
C      1  0.5816330000000  0.4828960000000  0.4551270000000 1.0
C      1  0.5870310000000  0.5448370000000  0.4980160000000 1.0
C      1  0.5489040000000  0.5248110000000  0.6100940000000 1.0
C      1  0.5238660000000  0.5249170000000  0.6215110000000 1.0
C      1  0.4203370000000  0.4710980000000  0.5532770000000 1.0
C      1  0.5523830000000  0.5027810000000  0.4219150000000 1.0
C      1  0.4993230000000  0.5248610000000  0.6047800000000 1.0
C      1  0.5658160000000  0.6081780000000  0.5918110000000 1.0
C      1  0.3721100000000  0.5006580000000  0.5112110000000 1.0
C      1  0.4752140000000  0.4193950000000  0.4118870000000 1.0
C      1  0.5268090000000  0.4910360000000  0.4165200000000 1.0
C      1  0.4881600000000  0.3719440000000  0.4555230000000 1.0
C      1  0.5873610000000  0.4102400000000  0.5810950000000 1.0
C      1  0.5682120000000  0.4740660000000  0.4767040000000 1.0
C      1  0.4605700000000  0.5301330000000  0.4452930000000 1.0
C      1  0.5268100000000  0.5753170000000  0.4889090000000 1.0
C      1  0.4978530000000  0.5189460000000  0.5080600000000 1.0
C      1  0.5379280000000  0.5075150000000  0.5393740000000 1.0
C      1  0.5292380000000  0.4503950000000  0.5011450000000 1.0
C      1  0.4616900000000  0.5121270000000  0.4232940000000 1.0
C      1  0.4834950000000  0.4790100000000  0.3990780000000 1.0
C      1  0.4996960000000  0.4696640000000  0.6055610000000 1.0
C      1  0.5728810000000  0.4835130000000  0.4282000000000 1.0
C      1  0.4808980000000  0.4830580000000  0.5521820000000 1.0
C      1  0.5021810000000  0.3918590000000  0.5312860000000 1.0
C      1  0.4827070000000  0.3786330000000  0.5424850000000 1.0
C      1  0.4638540000000  0.5517540000000  0.5901100000000 1.0
C      1  0.4713280000000  0.5301240000000  0.4011410000000 1.0
C      1  0.4700560000000  0.3934230000000  0.4163670000000 1.0
C      1  0.4938780000000  0.6023800000000  0.5260810000000 1.0
C      1  0.5515370000000  0.5293810000000  0.4330630000000 1.0
C      1  0.5214040000000  0.5121070000000  0.4674180000000 1.0
END
