TITL C-3866675-3766-431 225554.457824644 125000 -784.162167937802 0 0 131 (C1) n - 1
REM
REM in /home/nfs/bkarasulu/CARBON/AIRSS/Generating-Clusters/LCBOP/Only-C1/SD-CG/FIRE-CG
REM
REM
REM
REM
REM
REM ./C.cell (11c1c37f851c82e70ff6c80c92926a4b)
REM AIRSS Version 0.9.1 bugfix July 2018 build 013d7b7c2542+ Fri, 06 Jul 2018 19:26:36 +0100
REM compiler GCC version 9.2.1 20190827 (Red Hat 9.2.1-1)
REM options -cpp -mtune=generic -march=x86-64 -g -O0 -fpre-include=/usr/include/finclude/math-vector-fortran.h
REM seed 815860182 1188122755 813535442 -1568413558 -2102276144 -418694293 505113291 -1716775663 1526394725 760454285 -1361367488 1717134069 1513889943 1614278789 -1354457579 -680776141 -2106611891 -1363410687 194431678 -2121941812 607625569 -1089680232 -1291209058 -1947664919 2013349845 114058275 -1138555830 -1671805092 709008932 -1673579190 1048496829 -1214817175 -1271163392
REM
CELL 1.54180   50.00000   50.00000   50.00000   90.00000   90.00000   90.00000
LATT -1
SFAC C  
C      1  0.5613340000000  0.5974540000000  0.4719400000000 1.0
C      1  0.4811530000000  0.4429120000000  0.5681690000000 1.0
C      1  0.4555460000000  0.5557800000000  0.4891110000000 1.0
C      1  0.5492380000000  0.5274740000000  0.5375710000000 1.0
C      1  0.5014220000000  0.4014950000000  0.5094520000000 1.0
C      1  0.5316150000000  0.5265540000000  0.6162620000000 1.0
C      1  0.5546190000000  0.4910280000000  0.5079150000000 1.0
C      1  0.4430950000000  0.5440360000000  0.4327120000000 1.0
C      1  0.4464700000000  0.4817850000000  0.5721910000000 1.0
C      1  0.4484320000000  0.5114820000000  0.5723690000000 1.0
C      1  0.5710160000000  0.5887830000000  0.5962450000000 1.0
C      1  0.5176780000000  0.4227270000000  0.4694300000000 1.0
C      1  0.6400420000000  0.4791310000000  0.5036320000000 1.0
C      1  0.5333170000000  0.5754120000000  0.4375600000000 1.0
C      1  0.5535860000000  0.4980820000000  0.5881840000000 1.0
C      1  0.5414630000000  0.5950270000000  0.4903980000000 1.0
C      1  0.5426070000000  0.5157700000000  0.4632460000000 1.0
C      1  0.5780010000000  0.4674730000000  0.4310270000000 1.0
C      1  0.4015620000000  0.5442170000000  0.5382470000000 1.0
C      1  0.5227900000000  0.4658910000000  0.4473520000000 1.0
C      1  0.4770910000000  0.5058260000000  0.4205760000000 1.0
C      1  0.5080520000000  0.5509150000000  0.4866760000000 1.0
C      1  0.5579010000000  0.5202420000000  0.6049120000000 1.0
C      1  0.5081260000000  0.4523890000000  0.4699900000000 1.0
C      1  0.4820020000000  0.6171650000000  0.5178580000000 1.0
C      1  0.5748760000000  0.5389580000000  0.5912400000000 1.0
C      1  0.5471620000000  0.4226750000000  0.4772590000000 1.0
C      1  0.6512900000000  0.5043610000000  0.5487280000000 1.0
C      1  0.4436740000000  0.5303510000000  0.4861680000000 1.0
C      1  0.4642260000000  0.5281350000000  0.5905240000000 1.0
C      1  0.5163440000000  0.5449130000000  0.5989570000000 1.0
C      1  0.5454950000000  0.4160470000000  0.5286030000000 1.0
C      1  0.5583570000000  0.5087450000000  0.4058530000000 1.0
C      1  0.4794140000000  0.4934020000000  0.5132720000000 1.0
C      1  0.5113260000000  0.5360510000000  0.5129670000000 1.0
C      1  0.4665900000000  0.5616070000000  0.4284640000000 1.0
C      1  0.4648640000000  0.4757220000000  0.4937760000000 1.0
C      1  0.4543570000000  0.5139140000000  0.4655360000000 1.0
C      1  0.4895840000000  0.4922610000000  0.5760840000000 1.0
C      1  0.4917480000000  0.4479800000000  0.3764230000000 1.0
C      1  0.3778450000000  0.5289820000000  0.5396780000000 1.0
C      1  0.5731020000000  0.4868860000000  0.5310270000000 1.0
C      1  0.4536080000000  0.3612790000000  0.4912110000000 1.0
C      1  0.5015090000000  0.6315640000000  0.5285790000000 1.0
C      1  0.4645590000000  0.5998950000000  0.5078810000000 1.0
C      1  0.5748610000000  0.4587870000000  0.5385220000000 1.0
C      1  0.5868940000000  0.5266430000000  0.5674140000000 1.0
C      1  0.5141850000000  0.4680880000000  0.5379250000000 1.0
C      1  0.5191550000000  0.5798690000000  0.4824620000000 1.0
C      1  0.5345220000000  0.4904580000000  0.4542760000000 1.0
C      1  0.4189540000000  0.4539240000000  0.4794900000000 1.0
C      1  0.4881840000000  0.5258240000000  0.4039310000000 1.0
C      1  0.4166090000000  0.4264550000000  0.4854320000000 1.0
C      1  0.5823210000000  0.4566040000000  0.4569210000000 1.0
C      1  0.5294110000000  0.5483760000000  0.4297450000000 1.0
C      1  0.5214280000000  0.4594320000000  0.4952190000000 1.0
C      1  0.5373910000000  0.5488390000000  0.5525960000000 1.0
C      1  0.4287360000000  0.4028390000000  0.4879850000000 1.0
C      1  0.4316900000000  0.4973710000000  0.4248360000000 1.0
C      1  0.5738330000000  0.5132920000000  0.5453040000000 1.0
C      1  0.4298180000000  0.4681120000000  0.5539990000000 1.0
C      1  0.5219750000000  0.5350350000000  0.4627280000000 1.0
C      1  0.4516700000000  0.3872690000000  0.4831430000000 1.0
C      1  0.5081820000000  0.4905940000000  0.5213770000000 1.0
C      1  0.5602590000000  0.5791910000000  0.4501250000000 1.0
C      1  0.4876430000000  0.5411640000000  0.5967960000000 1.0
C      1  0.4205180000000  0.5820240000000  0.5133170000000 1.0
C      1  0.5273410000000  0.4693050000000  0.5623710000000 1.0
C      1  0.4475660000000  0.5215360000000  0.5455950000000 1.0
C      1  0.4794200000000  0.4634550000000  0.4700150000000 1.0
C      1  0.4143300000000  0.5431960000000  0.4395630000000 1.0
C      1  0.4980610000000  0.4048570000000  0.4811310000000 1.0
C      1  0.5703020000000  0.4852730000000  0.4123160000000 1.0
C      1  0.5540090000000  0.4322780000000  0.5735210000000 1.0
C      1  0.6542860000000  0.5148230000000  0.5724200000000 1.0
C      1  0.5613850000000  0.4487470000000  0.4746660000000 1.0
C      1  0.3720300000000  0.5062730000000  0.5261890000000 1.0
C      1  0.5272410000000  0.4524110000000  0.4239790000000 1.0
C      1  0.4817710000000  0.5522560000000  0.4059760000000 1.0
C      1  0.5200070000000  0.5041320000000  0.6294700000000 1.0
C      1  0.5318470000000  0.5125050000000  0.5162210000000 1.0
C      1  0.3892110000000  0.5909240000000  0.4428810000000 1.0
C      1  0.4027770000000  0.5710740000000  0.5302060000000 1.0
C      1  0.4708030000000  0.5162240000000  0.5300090000000 1.0
C      1  0.5079120000000  0.5103920000000  0.5637150000000 1.0
C      1  0.5126560000000  0.4081640000000  0.3494070000000 1.0
C      1  0.5014130000000  0.4284330000000  0.3613440000000 1.0
C      1  0.4641360000000  0.4143300000000  0.4454270000000 1.0
C      1  0.5752650000000  0.5547040000000  0.4539190000000 1.0
C      1  0.4132950000000  0.4641320000000  0.4529190000000 1.0
C      1  0.3871840000000  0.4917020000000  0.5092190000000 1.0
C      1  0.5329470000000  0.4962470000000  0.5695220000000 1.0
C      1  0.4335590000000  0.4707770000000  0.4998460000000 1.0
C      1  0.6081510000000  0.4581460000000  0.4677260000000 1.0
C      1  0.5512360000000  0.5307970000000  0.4218690000000 1.0
C      1  0.5539470000000  0.4090860000000  0.5018420000000 1.0
C      1  0.4725700000000  0.4695590000000  0.5751870000000 1.0
C      1  0.4004130000000  0.5676320000000  0.4395420000000 1.0
C      1  0.4792650000000  0.4775000000000  0.4201020000000 1.0
C      1  0.5617680000000  0.4334730000000  0.5459610000000 1.0
C      1  0.3992780000000  0.5183370000000  0.4477940000000 1.0
C      1  0.4852590000000  0.4647550000000  0.3958880000000 1.0
C      1  0.5221540000000  0.6441390000000  0.5383460000000 1.0
C      1  0.4533720000000  0.4390470000000  0.4371280000000 1.0
C      1  0.5646630000000  0.5287810000000  0.4485570000000 1.0
C      1  0.5484520000000  0.4683900000000  0.4920300000000 1.0
C      1  0.4531060000000  0.5150100000000  0.4357200000000 1.0
C      1  0.4960640000000  0.4238000000000  0.5549800000000 1.0
C      1  0.5613120000000  0.5643420000000  0.5896840000000 1.0
C      1  0.4249690000000  0.5295270000000  0.5313610000000 1.0
C      1  0.5136360000000  0.4475510000000  0.5192450000000 1.0
C      1  0.4143020000000  0.4946020000000  0.5013160000000 1.0
C      1  0.4104570000000  0.4914410000000  0.4428510000000 1.0
C      1  0.4310380000000  0.4601620000000  0.5283550000000 1.0
C      1  0.4256320000000  0.5199870000000  0.5045490000000 1.0
C      1  0.5142870000000  0.4196950000000  0.5298580000000 1.0
C      1  0.4463520000000  0.5791880000000  0.5027000000000 1.0
C      1  0.3739980000000  0.5207400000000  0.4584110000000 1.0
C      1  0.5346440000000  0.4504740000000  0.5828230000000 1.0
C      1  0.4949700000000  0.5302360000000  0.5368460000000 1.0
C      1  0.4800740000000  0.5571220000000  0.4757060000000 1.0
C      1  0.5267870000000  0.4569000000000  0.6092530000000 1.0
C      1  0.5345620000000  0.5582210000000  0.5794700000000 1.0
C      1  0.5101020000000  0.5842600000000  0.4534540000000 1.0
C      1  0.6472940000000  0.4923690000000  0.5254250000000 1.0
C      1  0.4699760000000  0.4617870000000  0.4424610000000 1.0
C      1  0.4827960000000  0.5717830000000  0.4503300000000 1.0
C      1  0.5202190000000  0.4773020000000  0.6257050000000 1.0
C      1  0.4259020000000  0.4456790000000  0.4343120000000 1.0
C      1  0.6272760000000  0.4667600000000  0.4839570000000 1.0
C      1  0.4726370000000  0.4003000000000  0.4686130000000 1.0
END
