TITL C-3866673-4222-367 0.097027706384955 125000 -933.326674544582 0 0 153 (C1) n - 1
REM
REM in /home/nfs/bkarasulu/CARBON/AIRSS/Generating-Clusters/LCBOP/Only-C1/SD-CG/FIRE-CG
REM
REM
REM
REM
REM
REM ./C.cell (11c1c37f851c82e70ff6c80c92926a4b)
REM AIRSS Version 0.9.1 bugfix July 2018 build 013d7b7c2542+ Fri, 06 Jul 2018 19:26:36 +0100
REM compiler GCC version 9.2.1 20190827 (Red Hat 9.2.1-1)
REM options -cpp -mtune=generic -march=x86-64 -g -O0 -fpre-include=/usr/include/finclude/math-vector-fortran.h
REM seed 1814559957 -1509663209 -899429345 1091350249 -863604266 1965945027 -1675821339 -1207956320 383953506 490244231 1619499030 1725545409 -985712179 -306202379 -1322296029 -955723818 -1006051236 883401857 -1872952674 -48314187 -780432892 -556099157 -380420888 -1064540780 1776952702 276616028 -1948806668 1738256683 -716016634 1528134331 1134978786 1348153881 1780602128
REM
CELL 1.54180   50.00000   50.00000   50.00000   90.00000   90.00000   90.00000
LATT -1
SFAC C  
C      1  0.5681760000000  0.4036100000000  0.5394380000000 1.0
C      1  0.3921030000000  0.5179190000000  0.5580770000000 1.0
C      1  0.4445110000000  0.4320280000000  0.5377180000000 1.0
C      1  0.4545200000000  0.5422660000000  0.5295370000000 1.0
C      1  0.5206460000000  0.5993940000000  0.4969720000000 1.0
C      1  0.5870670000000  0.4686500000000  0.4279180000000 1.0
C      1  0.5011640000000  0.6159610000000  0.5131470000000 1.0
C      1  0.4302180000000  0.4156150000000  0.5187220000000 1.0
C      1  0.5358770000000  0.5546740000000  0.4135820000000 1.0
C      1  0.3957900000000  0.4392600000000  0.4945430000000 1.0
C      1  0.5812070000000  0.4253400000000  0.5536940000000 1.0
C      1  0.5678990000000  0.4261530000000  0.5793200000000 1.0
C      1  0.4594300000000  0.5946040000000  0.4891470000000 1.0
C      1  0.4681400000000  0.5822020000000  0.4647650000000 1.0
C      1  0.5113040000000  0.6204320000000  0.4522110000000 1.0
C      1  0.5404880000000  0.4570760000000  0.5299440000000 1.0
C      1  0.5109960000000  0.4085900000000  0.4427050000000 1.0
C      1  0.5129440000000  0.5198470000000  0.5871250000000 1.0
C      1  0.5765360000000  0.4593510000000  0.4912630000000 1.0
C      1  0.4752130000000  0.5084300000000  0.4739250000000 1.0
C      1  0.4263700000000  0.4457110000000  0.5812010000000 1.0
C      1  0.6095080000000  0.4644550000000  0.5435750000000 1.0
C      1  0.4023290000000  0.4829810000000  0.5263400000000 1.0
C      1  0.4601390000000  0.4431890000000  0.6200880000000 1.0
C      1  0.5696040000000  0.4385220000000  0.4733940000000 1.0
C      1  0.4994430000000  0.4811730000000  0.3948480000000 1.0
C      1  0.4231490000000  0.5911340000000  0.5700190000000 1.0
C      1  0.4599520000000  0.5115040000000  0.4493170000000 1.0
C      1  0.4959920000000  0.3807430000000  0.5446900000000 1.0
C      1  0.4860060000000  0.5595710000000  0.4000630000000 1.0
C      1  0.4376350000000  0.5529450000000  0.5084200000000 1.0
C      1  0.3894100000000  0.5776720000000  0.4885450000000 1.0
C      1  0.6381520000000  0.5152100000000  0.5071420000000 1.0
C      1  0.5022740000000  0.5895160000000  0.5618840000000 1.0
C      1  0.5241320000000  0.3795430000000  0.5399320000000 1.0
C      1  0.4176260000000  0.5376520000000  0.4936760000000 1.0
C      1  0.6054350000000  0.5095630000000  0.5610770000000 1.0
C      1  0.4569680000000  0.5137690000000  0.5339730000000 1.0
C      1  0.4901150000000  0.5631120000000  0.5608550000000 1.0
C      1  0.4334640000000  0.5539290000000  0.4345030000000 1.0
C      1  0.5518900000000  0.5968560000000  0.5000480000000 1.0
C      1  0.5673370000000  0.4553910000000  0.5182370000000 1.0
C      1  0.5340200000000  0.5487040000000  0.4758750000000 1.0
C      1  0.5703220000000  0.5871270000000  0.4756120000000 1.0
C      1  0.5877260000000  0.4479570000000  0.5379350000000 1.0
C      1  0.4581590000000  0.4134740000000  0.4487650000000 1.0
C      1  0.4635300000000  0.5603750000000  0.5502150000000 1.0
C      1  0.6203560000000  0.4900590000000  0.5466070000000 1.0
C      1  0.4792430000000  0.3811720000000  0.5220510000000 1.0
C      1  0.5143830000000  0.5271580000000  0.3800110000000 1.0
C      1  0.5433680000000  0.4891000000000  0.5661150000000 1.0
C      1  0.5662800000000  0.5782010000000  0.4469410000000 1.0
C      1  0.4745140000000  0.4857850000000  0.4061440000000 1.0
C      1  0.4926990000000  0.4412640000000  0.5202120000000 1.0
C      1  0.5431560000000  0.4623920000000  0.5579470000000 1.0
C      1  0.5020490000000  0.5412730000000  0.5748880000000 1.0
C      1  0.4654080000000  0.4605410000000  0.4857680000000 1.0
C      1  0.5016340000000  0.6088620000000  0.5409590000000 1.0
C      1  0.5665960000000  0.5261180000000  0.4410630000000 1.0
C      1  0.5926210000000  0.5203510000000  0.4510990000000 1.0
C      1  0.3835000000000  0.5004480000000  0.5388090000000 1.0
C      1  0.5069690000000  0.5722270000000  0.5040430000000 1.0
C      1  0.4114400000000  0.5919680000000  0.4989950000000 1.0
C      1  0.4749560000000  0.6152100000000  0.5012000000000 1.0
C      1  0.3971420000000  0.5234360000000  0.4091960000000 1.0
C      1  0.5430300000000  0.3965290000000  0.5533210000000 1.0
C      1  0.4380410000000  0.4434770000000  0.6051120000000 1.0
C      1  0.4185530000000  0.5187710000000  0.5652060000000 1.0
C      1  0.4734930000000  0.5957020000000  0.4398640000000 1.0
C      1  0.4027990000000  0.4210380000000  0.5134730000000 1.0
C      1  0.6349760000000  0.4472070000000  0.4255620000000 1.0
C      1  0.4294070000000  0.4509480000000  0.5537190000000 1.0
C      1  0.5196370000000  0.5981160000000  0.4669260000000 1.0
C      1  0.5371900000000  0.4923600000000  0.4671800000000 1.0
C      1  0.5124890000000  0.4616400000000  0.5243710000000 1.0
C      1  0.4137980000000  0.4597540000000  0.4858100000000 1.0
C      1  0.5425770000000  0.4976140000000  0.4948690000000 1.0
C      1  0.3643310000000  0.5881720000000  0.4869570000000 1.0
C      1  0.5179550000000  0.4625870000000  0.4073860000000 1.0
C      1  0.4703970000000  0.3946430000000  0.4992650000000 1.0
C      1  0.5268950000000  0.4951030000000  0.5883650000000 1.0
C      1  0.4867130000000  0.4128950000000  0.4835880000000 1.0
C      1  0.4843530000000  0.4394940000000  0.4935940000000 1.0
C      1  0.6111540000000  0.4577840000000  0.4259010000000 1.0
C      1  0.5424240000000  0.3717680000000  0.4925630000000 1.0
C      1  0.4716340000000  0.4879610000000  0.4930350000000 1.0
C      1  0.4196630000000  0.5745010000000  0.4261010000000 1.0
C      1  0.5453230000000  0.4715470000000  0.4045000000000 1.0
C      1  0.5543000000000  0.5057090000000  0.5459460000000 1.0
C      1  0.5185910000000  0.4207490000000  0.5934280000000 1.0
C      1  0.5251680000000  0.5710570000000  0.4591240000000 1.0
C      1  0.5578540000000  0.5530370000000  0.4323980000000 1.0
C      1  0.5126000000000  0.5488430000000  0.3979680000000 1.0
C      1  0.4096630000000  0.4845710000000  0.4987900000000 1.0
C      1  0.5270520000000  0.5343610000000  0.5202180000000 1.0
C      1  0.5114390000000  0.4453610000000  0.6076810000000 1.0
C      1  0.4877830000000  0.3864630000000  0.5708620000000 1.0
C      1  0.4375490000000  0.5814410000000  0.5019620000000 1.0
C      1  0.4974420000000  0.4018930000000  0.5905460000000 1.0
C      1  0.5593020000000  0.5476020000000  0.4921360000000 1.0
C      1  0.6025550000000  0.5072600000000  0.4743200000000 1.0
C      1  0.4866030000000  0.5345280000000  0.4810460000000 1.0
C      1  0.5417960000000  0.4133980000000  0.5784510000000 1.0
C      1  0.3845760000000  0.5391610000000  0.4572830000000 1.0
C      1  0.5105580000000  0.5438030000000  0.4959830000000 1.0
C      1  0.5522860000000  0.5007010000000  0.4438870000000 1.0
C      1  0.5214450000000  0.4719730000000  0.6043580000000 1.0
C      1  0.5152180000000  0.5965950000000  0.5851480000000 1.0
C      1  0.5924680000000  0.4819800000000  0.4834180000000 1.0
C      1  0.6080810000000  0.5515440000000  0.4911410000000 1.0
C      1  0.5433540000000  0.4885710000000  0.3811510000000 1.0
C      1  0.5499220000000  0.5528910000000  0.5199330000000 1.0
C      1  0.6179410000000  0.5249960000000  0.4906830000000 1.0
C      1  0.4012790000000  0.6050740000000  0.5754740000000 1.0
C      1  0.5799790000000  0.5155400000000  0.5509230000000 1.0
C      1  0.5614110000000  0.4795920000000  0.4259990000000 1.0
C      1  0.4610570000000  0.4945220000000  0.4273980000000 1.0
C      1  0.4962040000000  0.4836680000000  0.5359630000000 1.0
C      1  0.6152820000000  0.5214470000000  0.5835720000000 1.0
C      1  0.5745830000000  0.3987280000000  0.5126340000000 1.0
C      1  0.4409930000000  0.5347420000000  0.3834060000000 1.0
C      1  0.4792600000000  0.4505670000000  0.5649580000000 1.0
C      1  0.4867910000000  0.4438810000000  0.6218330000000 1.0
C      1  0.5166750000000  0.4747150000000  0.4620510000000 1.0
C      1  0.5568210000000  0.4136760000000  0.4690680000000 1.0
C      1  0.3854970000000  0.5284390000000  0.4327820000000 1.0
C      1  0.4532920000000  0.5393850000000  0.4473360000000 1.0
C      1  0.5369460000000  0.4106690000000  0.4492920000000 1.0
C      1  0.4178590000000  0.5098260000000  0.4904000000000 1.0
C      1  0.4757250000000  0.4964330000000  0.5204360000000 1.0
C      1  0.5398420000000  0.5090190000000  0.5210960000000 1.0
C      1  0.4878620000000  0.4762330000000  0.5622870000000 1.0
C      1  0.5829210000000  0.5625610000000  0.4864790000000 1.0
C      1  0.4373170000000  0.5018740000000  0.5514940000000 1.0
C      1  0.5166090000000  0.4994870000000  0.3792770000000 1.0
C      1  0.4170030000000  0.5259810000000  0.3914190000000 1.0
C      1  0.4411720000000  0.4214650000000  0.4708430000000 1.0
C      1  0.4395830000000  0.4501790000000  0.4770230000000 1.0
C      1  0.5315200000000  0.3655260000000  0.5164350000000 1.0
C      1  0.4437960000000  0.4051850000000  0.4957130000000 1.0
C      1  0.3958680000000  0.5511590000000  0.4801640000000 1.0
C      1  0.6397900000000  0.4997440000000  0.5288840000000 1.0
C      1  0.5552660000000  0.5804760000000  0.5244560000000 1.0
C      1  0.4787030000000  0.5808170000000  0.4166290000000 1.0
C      1  0.4866510000000  0.6206540000000  0.4412170000000 1.0
C      1  0.4246370000000  0.4769420000000  0.5436410000000 1.0
C      1  0.4437710000000  0.5765300000000  0.5620880000000 1.0
C      1  0.4648240000000  0.5465130000000  0.3863680000000 1.0
C      1  0.5601420000000  0.3934450000000  0.4889580000000 1.0
C      1  0.3795180000000  0.6186310000000  0.5801980000000 1.0
C      1  0.4860030000000  0.4098530000000  0.4549920000000 1.0
C      1  0.4730300000000  0.4360430000000  0.5411080000000 1.0
C      1  0.4709060000000  0.5539320000000  0.4651440000000 1.0
END
