TITL C-3866671-3735-672 12396.1654113522 125000 -787.982213892718 0 0 129 (C1) n - 1
REM
REM in /home/nfs/bkarasulu/CARBON/AIRSS/Generating-Clusters/LCBOP/Only-C1/SD-CG/FIRE-CG
REM
REM
REM
REM
REM
REM ./C.cell (11c1c37f851c82e70ff6c80c92926a4b)
REM AIRSS Version 0.9.1 bugfix July 2018 build 013d7b7c2542+ Fri, 06 Jul 2018 19:26:36 +0100
REM compiler GCC version 9.2.1 20190827 (Red Hat 9.2.1-1)
REM options -cpp -mtune=generic -march=x86-64 -g -O0 -fpre-include=/usr/include/finclude/math-vector-fortran.h
REM seed 1115740300 -236856790 -2028584382 1105439529 -1661456686 -1250458659 -1825224196 -533130531 1744811154 -323916474 67420782 832043285 -221851661 -219334102 -552591300 -995446935 327392221 1703836718 -1350772886 424613779 -1746290155 -33908449 1758628216 -634083324 21969125 1612666696 1216958433 790899306 1645074577 -2130458449 746503748 1766068464 1340886101
REM
CELL 1.54180   50.00000   50.00000   50.00000   90.00000   90.00000   90.00000
LATT -1
SFAC C  
C      1  0.5471450000000  0.6047370000000  0.4739090000000 1.0
C      1  0.4886330000000  0.4265040000000  0.4491700000000 1.0
C      1  0.4595350000000  0.5814080000000  0.5337580000000 1.0
C      1  0.4252530000000  0.5084480000000  0.5542300000000 1.0
C      1  0.5083220000000  0.5843290000000  0.4435520000000 1.0
C      1  0.4978680000000  0.5355310000000  0.5706870000000 1.0
C      1  0.4623920000000  0.4132020000000  0.4510600000000 1.0
C      1  0.5558320000000  0.4634970000000  0.5744530000000 1.0
C      1  0.5322980000000  0.4469440000000  0.5737990000000 1.0
C      1  0.4071610000000  0.4422450000000  0.5314120000000 1.0
C      1  0.4813550000000  0.5709380000000  0.4393660000000 1.0
C      1  0.5765720000000  0.5604840000000  0.4498720000000 1.0
C      1  0.4858180000000  0.5289980000000  0.4934660000000 1.0
C      1  0.5307310000000  0.5680250000000  0.4332680000000 1.0
C      1  0.5995160000000  0.5483030000000  0.4573770000000 1.0
C      1  0.4289010000000  0.5323470000000  0.4879320000000 1.0
C      1  0.5076270000000  0.4559810000000  0.5136500000000 1.0
C      1  0.4654250000000  0.5192990000000  0.6157910000000 1.0
C      1  0.4520930000000  0.4932360000000  0.4965770000000 1.0
C      1  0.4653740000000  0.6037700000000  0.5173070000000 1.0
C      1  0.5480370000000  0.5124530000000  0.4800050000000 1.0
C      1  0.5625430000000  0.5220450000000  0.5022560000000 1.0
C      1  0.5925180000000  0.4850230000000  0.5479240000000 1.0
C      1  0.5696690000000  0.5751640000000  0.5363280000000 1.0
C      1  0.4646380000000  0.4514080000000  0.5270740000000 1.0
C      1  0.3768970000000  0.4961610000000  0.4583220000000 1.0
C      1  0.5602160000000  0.4186700000000  0.4955410000000 1.0
C      1  0.4914210000000  0.4404130000000  0.5311990000000 1.0
C      1  0.4017540000000  0.4650920000000  0.5475170000000 1.0
C      1  0.5624040000000  0.4669290000000  0.5183880000000 1.0
C      1  0.3859190000000  0.4717610000000  0.4690280000000 1.0
C      1  0.4794800000000  0.5611840000000  0.5350780000000 1.0
C      1  0.5282950000000  0.5453810000000  0.4157150000000 1.0
C      1  0.4905280000000  0.5518880000000  0.5092790000000 1.0
C      1  0.4632200000000  0.4856430000000  0.3887380000000 1.0
C      1  0.5316020000000  0.5562460000000  0.4771290000000 1.0
C      1  0.5946400000000  0.4652440000000  0.4714770000000 1.0
C      1  0.4172490000000  0.4594160000000  0.4348530000000 1.0
C      1  0.5431980000000  0.5332460000000  0.5427850000000 1.0
C      1  0.4461510000000  0.5383530000000  0.4636060000000 1.0
C      1  0.4811530000000  0.5566630000000  0.4143210000000 1.0
C      1  0.5508660000000  0.5127260000000  0.5262060000000 1.0
C      1  0.4053570000000  0.4926140000000  0.5399800000000 1.0
C      1  0.3984630000000  0.4975880000000  0.5111440000000 1.0
C      1  0.5133220000000  0.5690480000000  0.4976650000000 1.0
C      1  0.5465040000000  0.4908620000000  0.4625310000000 1.0
C      1  0.4441380000000  0.5179120000000  0.5082180000000 1.0
C      1  0.4052820000000  0.4472470000000  0.5036120000000 1.0
C      1  0.5891490000000  0.4782520000000  0.5199530000000 1.0
C      1  0.4821080000000  0.4761610000000  0.4058820000000 1.0
C      1  0.5037430000000  0.5972750000000  0.4899060000000 1.0
C      1  0.5820120000000  0.5438350000000  0.5003100000000 1.0
C      1  0.4584940000000  0.5133830000000  0.4531820000000 1.0
C      1  0.5463960000000  0.5576900000000  0.5919080000000 1.0
C      1  0.4429680000000  0.5264710000000  0.6007370000000 1.0
C      1  0.5099360000000  0.4497290000000  0.4844130000000 1.0
C      1  0.4486800000000  0.4257040000000  0.4294900000000 1.0
C      1  0.5060950000000  0.4369450000000  0.4282510000000 1.0
C      1  0.4965230000000  0.4924700000000  0.4247900000000 1.0
C      1  0.5463740000000  0.3709360000000  0.4413330000000 1.0
C      1  0.5270230000000  0.5761920000000  0.5225290000000 1.0
C      1  0.5670630000000  0.5932170000000  0.4898690000000 1.0
C      1  0.5028220000000  0.5443150000000  0.4033730000000 1.0
C      1  0.4843360000000  0.4505330000000  0.4666340000000 1.0
C      1  0.4917740000000  0.4490370000000  0.4060750000000 1.0
C      1  0.5002400000000  0.5204090000000  0.4702550000000 1.0
C      1  0.5812730000000  0.4532620000000  0.4509610000000 1.0
C      1  0.5619720000000  0.4399950000000  0.5114300000000 1.0
C      1  0.4628830000000  0.4116900000000  0.5014910000000 1.0
C      1  0.5305560000000  0.4649930000000  0.4672340000000 1.0
C      1  0.4507310000000  0.4270770000000  0.5223290000000 1.0
C      1  0.5396450000000  0.4075640000000  0.4800990000000 1.0
C      1  0.4673260000000  0.4747110000000  0.5434450000000 1.0
C      1  0.4836740000000  0.4458930000000  0.5772620000000 1.0
C      1  0.5641600000000  0.5900990000000  0.5605170000000 1.0
C      1  0.5435980000000  0.5005950000000  0.4343220000000 1.0
C      1  0.5191650000000  0.4071670000000  0.5341150000000 1.0
C      1  0.5142020000000  0.4183100000000  0.4863500000000 1.0
C      1  0.4584940000000  0.5651690000000  0.4575300000000 1.0
C      1  0.4759430000000  0.4934020000000  0.6080070000000 1.0
C      1  0.4976000000000  0.4059400000000  0.5059240000000 1.0
C      1  0.3839560000000  0.5198570000000  0.4696800000000 1.0
C      1  0.4410200000000  0.5228470000000  0.5355470000000 1.0
C      1  0.5491270000000  0.5640090000000  0.4547720000000 1.0
C      1  0.5687060000000  0.5098480000000  0.5846080000000 1.0
C      1  0.4535230000000  0.4891360000000  0.4686690000000 1.0
C      1  0.4872080000000  0.4265410000000  0.5569230000000 1.0
C      1  0.4549620000000  0.4845950000000  0.5886500000000 1.0
C      1  0.5782110000000  0.5726970000000  0.5083550000000 1.0
C      1  0.5130240000000  0.5845290000000  0.5639920000000 1.0
C      1  0.4507790000000  0.6043180000000  0.4930190000000 1.0
C      1  0.5418380000000  0.4860410000000  0.5253370000000 1.0
C      1  0.3926050000000  0.4725020000000  0.4969780000000 1.0
C      1  0.5238500000000  0.4823360000000  0.4246220000000 1.0
C      1  0.5263750000000  0.5288690000000  0.4740350000000 1.0
C      1  0.4475170000000  0.4153780000000  0.4766110000000 1.0
C      1  0.4639700000000  0.4657470000000  0.5706130000000 1.0
C      1  0.5595710000000  0.4467500000000  0.4353460000000 1.0
C      1  0.6115440000000  0.5087240000000  0.4867830000000 1.0
C      1  0.5009020000000  0.4787290000000  0.6060110000000 1.0
C      1  0.4030110000000  0.4512930000000  0.4575490000000 1.0
C      1  0.4966290000000  0.5114110000000  0.5594130000000 1.0
C      1  0.4270480000000  0.4233720000000  0.5367380000000 1.0
C      1  0.5305880000000  0.4234990000000  0.5544480000000 1.0
C      1  0.4805540000000  0.4004120000000  0.5616580000000 1.0
C      1  0.5476500000000  0.5238250000000  0.4179090000000 1.0
C      1  0.5452590000000  0.5595890000000  0.5350430000000 1.0
C      1  0.5436210000000  0.3879900000000  0.4608430000000 1.0
C      1  0.4018540000000  0.5209680000000  0.4918850000000 1.0
C      1  0.4919290000000  0.4912660000000  0.5405470000000 1.0
C      1  0.5126190000000  0.5971910000000  0.5370990000000 1.0
C      1  0.5080110000000  0.4563670000000  0.5885990000000 1.0
C      1  0.6028220000000  0.5354100000000  0.4822660000000 1.0
C      1  0.4486040000000  0.5875840000000  0.4720620000000 1.0
C      1  0.6010950000000  0.4829530000000  0.4935950000000 1.0
C      1  0.4360000000000  0.5060840000000  0.5810030000000 1.0
C      1  0.5737440000000  0.4856740000000  0.5702460000000 1.0
C      1  0.4940460000000  0.6078480000000  0.5155760000000 1.0
C      1  0.4949350000000  0.5611280000000  0.5599520000000 1.0
C      1  0.5404200000000  0.5810470000000  0.5761770000000 1.0
C      1  0.5580040000000  0.5332490000000  0.5927670000000 1.0
C      1  0.4609340000000  0.4647010000000  0.4570250000000 1.0
C      1  0.5299670000000  0.4543790000000  0.4370450000000 1.0
C      1  0.5142030000000  0.4805220000000  0.5254190000000 1.0
C      1  0.4175960000000  0.4347960000000  0.4790770000000 1.0
C      1  0.5182960000000  0.6019850000000  0.4656780000000 1.0
C      1  0.4444430000000  0.4533670000000  0.4351010000000 1.0
C      1  0.4869810000000  0.5107110000000  0.4461020000000 1.0
C      1  0.5701730000000  0.5249000000000  0.4021680000000 1.0
END
