TITL C-3866670-4165-297 -4.01678694403188e-06 125000 -360.399160316683 0 0 60 (C1) n - 1
REM
REM in /home/nfs/bkarasulu/CARBON/AIRSS/Generating-Clusters/LCBOP/Only-C1/SD-CG/FIRE-CG
REM
REM
REM
REM
REM
REM ./C.cell (11c1c37f851c82e70ff6c80c92926a4b)
REM AIRSS Version 0.9.1 bugfix July 2018 build 013d7b7c2542+ Fri, 06 Jul 2018 19:26:36 +0100
REM compiler GCC version 9.2.1 20190827 (Red Hat 9.2.1-1)
REM options -cpp -mtune=generic -march=x86-64 -g -O0 -fpre-include=/usr/include/finclude/math-vector-fortran.h
REM seed 549714800 -1028562766 1201382551 -1405351542 -1303669063 -1854233782 1135433424 1664950899 -1830380760 369977039 -174719430 705577596 54175376 951011 1166701853 -1462600729 -1989490085 1374905082 1343263237 1414504820 70283360 988823946 2132296146 1248245094 -1999097223 -1123653854 2007878193 -1171432364 668648690 -1905520621 -626431153 271013790 -352616292
REM
CELL 1.54180   50.00000   50.00000   50.00000   90.00000   90.00000   90.00000
LATT -1
SFAC C  
C      1  0.5080660000000  0.5601760000000  0.4924080000000 1.0
C      1  0.4983470000000  0.5201010000000  0.4674400000000 1.0
C      1  0.4844590000000  0.4748040000000  0.4784960000000 1.0
C      1  0.5128580000000  0.4368190000000  0.5525910000000 1.0
C      1  0.4419200000000  0.5317790000000  0.4727980000000 1.0
C      1  0.4677220000000  0.4562820000000  0.5604000000000 1.0
C      1  0.4421900000000  0.4679170000000  0.5181420000000 1.0
C      1  0.5490340000000  0.5652130000000  0.5199360000000 1.0
C      1  0.4933880000000  0.5540860000000  0.5170270000000 1.0
C      1  0.5104360000000  0.4690340000000  0.4689650000000 1.0
C      1  0.5501210000000  0.6217960000000  0.5528380000000 1.0
C      1  0.5436530000000  0.6286840000000  0.5061030000000 1.0
C      1  0.4304410000000  0.5119600000000  0.4892050000000 1.0
C      1  0.5174070000000  0.4061340000000  0.4831250000000 1.0
C      1  0.4907140000000  0.4845140000000  0.5324630000000 1.0
C      1  0.5594680000000  0.4876420000000  0.4854410000000 1.0
C      1  0.5922440000000  0.5867500000000  0.5178370000000 1.0
C      1  0.5271880000000  0.4294510000000  0.5288420000000 1.0
C      1  0.4509060000000  0.5410770000000  0.5359340000000 1.0
C      1  0.4850700000000  0.4331130000000  0.5598420000000 1.0
C      1  0.4592890000000  0.5043700000000  0.5740240000000 1.0
C      1  0.4644330000000  0.5524620000000  0.5135130000000 1.0
C      1  0.5366430000000  0.5571610000000  0.4951240000000 1.0
C      1  0.5203340000000  0.4262450000000  0.4632680000000 1.0
C      1  0.4901960000000  0.5470370000000  0.4728860000000 1.0
C      1  0.4659420000000  0.4682700000000  0.5333090000000 1.0
C      1  0.5089550000000  0.4602060000000  0.4256140000000 1.0
C      1  0.5863340000000  0.4916250000000  0.4909110000000 1.0
C      1  0.5527920000000  0.6133910000000  0.5269070000000 1.0
C      1  0.4513110000000  0.5245470000000  0.5575380000000 1.0
C      1  0.5498350000000  0.5365990000000  0.4808210000000 1.0
C      1  0.5437210000000  0.5489140000000  0.5426620000000 1.0
C      1  0.4944580000000  0.5058510000000  0.5151050000000 1.0
C      1  0.4393420000000  0.5297280000000  0.4449450000000 1.0
C      1  0.4740880000000  0.4365230000000  0.4504960000000 1.0
C      1  0.5300210000000  0.4506230000000  0.4755270000000 1.0
C      1  0.5034580000000  0.5299140000000  0.5274980000000 1.0
C      1  0.5484880000000  0.4616530000000  0.4936270000000 1.0
C      1  0.5230600000000  0.5305480000000  0.5477390000000 1.0
C      1  0.5194370000000  0.4093340000000  0.5101500000000 1.0
C      1  0.5456040000000  0.5100080000000  0.4716060000000 1.0
C      1  0.4949420000000  0.4678140000000  0.4024640000000 1.0
C      1  0.4453120000000  0.5191400000000  0.4212450000000 1.0
C      1  0.4279020000000  0.4439480000000  0.5158650000000 1.0
C      1  0.4622570000000  0.5481360000000  0.4842640000000 1.0
C      1  0.4577200000000  0.5033100000000  0.4037830000000 1.0
C      1  0.5218990000000  0.5083450000000  0.4541020000000 1.0
C      1  0.4659050000000  0.4560100000000  0.4681680000000 1.0
C      1  0.5186440000000  0.5106240000000  0.5669280000000 1.0
C      1  0.4752750000000  0.4847890000000  0.3960550000000 1.0
C      1  0.4875130000000  0.5017030000000  0.4877610000000 1.0
C      1  0.4762300000000  0.4809450000000  0.5760040000000 1.0
C      1  0.5212860000000  0.4616150000000  0.5642640000000 1.0
C      1  0.4321880000000  0.4908690000000  0.5053960000000 1.0
C      1  0.5016810000000  0.4350800000000  0.4412610000000 1.0
C      1  0.4159050000000  0.4209400000000  0.5134490000000 1.0
C      1  0.5468560000000  0.4484240000000  0.5188140000000 1.0
C      1  0.5035270000000  0.4856790000000  0.5616680000000 1.0
C      1  0.5164100000000  0.4819340000000  0.4439070000000 1.0
C      1  0.5651740000000  0.5883530000000  0.5215010000000 1.0
END
