TITL C-3866672-3872-750 -1.86119533207867 125000 -869.405250975208 0 0 141 (C1) n - 1
REM
REM in /home/nfs/bkarasulu/CARBON/AIRSS/Generating-Clusters/LCBOP/Only-C1/SD-CG/FIRE-CG
REM
REM
REM
REM
REM
REM ./C.cell (11c1c37f851c82e70ff6c80c92926a4b)
REM AIRSS Version 0.9.1 bugfix July 2018 build 013d7b7c2542+ Fri, 06 Jul 2018 19:26:36 +0100
REM compiler GCC version 9.2.1 20190827 (Red Hat 9.2.1-1)
REM options -cpp -mtune=generic -march=x86-64 -g -O0 -fpre-include=/usr/include/finclude/math-vector-fortran.h
REM seed 394211189 173498935 -2125400523 1335537226 -1745003780 -112379036 -782593656 -2029226884 923226814 -1917541302 -1004435127 -1859622353 -1633178470 -1932168464 966595231 1316803389 76084083 505977166 149226140 1582325914 1258673072 1548732816 -1440601324 1419230678 -81590216 -1412742497 505560547 159357947 1297390620 -1678820279 1480986449 -1279295109 1785022362
REM
CELL 1.54180   50.00000   50.00000   50.00000   90.00000   90.00000   90.00000
LATT -1
SFAC C  
C      1  0.5459910000000  0.4603230000000  0.5338000000000 1.0
C      1  0.4006240000000  0.4472690000000  0.4719030000000 1.0
C      1  0.4247610000000  0.4323840000000  0.4840040000000 1.0
C      1  0.4470040000000  0.6021080000000  0.5355490000000 1.0
C      1  0.5764750000000  0.4860110000000  0.4671870000000 1.0
C      1  0.4969600000000  0.5958540000000  0.5417680000000 1.0
C      1  0.5120020000000  0.5129400000000  0.4668460000000 1.0
C      1  0.4777160000000  0.4860560000000  0.5777430000000 1.0
C      1  0.5134620000000  0.4849540000000  0.3887830000000 1.0
C      1  0.5003700000000  0.4371060000000  0.5182740000000 1.0
C      1  0.6069800000000  0.4971920000000  0.5351340000000 1.0
C      1  0.4189450000000  0.4796370000000  0.4282500000000 1.0
C      1  0.5491890000000  0.5920160000000  0.5404190000000 1.0
C      1  0.5408740000000  0.5819280000000  0.5900460000000 1.0
C      1  0.5155990000000  0.5044580000000  0.5608120000000 1.0
C      1  0.4395770000000  0.4978630000000  0.4855530000000 1.0
C      1  0.4153630000000  0.5002530000000  0.4700220000000 1.0
C      1  0.4550790000000  0.5181080000000  0.5257850000000 1.0
C      1  0.5977710000000  0.5536860000000  0.5090800000000 1.0
C      1  0.3812200000000  0.4566330000000  0.4910920000000 1.0
C      1  0.4295350000000  0.5121750000000  0.5700440000000 1.0
C      1  0.4851660000000  0.4723710000000  0.4854080000000 1.0
C      1  0.5310980000000  0.5572840000000  0.4165820000000 1.0
C      1  0.5253840000000  0.5383900000000  0.4609590000000 1.0
C      1  0.5345940000000  0.4652350000000  0.3951420000000 1.0
C      1  0.4174500000000  0.5653720000000  0.5179580000000 1.0
C      1  0.4490340000000  0.4212770000000  0.5738320000000 1.0
C      1  0.4600980000000  0.4906280000000  0.3946290000000 1.0
C      1  0.5264410000000  0.4211560000000  0.4285560000000 1.0
C      1  0.5040300000000  0.6020360000000  0.4398420000000 1.0
C      1  0.5367390000000  0.4568450000000  0.4842580000000 1.0
C      1  0.5724040000000  0.5949080000000  0.5242750000000 1.0
C      1  0.5116820000000  0.4726880000000  0.4391690000000 1.0
C      1  0.4040940000000  0.5224110000000  0.5625280000000 1.0
C      1  0.5939420000000  0.4825410000000  0.4897780000000 1.0
C      1  0.6009690000000  0.4973220000000  0.5626350000000 1.0
C      1  0.4530980000000  0.4655920000000  0.5292040000000 1.0
C      1  0.4972640000000  0.5679060000000  0.5877130000000 1.0
C      1  0.4933390000000  0.4368830000000  0.5829000000000 1.0
C      1  0.4573630000000  0.5379500000000  0.4166310000000 1.0
C      1  0.4978750000000  0.5413610000000  0.5060550000000 1.0
C      1  0.4212210000000  0.5048610000000  0.4425210000000 1.0
C      1  0.4728770000000  0.5979080000000  0.5256680000000 1.0
C      1  0.5604330000000  0.4755730000000  0.4005690000000 1.0
C      1  0.3583000000000  0.4425230000000  0.4959170000000 1.0
C      1  0.5021400000000  0.4166040000000  0.4452000000000 1.0
C      1  0.5565990000000  0.5190610000000  0.5920130000000 1.0
C      1  0.4527760000000  0.3911660000000  0.4814620000000 1.0
C      1  0.5200350000000  0.5865960000000  0.4990650000000 1.0
C      1  0.4570170000000  0.4739380000000  0.4805020000000 1.0
C      1  0.5481890000000  0.4481100000000  0.5082010000000 1.0
C      1  0.4364420000000  0.4779460000000  0.4056500000000 1.0
C      1  0.5165580000000  0.5124470000000  0.3989730000000 1.0
C      1  0.4394230000000  0.5219880000000  0.5032220000000 1.0
C      1  0.5569060000000  0.5699290000000  0.4778080000000 1.0
C      1  0.5117900000000  0.5511620000000  0.4375470000000 1.0
C      1  0.3867360000000  0.4812500000000  0.5048570000000 1.0
C      1  0.4856550000000  0.4768420000000  0.3970400000000 1.0
C      1  0.4251340000000  0.5872640000000  0.5310230000000 1.0
C      1  0.5118650000000  0.4262270000000  0.5413600000000 1.0
C      1  0.4636930000000  0.4426490000000  0.5865780000000 1.0
C      1  0.5425220000000  0.5160960000000  0.5251400000000 1.0
C      1  0.5228630000000  0.5609320000000  0.5972960000000 1.0
C      1  0.5827310000000  0.4785850000000  0.5748730000000 1.0
C      1  0.5374290000000  0.4033870000000  0.4709570000000 1.0
C      1  0.5553300000000  0.5803100000000  0.5660320000000 1.0
C      1  0.5499270000000  0.4887000000000  0.5320490000000 1.0
C      1  0.4299620000000  0.4817550000000  0.5699260000000 1.0
C      1  0.6022340000000  0.4568450000000  0.4983500000000 1.0
C      1  0.5342750000000  0.5349090000000  0.6008490000000 1.0
C      1  0.5493780000000  0.4775310000000  0.4690920000000 1.0
C      1  0.4825870000000  0.5869900000000  0.4318620000000 1.0
C      1  0.5471740000000  0.4099740000000  0.4457210000000 1.0
C      1  0.4529460000000  0.4111210000000  0.5244120000000 1.0
C      1  0.4294800000000  0.4036990000000  0.4742020000000 1.0
C      1  0.5080960000000  0.4560250000000  0.4793190000000 1.0
C      1  0.4973240000000  0.5683100000000  0.4960680000000 1.0
C      1  0.5919230000000  0.5259900000000  0.4410520000000 1.0
C      1  0.5207780000000  0.5250440000000  0.5425230000000 1.0
C      1  0.4926350000000  0.5855130000000  0.5677580000000 1.0
C      1  0.4425630000000  0.5245780000000  0.4383940000000 1.0
C      1  0.4171950000000  0.5406770000000  0.5050330000000 1.0
C      1  0.4964250000000  0.5390800000000  0.5349810000000 1.0
C      1  0.5230510000000  0.5941530000000  0.5276520000000 1.0
C      1  0.5370600000000  0.5901450000000  0.4756320000000 1.0
C      1  0.5978210000000  0.5035400000000  0.5090890000000 1.0
C      1  0.3923560000000  0.4842380000000  0.5336000000000 1.0
C      1  0.5742240000000  0.5735800000000  0.4293090000000 1.0
C      1  0.5852120000000  0.5287410000000  0.5058070000000 1.0
C      1  0.4288300000000  0.4518220000000  0.5311490000000 1.0
C      1  0.5470250000000  0.5435440000000  0.4797220000000 1.0
C      1  0.4580120000000  0.4912460000000  0.5312360000000 1.0
C      1  0.5922020000000  0.5792240000000  0.5151020000000 1.0
C      1  0.6025220000000  0.5216550000000  0.5763760000000 1.0
C      1  0.5312820000000  0.4442510000000  0.5533460000000 1.0
C      1  0.5840100000000  0.4989430000000  0.4425380000000 1.0
C      1  0.4556550000000  0.5268390000000  0.5704700000000 1.0
C      1  0.5294880000000  0.4390050000000  0.4065580000000 1.0
C      1  0.5973130000000  0.4387260000000  0.5461620000000 1.0
C      1  0.5465650000000  0.5793700000000  0.4275150000000 1.0
C      1  0.4892490000000  0.5136260000000  0.4477680000000 1.0
C      1  0.6032670000000  0.4411010000000  0.5200960000000 1.0
C      1  0.4303170000000  0.4285970000000  0.5155860000000 1.0
C      1  0.4639610000000  0.5205860000000  0.4567480000000 1.0
C      1  0.5775410000000  0.4858420000000  0.4183390000000 1.0
C      1  0.4688420000000  0.5343790000000  0.5448080000000 1.0
C      1  0.5274500000000  0.4897060000000  0.4557190000000 1.0
C      1  0.4831950000000  0.5582910000000  0.4289740000000 1.0
C      1  0.4468000000000  0.4490620000000  0.4709460000000 1.0
C      1  0.4978190000000  0.4717770000000  0.5288770000000 1.0
C      1  0.3921200000000  0.5297780000000  0.4971310000000 1.0
C      1  0.4970700000000  0.4833910000000  0.5562640000000 1.0
C      1  0.4908790000000  0.4661840000000  0.4232220000000 1.0
C      1  0.5563630000000  0.5288510000000  0.5030870000000 1.0
C      1  0.5211910000000  0.4506500000000  0.5806870000000 1.0
C      1  0.4053660000000  0.4589570000000  0.4447640000000 1.0
C      1  0.5742280000000  0.5594390000000  0.5676950000000 1.0
C      1  0.5092070000000  0.4100890000000  0.4737780000000 1.0
C      1  0.4689400000000  0.4023870000000  0.5020630000000 1.0
C      1  0.4129290000000  0.4688640000000  0.5478720000000 1.0
C      1  0.5892620000000  0.5518780000000  0.4346590000000 1.0
C      1  0.4935950000000  0.4168300000000  0.4974510000000 1.0
C      1  0.5784010000000  0.5351200000000  0.5810390000000 1.0
C      1  0.5020820000000  0.5149550000000  0.4948510000000 1.0
C      1  0.4979380000000  0.5137840000000  0.4209500000000 1.0
C      1  0.5309330000000  0.5955830000000  0.4475080000000 1.0
C      1  0.4549600000000  0.4691730000000  0.5806440000000 1.0
C      1  0.3864410000000  0.5087690000000  0.5469330000000 1.0
C      1  0.5322440000000  0.5362860000000  0.3971260000000 1.0
C      1  0.5588340000000  0.4893460000000  0.5888240000000 1.0
C      1  0.4638270000000  0.4107960000000  0.5512820000000 1.0
C      1  0.4951480000000  0.4896930000000  0.5061260000000 1.0
C      1  0.4919220000000  0.4168600000000  0.5595680000000 1.0
C      1  0.5878500000000  0.4517280000000  0.5677520000000 1.0
C      1  0.3927480000000  0.5034050000000  0.4871780000000 1.0
C      1  0.4759440000000  0.4218310000000  0.4376300000000 1.0
C      1  0.4596830000000  0.5198830000000  0.3942690000000 1.0
C      1  0.4740230000000  0.5835730000000  0.5010250000000 1.0
C      1  0.4736020000000  0.5125010000000  0.5873190000000 1.0
C      1  0.4568540000000  0.4376140000000  0.4472760000000 1.0
C      1  0.5372200000000  0.4706120000000  0.5936920000000 1.0
END
