TITL C-3866676-3738-615 0.000259351374846264 125000 -935.375810353658 0 0 152 (C1) n - 1
REM
REM in /home/nfs/bkarasulu/CARBON/AIRSS/Generating-Clusters/LCBOP/Only-C1/SD-CG/FIRE-CG
REM
REM
REM
REM
REM
REM ./C.cell (11c1c37f851c82e70ff6c80c92926a4b)
REM AIRSS Version 0.9.1 bugfix July 2018 build 013d7b7c2542+ Fri, 06 Jul 2018 19:26:36 +0100
REM compiler GCC version 9.2.1 20190827 (Red Hat 9.2.1-1)
REM options -cpp -mtune=generic -march=x86-64 -g -O0 -fpre-include=/usr/include/finclude/math-vector-fortran.h
REM seed -1332652325 -1691427987 -1988529235 368696529 1922174493 -1875492755 1225644871 -2111534500 1155891372 881701713 132569857 -229965196 815066702 -1835397607 1968160259 -384217555 -796002705 2078225967 -1092786240 -32126524 214088203 -89660291 -1052536444 283549547 789588984 -1341116568 115420092 221654474 -2013657086 1637146974 -1867105833 -1655701426 2089468076
REM
CELL 1.54180   50.00000   50.00000   50.00000   90.00000   90.00000   90.00000
LATT -1
SFAC C  
C      1  0.5943080000000  0.4980770000000  0.4157960000000 1.0
C      1  0.3980650000000  0.5094220000000  0.5340730000000 1.0
C      1  0.4730970000000  0.5397470000000  0.5362010000000 1.0
C      1  0.4563640000000  0.5853510000000  0.5152660000000 1.0
C      1  0.5630150000000  0.4664460000000  0.5207070000000 1.0
C      1  0.4867150000000  0.4228260000000  0.4850970000000 1.0
C      1  0.5503660000000  0.4890600000000  0.4617460000000 1.0
C      1  0.5445290000000  0.5478080000000  0.6000420000000 1.0
C      1  0.5843170000000  0.5496750000000  0.4784270000000 1.0
C      1  0.5221660000000  0.5966720000000  0.4190790000000 1.0
C      1  0.4632250000000  0.3824860000000  0.4955960000000 1.0
C      1  0.4376970000000  0.5810990000000  0.4942200000000 1.0
C      1  0.5660150000000  0.5689380000000  0.5405180000000 1.0
C      1  0.5784440000000  0.4342160000000  0.4474680000000 1.0
C      1  0.3980450000000  0.4443510000000  0.4838150000000 1.0
C      1  0.5123020000000  0.4363680000000  0.5717930000000 1.0
C      1  0.5722610000000  0.5729330000000  0.4658710000000 1.0
C      1  0.6123730000000  0.5201540000000  0.5352750000000 1.0
C      1  0.4865190000000  0.5177110000000  0.5486390000000 1.0
C      1  0.4998720000000  0.4473630000000  0.5492540000000 1.0
C      1  0.5135160000000  0.4279790000000  0.4787110000000 1.0
C      1  0.6020030000000  0.5226910000000  0.4097250000000 1.0
C      1  0.4951610000000  0.5940610000000  0.4296800000000 1.0
C      1  0.4776650000000  0.5769740000000  0.5630930000000 1.0
C      1  0.5637270000000  0.5256770000000  0.5965260000000 1.0
C      1  0.5260970000000  0.5660330000000  0.4644810000000 1.0
C      1  0.5228550000000  0.5889380000000  0.5459340000000 1.0
C      1  0.5670630000000  0.5056310000000  0.4762640000000 1.0
C      1  0.4002590000000  0.5398060000000  0.4720320000000 1.0
C      1  0.4161520000000  0.4913680000000  0.6069860000000 1.0
C      1  0.5107270000000  0.4894730000000  0.6353870000000 1.0
C      1  0.5285980000000  0.4048080000000  0.4705550000000 1.0
C      1  0.5197770000000  0.4512650000000  0.4640950000000 1.0
C      1  0.4874280000000  0.3911200000000  0.4493910000000 1.0
C      1  0.5117550000000  0.5105360000000  0.4903870000000 1.0
C      1  0.4907470000000  0.4928540000000  0.4958300000000 1.0
C      1  0.4668020000000  0.4431560000000  0.4908200000000 1.0
C      1  0.4880560000000  0.6060320000000  0.4542720000000 1.0
C      1  0.4205530000000  0.4418170000000  0.4406330000000 1.0
C      1  0.4692670000000  0.4451890000000  0.3903300000000 1.0
C      1  0.4761570000000  0.5103420000000  0.6672710000000 1.0
C      1  0.4270320000000  0.5519630000000  0.5398920000000 1.0
C      1  0.4507140000000  0.5210860000000  0.6116160000000 1.0
C      1  0.5779610000000  0.5220060000000  0.5718780000000 1.0
C      1  0.5367550000000  0.5709110000000  0.4208740000000 1.0
C      1  0.6121270000000  0.5152840000000  0.5066250000000 1.0
C      1  0.6045390000000  0.4737810000000  0.4727880000000 1.0
C      1  0.5097770000000  0.4614390000000  0.4157400000000 1.0
C      1  0.4211370000000  0.4880390000000  0.4543460000000 1.0
C      1  0.4865770000000  0.6079520000000  0.4811220000000 1.0
C      1  0.5546440000000  0.4553890000000  0.4962640000000 1.0
C      1  0.5773770000000  0.4131510000000  0.4661470000000 1.0
C      1  0.4922470000000  0.4606100000000  0.3923640000000 1.0
C      1  0.5159480000000  0.4619050000000  0.5312840000000 1.0
C      1  0.4185450000000  0.5080520000000  0.4088930000000 1.0
C      1  0.6255670000000  0.5205150000000  0.5820610000000 1.0
C      1  0.4878290000000  0.5661300000000  0.4220760000000 1.0
C      1  0.4176380000000  0.4890110000000  0.4824810000000 1.0
C      1  0.5223720000000  0.5236900000000  0.5125000000000 1.0
C      1  0.4609580000000  0.4713470000000  0.5635620000000 1.0
C      1  0.4174580000000  0.5102910000000  0.4369950000000 1.0
C      1  0.4659520000000  0.5492660000000  0.4375730000000 1.0
C      1  0.5428780000000  0.4643910000000  0.4725780000000 1.0
C      1  0.5341540000000  0.4770690000000  0.4086880000000 1.0
C      1  0.6051330000000  0.4875430000000  0.4988930000000 1.0
C      1  0.4796060000000  0.5215810000000  0.3988380000000 1.0
C      1  0.5644230000000  0.5310050000000  0.4872210000000 1.0
C      1  0.5493850000000  0.5689140000000  0.4477260000000 1.0
C      1  0.5680410000000  0.5948590000000  0.4839600000000 1.0
C      1  0.4796990000000  0.5454410000000  0.5096950000000 1.0
C      1  0.5580270000000  0.4629980000000  0.4159740000000 1.0
C      1  0.4898960000000  0.5004720000000  0.5952050000000 1.0
C      1  0.5825200000000  0.4751840000000  0.4261240000000 1.0
C      1  0.3997720000000  0.5423280000000  0.4986900000000 1.0
C      1  0.3902110000000  0.4863490000000  0.5184750000000 1.0
C      1  0.5476520000000  0.5360200000000  0.5091730000000 1.0
C      1  0.6080600000000  0.5476860000000  0.4054610000000 1.0
C      1  0.5562980000000  0.4348460000000  0.4267000000000 1.0
C      1  0.4276080000000  0.4339390000000  0.4145590000000 1.0
C      1  0.5543330000000  0.6002560000000  0.5066760000000 1.0
C      1  0.5476630000000  0.5621890000000  0.6241330000000 1.0
C      1  0.4616890000000  0.4010350000000  0.4083710000000 1.0
C      1  0.3990920000000  0.4713500000000  0.4955050000000 1.0
C      1  0.5471510000000  0.5885000000000  0.5313890000000 1.0
C      1  0.4658030000000  0.5059320000000  0.4915930000000 1.0
C      1  0.4722680000000  0.4978830000000  0.4401670000000 1.0
C      1  0.4717590000000  0.5009590000000  0.5699430000000 1.0
C      1  0.4358810000000  0.5762670000000  0.4676130000000 1.0
C      1  0.5165110000000  0.3987940000000  0.4439180000000 1.0
C      1  0.5026390000000  0.4821360000000  0.3758240000000 1.0
C      1  0.4169380000000  0.5362220000000  0.4492950000000 1.0
C      1  0.5557020000000  0.4004650000000  0.4760320000000 1.0
C      1  0.4477950000000  0.3923420000000  0.5154870000000 1.0
C      1  0.4697690000000  0.5216690000000  0.4256440000000 1.0
C      1  0.5088610000000  0.5249780000000  0.3984710000000 1.0
C      1  0.4382140000000  0.3872130000000  0.4482400000000 1.0
C      1  0.5899270000000  0.4745010000000  0.5196450000000 1.0
C      1  0.5411930000000  0.4746450000000  0.5373730000000 1.0
C      1  0.4632810000000  0.3891180000000  0.4337560000000 1.0
C      1  0.4902020000000  0.5080520000000  0.6432800000000 1.0
C      1  0.5139580000000  0.5143240000000  0.5392160000000 1.0
C      1  0.4718870000000  0.4531720000000  0.5440880000000 1.0
C      1  0.4080720000000  0.5351880000000  0.5247450000000 1.0
C      1  0.5029150000000  0.4600920000000  0.4431300000000 1.0
C      1  0.4794920000000  0.3963370000000  0.4773030000000 1.0
C      1  0.6055210000000  0.5209090000000  0.5633560000000 1.0
C      1  0.5101050000000  0.4849530000000  0.6080990000000 1.0
C      1  0.4795200000000  0.5465620000000  0.4639740000000 1.0
C      1  0.4254170000000  0.4649610000000  0.6024400000000 1.0
C      1  0.4496540000000  0.5098800000000  0.6721020000000 1.0
C      1  0.4776070000000  0.5155070000000  0.6179250000000 1.0
C      1  0.4401420000000  0.4973030000000  0.4966800000000 1.0
C      1  0.5597580000000  0.5423460000000  0.5335560000000 1.0
C      1  0.5006120000000  0.4709830000000  0.5095070000000 1.0
C      1  0.4443390000000  0.4173480000000  0.5251530000000 1.0
C      1  0.4291860000000  0.5085620000000  0.6546350000000 1.0
C      1  0.5163330000000  0.5202350000000  0.4646760000000 1.0
C      1  0.5634960000000  0.5024170000000  0.6125930000000 1.0
C      1  0.5324230000000  0.4388110000000  0.5893120000000 1.0
C      1  0.4186290000000  0.5063910000000  0.5818320000000 1.0
C      1  0.4001480000000  0.5059590000000  0.5616180000000 1.0
C      1  0.6088810000000  0.5380920000000  0.4887240000000 1.0
C      1  0.5313830000000  0.5043160000000  0.4480070000000 1.0
C      1  0.4084790000000  0.4269250000000  0.4621980000000 1.0
C      1  0.4334130000000  0.5108190000000  0.3866450000000 1.0
C      1  0.5228780000000  0.5574600000000  0.5829700000000 1.0
C      1  0.4376540000000  0.5563230000000  0.4468310000000 1.0
C      1  0.4461310000000  0.5160230000000  0.5824060000000 1.0
C      1  0.5143560000000  0.5512190000000  0.4116500000000 1.0
C      1  0.5216860000000  0.4991900000000  0.3914230000000 1.0
C      1  0.4179740000000  0.4000040000000  0.4613900000000 1.0
C      1  0.5923830000000  0.4604800000000  0.4498200000000 1.0
C      1  0.4590270000000  0.5168510000000  0.3802250000000 1.0
C      1  0.5597580000000  0.5200030000000  0.5509540000000 1.0
C      1  0.5508680000000  0.4528950000000  0.6026540000000 1.0
C      1  0.5383710000000  0.5011410000000  0.5483090000000 1.0
C      1  0.4290700000000  0.5083040000000  0.6267660000000 1.0
C      1  0.5347170000000  0.4144700000000  0.4257570000000 1.0
C      1  0.4781290000000  0.6009040000000  0.5059050000000 1.0
C      1  0.4587280000000  0.4416460000000  0.5199300000000 1.0
C      1  0.4696680000000  0.5338800000000  0.4867830000000 1.0
C      1  0.5615380000000  0.4756700000000  0.6118410000000 1.0
C      1  0.4791260000000  0.4727850000000  0.4508240000000 1.0
C      1  0.4567870000000  0.5644790000000  0.5431020000000 1.0
C      1  0.5501430000000  0.5747390000000  0.6468360000000 1.0
C      1  0.4348870000000  0.4633650000000  0.4509420000000 1.0
C      1  0.5071460000000  0.5748610000000  0.5654750000000 1.0
C      1  0.4592660000000  0.4587110000000  0.4662910000000 1.0
C      1  0.4515550000000  0.4264440000000  0.4013530000000 1.0
C      1  0.5885320000000  0.5766290000000  0.5538760000000 1.0
C      1  0.5073100000000  0.5461330000000  0.4623430000000 1.0
C      1  0.4436920000000  0.4595980000000  0.5831430000000 1.0
END
