TITL C-3866672-3872-314 -0.0315243077349253 125000 -202.833447061335 0 0 35 (C1) n - 1
REM
REM in /home/nfs/bkarasulu/CARBON/AIRSS/Generating-Clusters/LCBOP/Only-C1/SD-CG/FIRE-CG
REM
REM
REM
REM
REM
REM ./C.cell (11c1c37f851c82e70ff6c80c92926a4b)
REM AIRSS Version 0.9.1 bugfix July 2018 build 013d7b7c2542+ Fri, 06 Jul 2018 19:26:36 +0100
REM compiler GCC version 9.2.1 20190827 (Red Hat 9.2.1-1)
REM options -cpp -mtune=generic -march=x86-64 -g -O0 -fpre-include=/usr/include/finclude/math-vector-fortran.h
REM seed -71122779 -2096763124 1755584522 -1930851951 -513011302 -622591628 -851083165 590418272 1448839508 505661554 78779232 1282879880 -1348650059 -1564368618 648361383 517725079 -1098047003 -1827838736 789246837 222427237 1821236474 722126933 1269685091 1735541856 534472056 697274193 -261713454 -1364037326 -1216640923 -145761936 951486204 557874542 -1730430556
REM
CELL 1.54180   50.00000   50.00000   50.00000   90.00000   90.00000   90.00000
LATT -1
SFAC C  
C      1  0.4870940000000  0.4268610000000  0.5215110000000 1.0
C      1  0.3934010000000  0.4568380000000  0.5346660000000 1.0
C      1  0.4196740000000  0.4586310000000  0.5317530000000 1.0
C      1  0.5521660000000  0.5406620000000  0.5784090000000 1.0
C      1  0.5132870000000  0.5360420000000  0.5414690000000 1.0
C      1  0.5210210000000  0.5149580000000  0.4170910000000 1.0
C      1  0.5012770000000  0.5581480000000  0.5283620000000 1.0
C      1  0.5289520000000  0.4710420000000  0.5484450000000 1.0
C      1  0.4869730000000  0.5371080000000  0.4435400000000 1.0
C      1  0.4473230000000  0.4606310000000  0.5286660000000 1.0
C      1  0.4835740000000  0.5654170000000  0.4834250000000 1.0
C      1  0.4999660000000  0.5127440000000  0.4365840000000 1.0
C      1  0.5032170000000  0.5103810000000  0.5333980000000 1.0
C      1  0.5257560000000  0.4958650000000  0.4786660000000 1.0
C      1  0.5205700000000  0.4888340000000  0.5279260000000 1.0
C      1  0.4628930000000  0.4376700000000  0.5245960000000 1.0
C      1  0.5229190000000  0.4500050000000  0.4978190000000 1.0
C      1  0.5309310000000  0.4373640000000  0.4749840000000 1.0
C      1  0.3675500000000  0.4550760000000  0.5375330000000 1.0
C      1  0.5440270000000  0.5352310000000  0.4559750000000 1.0
C      1  0.4753130000000  0.5086580000000  0.5261130000000 1.0
C      1  0.5258190000000  0.4442260000000  0.5450820000000 1.0
C      1  0.5059400000000  0.4954780000000  0.4583330000000 1.0
C      1  0.4979810000000  0.5566580000000  0.4610850000000 1.0
C      1  0.4649160000000  0.5321320000000  0.5139830000000 1.0
C      1  0.5331210000000  0.5390090000000  0.5606980000000 1.0
C      1  0.5264650000000  0.5568620000000  0.4617100000000 1.0
C      1  0.4599580000000  0.4856600000000  0.5295790000000 1.0
C      1  0.5472320000000  0.5148930000000  0.4759750000000 1.0
C      1  0.5137430000000  0.4354400000000  0.5208600000000 1.0
C      1  0.5697420000000  0.5137080000000  0.4914340000000 1.0
C      1  0.4803580000000  0.5555070000000  0.5093710000000 1.0
C      1  0.5442250000000  0.5266460000000  0.4287330000000 1.0
C      1  0.5236640000000  0.4786710000000  0.5010190000000 1.0
C      1  0.5189540000000  0.5069410000000  0.3912090000000 1.0
END
