TITL C-3866673-4222-513 -2.20907657964063e-07 125000 -1156.64250665007 0 0 187 (C1) n - 1
REM
REM in /home/nfs/bkarasulu/CARBON/AIRSS/Generating-Clusters/LCBOP/Only-C1/SD-CG/FIRE-CG
REM
REM
REM
REM
REM
REM ./C.cell (11c1c37f851c82e70ff6c80c92926a4b)
REM AIRSS Version 0.9.1 bugfix July 2018 build 013d7b7c2542+ Fri, 06 Jul 2018 19:26:36 +0100
REM compiler GCC version 9.2.1 20190827 (Red Hat 9.2.1-1)
REM options -cpp -mtune=generic -march=x86-64 -g -O0 -fpre-include=/usr/include/finclude/math-vector-fortran.h
REM seed 902556820 283214923 1142659447 -2001339187 1227924737 777143737 -67701663 2086804873 1114692353 1992987006 -748658562 -708992273 1258999157 1413894507 -1723952144 -1774719418 753984767 451557793 769315207 759152953 489917656 1908487876 1267093164 -2052724908 612006271 136827305 -126210634 1609565604 -584735052 1814625584 394540262 -1128084311 -681183752
REM
CELL 1.54180   50.00000   50.00000   50.00000   90.00000   90.00000   90.00000
LATT -1
SFAC C  
C      1  0.3962520000000  0.4767690000000  0.4151550000000 1.0
C      1  0.4759870000000  0.5048640000000  0.5082190000000 1.0
C      1  0.4530480000000  0.5568310000000  0.5693310000000 1.0
C      1  0.5146000000000  0.5069330000000  0.4831780000000 1.0
C      1  0.4946090000000  0.5629150000000  0.5108220000000 1.0
C      1  0.5558020000000  0.4967580000000  0.5623590000000 1.0
C      1  0.5563170000000  0.5622990000000  0.4027080000000 1.0
C      1  0.4333360000000  0.4937590000000  0.6042410000000 1.0
C      1  0.5324210000000  0.4642070000000  0.4467400000000 1.0
C      1  0.3926440000000  0.4512920000000  0.4858230000000 1.0
C      1  0.6042260000000  0.5090480000000  0.5239000000000 1.0
C      1  0.5415800000000  0.4376570000000  0.6372270000000 1.0
C      1  0.4977900000000  0.4895340000000  0.5222250000000 1.0
C      1  0.3899980000000  0.4851140000000  0.5856500000000 1.0
C      1  0.6135460000000  0.5049170000000  0.4779000000000 1.0
C      1  0.5518210000000  0.4822980000000  0.4355190000000 1.0
C      1  0.4830480000000  0.4349280000000  0.4147430000000 1.0
C      1  0.4651010000000  0.4998150000000  0.5634960000000 1.0
C      1  0.4416540000000  0.4407520000000  0.5015520000000 1.0
C      1  0.4395220000000  0.4271530000000  0.5459740000000 1.0
C      1  0.5895320000000  0.4376820000000  0.6177880000000 1.0
C      1  0.5395980000000  0.5523240000000  0.5525870000000 1.0
C      1  0.6143230000000  0.5228790000000  0.5003320000000 1.0
C      1  0.5082160000000  0.5498820000000  0.6294520000000 1.0
C      1  0.5983350000000  0.5483120000000  0.5000000000000 1.0
C      1  0.4476220000000  0.3923690000000  0.4473990000000 1.0
C      1  0.4723170000000  0.5979530000000  0.5530030000000 1.0
C      1  0.5655090000000  0.4836930000000  0.4089770000000 1.0
C      1  0.4490230000000  0.4802920000000  0.4768230000000 1.0
C      1  0.4749200000000  0.5140900000000  0.5862980000000 1.0
C      1  0.4154780000000  0.4538220000000  0.4211260000000 1.0
C      1  0.6133990000000  0.5003000000000  0.5487010000000 1.0
C      1  0.5350800000000  0.5465600000000  0.6208850000000 1.0
C      1  0.4954580000000  0.4517780000000  0.6154050000000 1.0
C      1  0.5543510000000  0.4296030000000  0.3912320000000 1.0
C      1  0.4644260000000  0.4755420000000  0.5508070000000 1.0
C      1  0.5211400000000  0.5084620000000  0.5921240000000 1.0
C      1  0.5452260000000  0.4424240000000  0.4623020000000 1.0
C      1  0.4003910000000  0.5249940000000  0.4368310000000 1.0
C      1  0.4208900000000  0.6221960000000  0.4890090000000 1.0
C      1  0.5078090000000  0.5722720000000  0.4231770000000 1.0
C      1  0.5015740000000  0.4845340000000  0.3867030000000 1.0
C      1  0.5689760000000  0.5886680000000  0.4933270000000 1.0
C      1  0.4283820000000  0.5284890000000  0.4257190000000 1.0
C      1  0.5034890000000  0.4308890000000  0.4818350000000 1.0
C      1  0.5093960000000  0.5547940000000  0.3776940000000 1.0
C      1  0.5705200000000  0.5857290000000  0.5417420000000 1.0
C      1  0.4823260000000  0.4432940000000  0.4417680000000 1.0
C      1  0.5606460000000  0.4849780000000  0.5181730000000 1.0
C      1  0.5320340000000  0.6398450000000  0.5029920000000 1.0
C      1  0.4946550000000  0.6120810000000  0.4988360000000 1.0
C      1  0.5217260000000  0.6177750000000  0.5435780000000 1.0
C      1  0.6101680000000  0.4549720000000  0.4639480000000 1.0
C      1  0.5633100000000  0.5577080000000  0.5375520000000 1.0
C      1  0.4633780000000  0.4365280000000  0.4605490000000 1.0
C      1  0.5049630000000  0.6380570000000  0.4943480000000 1.0
C      1  0.4527490000000  0.4718400000000  0.6053690000000 1.0
C      1  0.4957450000000  0.6137570000000  0.5500230000000 1.0
C      1  0.4028650000000  0.5323020000000  0.4655830000000 1.0
C      1  0.4449550000000  0.5159820000000  0.4461630000000 1.0
C      1  0.4889930000000  0.4085510000000  0.5222380000000 1.0
C      1  0.4302060000000  0.5229960000000  0.4697720000000 1.0
C      1  0.4386470000000  0.4593350000000  0.4015230000000 1.0
C      1  0.6029320000000  0.4314700000000  0.4785920000000 1.0
C      1  0.5446550000000  0.4150230000000  0.4517840000000 1.0
C      1  0.4844660000000  0.5111400000000  0.4776670000000 1.0
C      1  0.5025770000000  0.5753220000000  0.4525060000000 1.0
C      1  0.4825830000000  0.4795930000000  0.4077480000000 1.0
C      1  0.5110670000000  0.4851210000000  0.5477120000000 1.0
C      1  0.5141980000000  0.4806000000000  0.4978020000000 1.0
C      1  0.5508830000000  0.5695260000000  0.6136450000000 1.0
C      1  0.5015520000000  0.4105750000000  0.4615800000000 1.0
C      1  0.4314350000000  0.5438410000000  0.5565880000000 1.0
C      1  0.4860980000000  0.6564560000000  0.4849760000000 1.0
C      1  0.4255050000000  0.5548810000000  0.5266750000000 1.0
C      1  0.4633220000000  0.4558610000000  0.4846010000000 1.0
C      1  0.4500200000000  0.5150210000000  0.5102300000000 1.0
C      1  0.4921640000000  0.5594270000000  0.4007500000000 1.0
C      1  0.5415520000000  0.6215890000000  0.5230140000000 1.0
C      1  0.5502110000000  0.5813470000000  0.5878480000000 1.0
C      1  0.4772850000000  0.4497200000000  0.5477280000000 1.0
C      1  0.5520740000000  0.5310640000000  0.4342110000000 1.0
C      1  0.4158320000000  0.6004360000000  0.5038030000000 1.0
C      1  0.5594180000000  0.4748660000000  0.5444630000000 1.0
C      1  0.6012170000000  0.4868660000000  0.5705450000000 1.0
C      1  0.5628410000000  0.4048140000000  0.4965210000000 1.0
C      1  0.4488050000000  0.5440430000000  0.5093690000000 1.0
C      1  0.4702250000000  0.5579670000000  0.4947620000000 1.0
C      1  0.5292620000000  0.5692530000000  0.5725890000000 1.0
C      1  0.4137170000000  0.4990870000000  0.5838110000000 1.0
C      1  0.5265880000000  0.5073450000000  0.5615690000000 1.0
C      1  0.4410680000000  0.5175090000000  0.6183040000000 1.0
C      1  0.6039610000000  0.4579640000000  0.5710610000000 1.0
C      1  0.4271860000000  0.5852630000000  0.5246750000000 1.0
C      1  0.4316620000000  0.5010200000000  0.4908710000000 1.0
C      1  0.5644320000000  0.5354310000000  0.4089980000000 1.0
C      1  0.4067320000000  0.4329030000000  0.4689400000000 1.0
C      1  0.5935520000000  0.4635000000000  0.4419760000000 1.0
C      1  0.4845220000000  0.3883370000000  0.5017010000000 1.0
C      1  0.4121120000000  0.4304900000000  0.4389760000000 1.0
C      1  0.3921790000000  0.5268800000000  0.4924460000000 1.0
C      1  0.6027160000000  0.4453460000000  0.5960500000000 1.0
C      1  0.4422930000000  0.5460250000000  0.4089450000000 1.0
C      1  0.5058950000000  0.5865790000000  0.4985150000000 1.0
C      1  0.5771240000000  0.4995210000000  0.5809530000000 1.0
C      1  0.4474580000000  0.5018140000000  0.3746880000000 1.0
C      1  0.5419750000000  0.4225180000000  0.5078990000000 1.0
C      1  0.4011630000000  0.4970290000000  0.4952610000000 1.0
C      1  0.5703390000000  0.5400200000000  0.5128340000000 1.0
C      1  0.5137590000000  0.5301150000000  0.3670170000000 1.0
C      1  0.5164240000000  0.4436200000000  0.6312710000000 1.0
C      1  0.4960290000000  0.4607470000000  0.4828990000000 1.0
C      1  0.4496810000000  0.4129670000000  0.4667620000000 1.0
C      1  0.5695750000000  0.5929140000000  0.5698720000000 1.0
C      1  0.4837630000000  0.4384890000000  0.5925950000000 1.0
C      1  0.4009340000000  0.5125180000000  0.5385160000000 1.0
C      1  0.5107420000000  0.5398380000000  0.5187090000000 1.0
C      1  0.5698060000000  0.5097310000000  0.3973120000000 1.0
C      1  0.4640790000000  0.5303520000000  0.6081890000000 1.0
C      1  0.5477870000000  0.5720700000000  0.4816130000000 1.0
C      1  0.5682580000000  0.5119930000000  0.6046670000000 1.0
C      1  0.5627300000000  0.6021200000000  0.5189630000000 1.0
C      1  0.4002820000000  0.5364570000000  0.5193600000000 1.0
C      1  0.5492370000000  0.5446910000000  0.4915880000000 1.0
C      1  0.5260790000000  0.3739800000000  0.4748550000000 1.0
C      1  0.5755410000000  0.4853740000000  0.4521110000000 1.0
C      1  0.4162220000000  0.5186940000000  0.5623520000000 1.0
C      1  0.5259280000000  0.5295140000000  0.4960350000000 1.0
C      1  0.4596400000000  0.6559790000000  0.4804190000000 1.0
C      1  0.5786850000000  0.4380550000000  0.3992590000000 1.0
C      1  0.5414730000000  0.5212870000000  0.6086100000000 1.0
C      1  0.4652090000000  0.4955330000000  0.4569420000000 1.0
C      1  0.4305790000000  0.4806530000000  0.3824400000000 1.0
C      1  0.3886180000000  0.4997210000000  0.4300500000000 1.0
C      1  0.4675370000000  0.5434140000000  0.3965680000000 1.0
C      1  0.5894760000000  0.4175720000000  0.4999660000000 1.0
C      1  0.4263960000000  0.4430900000000  0.5255990000000 1.0
C      1  0.5187780000000  0.4623160000000  0.3823060000000 1.0
C      1  0.4882450000000  0.5333580000000  0.4577240000000 1.0
C      1  0.4955770000000  0.4990240000000  0.5999490000000 1.0
C      1  0.5183930000000  0.4589800000000  0.5588620000000 1.0
C      1  0.5016830000000  0.5697250000000  0.5775450000000 1.0
C      1  0.6034780000000  0.4417660000000  0.5474340000000 1.0
C      1  0.5974740000000  0.4259460000000  0.5263660000000 1.0
C      1  0.3995870000000  0.4869040000000  0.5242520000000 1.0
C      1  0.5421170000000  0.4718900000000  0.5012760000000 1.0
C      1  0.5274060000000  0.5214120000000  0.4347980000000 1.0
C      1  0.5492960000000  0.3935370000000  0.4723710000000 1.0
C      1  0.4133150000000  0.4190660000000  0.5862260000000 1.0
C      1  0.5751180000000  0.5097310000000  0.5181770000000 1.0
C      1  0.5449850000000  0.4524820000000  0.5532270000000 1.0
C      1  0.5894850000000  0.5070690000000  0.4628150000000 1.0
C      1  0.4666120000000  0.4554630000000  0.4031130000000 1.0
C      1  0.4966160000000  0.4444340000000  0.5679980000000 1.0
C      1  0.4754190000000  0.5742330000000  0.5688080000000 1.0
C      1  0.4478530000000  0.5988290000000  0.5391200000000 1.0
C      1  0.5855220000000  0.4615620000000  0.4132720000000 1.0
C      1  0.5457770000000  0.4461650000000  0.4910440000000 1.0
C      1  0.4029650000000  0.4580330000000  0.5205500000000 1.0
C      1  0.5676030000000  0.4352290000000  0.6325620000000 1.0
C      1  0.5013490000000  0.4661800000000  0.4508730000000 1.0
C      1  0.5950250000000  0.5755890000000  0.4914450000000 1.0
C      1  0.4253380000000  0.4037420000000  0.4314290000000 1.0
C      1  0.5177840000000  0.4161270000000  0.5224670000000 1.0
C      1  0.4542440000000  0.4447090000000  0.5917770000000 1.0
C      1  0.4820450000000  0.4773960000000  0.6138060000000 1.0
C      1  0.4709470000000  0.3749770000000  0.4537780000000 1.0
C      1  0.5003820000000  0.5178550000000  0.4365220000000 1.0
C      1  0.4693560000000  0.5192790000000  0.3795320000000 1.0
C      1  0.4365590000000  0.6425280000000  0.4815780000000 1.0
C      1  0.4809430000000  0.5591900000000  0.4660100000000 1.0
C      1  0.4961250000000  0.5092040000000  0.3737980000000 1.0
C      1  0.5271790000000  0.4369990000000  0.3933210000000 1.0
C      1  0.4025890000000  0.4835470000000  0.3874740000000 1.0
C      1  0.5098230000000  0.4237000000000  0.4123390000000 1.0
C      1  0.4356020000000  0.4303480000000  0.5747380000000 1.0
C      1  0.3877620000000  0.4772190000000  0.4782110000000 1.0
C      1  0.4823390000000  0.5456170000000  0.6233790000000 1.0
C      1  0.4288850000000  0.4215280000000  0.4834780000000 1.0
C      1  0.5191800000000  0.4121570000000  0.4379090000000 1.0
C      1  0.5354630000000  0.5761180000000  0.4142430000000 1.0
C      1  0.5215990000000  0.5811450000000  0.4746000000000 1.0
C      1  0.4872450000000  0.4898580000000  0.4359190000000 1.0
C      1  0.6237210000000  0.4777320000000  0.4764010000000 1.0
C      1  0.4679720000000  0.4247730000000  0.5369640000000 1.0
C      1  0.5223500000000  0.5320910000000  0.5442330000000 1.0
C      1  0.4955200000000  0.3829650000000  0.4728020000000 1.0
END
