TITL C-3866670-4165-248 -6.50007418204371e-07 125000 -484.089273734204 0 0 79 (C1) n - 1
REM
REM in /home/nfs/bkarasulu/CARBON/AIRSS/Generating-Clusters/LCBOP/Only-C1/SD-CG/HFTN-CG/FIRE-CG
REM
REM
REM
REM
REM
REM ./C.cell (11c1c37f851c82e70ff6c80c92926a4b)
REM AIRSS Version 0.9.1 bugfix July 2018 build 013d7b7c2542+ Fri, 06 Jul 2018 19:26:36 +0100
REM compiler GCC version 9.2.1 20190827 (Red Hat 9.2.1-1)
REM options -cpp -mtune=generic -march=x86-64 -g -O0 -fpre-include=/usr/include/finclude/math-vector-fortran.h
REM seed -1393458408 -389338110 -1480804876 1424964830 1159463053 600160353 1675946960 1943673470 390715238 938378777 1279073926 881234689 133819401 36500008 1305648992 1530910131 -2078236794 -1657130086 770524002 -1281526577 1944735642 829993376 1617158567 1628380827 -554232208 -1172985966 -1298407529 -1142104291 -314308517 -1731624666 -253731386 1537272136 1555642587
REM
CELL 1.54180   50.00000   50.00000   50.00000   90.00000   90.00000   90.00000
LATT -1
SFAC C  
C      1  0.5289290000000  0.5284250000000  0.5703810000000 1.0
C      1  0.4493350000000  0.4873130000000  0.4771160000000 1.0
C      1  0.5468120000000  0.4268160000000  0.4732350000000 1.0
C      1  0.5433470000000  0.5335830000000  0.5459120000000 1.0
C      1  0.4554690000000  0.4242190000000  0.4929970000000 1.0
C      1  0.5770300000000  0.4773670000000  0.5190210000000 1.0
C      1  0.5325010000000  0.5376770000000  0.4383630000000 1.0
C      1  0.5041150000000  0.4496160000000  0.5384400000000 1.0
C      1  0.5489090000000  0.4409060000000  0.5215590000000 1.0
C      1  0.5194250000000  0.4179690000000  0.4755000000000 1.0
C      1  0.5481230000000  0.5713540000000  0.5088890000000 1.0
C      1  0.4604400000000  0.5335010000000  0.4572120000000 1.0
C      1  0.5755280000000  0.4526650000000  0.5847380000000 1.0
C      1  0.4608740000000  0.4626570000000  0.5178100000000 1.0
C      1  0.4118540000000  0.5221130000000  0.4647760000000 1.0
C      1  0.5016270000000  0.5240050000000  0.5219510000000 1.0
C      1  0.5251610000000  0.4779350000000  0.4653460000000 1.0
C      1  0.4989240000000  0.4352960000000  0.4670440000000 1.0
C      1  0.5688470000000  0.4917160000000  0.4717200000000 1.0
C      1  0.5642360000000  0.4589350000000  0.5379140000000 1.0
C      1  0.5139800000000  0.3990040000000  0.4957270000000 1.0
C      1  0.4505690000000  0.4359500000000  0.5693240000000 1.0
C      1  0.4122020000000  0.5491080000000  0.5061520000000 1.0
C      1  0.4909860000000  0.5684590000000  0.4692080000000 1.0
C      1  0.4520220000000  0.4875700000000  0.5058430000000 1.0
C      1  0.4368730000000  0.5009650000000  0.4299330000000 1.0
C      1  0.4518500000000  0.5342010000000  0.5259670000000 1.0
C      1  0.5187180000000  0.5774110000000  0.4681510000000 1.0
C      1  0.4765430000000  0.4800700000000  0.4173620000000 1.0
C      1  0.4830790000000  0.4674560000000  0.5349210000000 1.0
C      1  0.5429040000000  0.5062580000000  0.5333550000000 1.0
C      1  0.5237280000000  0.4312320000000  0.5304040000000 1.0
C      1  0.5486820000000  0.4886250000000  0.4499490000000 1.0
C      1  0.5160990000000  0.4054090000000  0.5219070000000 1.0
C      1  0.5461500000000  0.5122700000000  0.4321010000000 1.0
C      1  0.5626510000000  0.4182890000000  0.4526500000000 1.0
C      1  0.4884970000000  0.5396860000000  0.4619660000000 1.0
C      1  0.5723480000000  0.4695650000000  0.4908150000000 1.0
C      1  0.4227120000000  0.5624720000000  0.4423940000000 1.0
C      1  0.4387900000000  0.5557160000000  0.5129370000000 1.0
C      1  0.5717810000000  0.5280480000000  0.5076790000000 1.0
C      1  0.4466770000000  0.4963430000000  0.3823870000000 1.0
C      1  0.5701450000000  0.5038000000000  0.5239930000000 1.0
C      1  0.5062950000000  0.4604610000000  0.4544140000000 1.0
C      1  0.4916260000000  0.5960260000000  0.5259680000000 1.0
C      1  0.4034600000000  0.5286700000000  0.4908360000000 1.0
C      1  0.5614510000000  0.5193880000000  0.4822780000000 1.0
C      1  0.5128310000000  0.6037020000000  0.5088650000000 1.0
C      1  0.5141110000000  0.5288820000000  0.4593200000000 1.0
C      1  0.4896420000000  0.4950480000000  0.5730550000000 1.0
C      1  0.4618300000000  0.4538500000000  0.5860860000000 1.0
C      1  0.4528110000000  0.5781240000000  0.5009820000000 1.0
C      1  0.5317620000000  0.5197880000000  0.4794870000000 1.0
C      1  0.5178320000000  0.5020240000000  0.5761500000000 1.0
C      1  0.4530320000000  0.4926190000000  0.4085480000000 1.0
C      1  0.5370350000000  0.4805020000000  0.5748780000000 1.0
C      1  0.4507650000000  0.4363420000000  0.5180100000000 1.0
C      1  0.4649530000000  0.5979890000000  0.5169740000000 1.0
C      1  0.5344030000000  0.5660730000000  0.4455210000000 1.0
C      1  0.4782570000000  0.4938580000000  0.5466850000000 1.0
C      1  0.5216950000000  0.4943500000000  0.4899660000000 1.0
C      1  0.5913500000000  0.4417620000000  0.6023430000000 1.0
C      1  0.5569540000000  0.5488070000000  0.5234980000000 1.0
C      1  0.4592590000000  0.5071030000000  0.5273160000000 1.0
C      1  0.4617520000000  0.4649010000000  0.4631730000000 1.0
C      1  0.4701920000000  0.4378780000000  0.4730260000000 1.0
C      1  0.5192440000000  0.5018280000000  0.5175860000000 1.0
C      1  0.4823780000000  0.4712340000000  0.4430030000000 1.0
C      1  0.4474670000000  0.5605270000000  0.4554840000000 1.0
C      1  0.4397440000000  0.5100020000000  0.4589540000000 1.0
C      1  0.4766260000000  0.4761960000000  0.5902040000000 1.0
C      1  0.4971120000000  0.5469800000000  0.5348570000000 1.0
C      1  0.4965330000000  0.5728910000000  0.5413110000000 1.0
C      1  0.4454260000000  0.4271220000000  0.5442300000000 1.0
C      1  0.4630680000000  0.5761470000000  0.4741770000000 1.0
C      1  0.4048720000000  0.5420820000000  0.4452610000000 1.0
C      1  0.5294240000000  0.5862910000000  0.4935560000000 1.0
C      1  0.5566610000000  0.4443680000000  0.4933670000000 1.0
C      1  0.5586760000000  0.4642100000000  0.5655830000000 1.0
END
