TITL C-3866669-3764-527 -8.40871993746554e-07 125000 -777.987557675895 0 0 128 (C1) n - 1
REM
REM in /home/nfs/bkarasulu/CARBON/AIRSS/Generating-Clusters/LCBOP/Only-C1/SD-CG/FIRE-CG
REM
REM
REM
REM
REM
REM ./C.cell (11c1c37f851c82e70ff6c80c92926a4b)
REM AIRSS Version 0.9.1 bugfix July 2018 build 013d7b7c2542+ Fri, 06 Jul 2018 19:26:36 +0100
REM compiler GCC version 9.2.1 20190827 (Red Hat 9.2.1-1)
REM options -cpp -mtune=generic -march=x86-64 -g -O0 -fpre-include=/usr/include/finclude/math-vector-fortran.h
REM seed -1392274517 -479091794 325893397 -1837699990 -2038798046 1418798549 -1104650246 -1299055543 -1321510538 1522740052 -338067295 1993379097 420026944 1556946072 281605713 1594329725 1632020175 -1966292828 -511494431 1358213479 -816207847 -618165160 -1108306199 1717374561 688739147 -576329168 1766905674 945140438 -1467751847 1810464424 -1827719268 484689646 105337457
REM
CELL 1.54180   50.00000   50.00000   50.00000   90.00000   90.00000   90.00000
LATT -1
SFAC C  
C      1  0.4912180000000  0.4191950000000  0.5120090000000 1.0
C      1  0.4039800000000  0.5782750000000  0.4711460000000 1.0
C      1  0.4984110000000  0.5556750000000  0.4292340000000 1.0
C      1  0.5298630000000  0.4604280000000  0.4127100000000 1.0
C      1  0.4590810000000  0.5014130000000  0.5641190000000 1.0
C      1  0.4587240000000  0.5434120000000  0.4024710000000 1.0
C      1  0.4149820000000  0.4481190000000  0.5474340000000 1.0
C      1  0.4153050000000  0.5199860000000  0.5749720000000 1.0
C      1  0.5058550000000  0.4480750000000  0.5651690000000 1.0
C      1  0.4659580000000  0.4357590000000  0.4362380000000 1.0
C      1  0.5264330000000  0.5219770000000  0.3894760000000 1.0
C      1  0.5687260000000  0.5280600000000  0.5826680000000 1.0
C      1  0.3849660000000  0.5159230000000  0.4785540000000 1.0
C      1  0.4789720000000  0.5080820000000  0.4907230000000 1.0
C      1  0.3980180000000  0.4996010000000  0.4951530000000 1.0
C      1  0.4969550000000  0.5718090000000  0.5211870000000 1.0
C      1  0.5395250000000  0.4258810000000  0.4739770000000 1.0
C      1  0.4087520000000  0.5314650000000  0.4120860000000 1.0
C      1  0.5508640000000  0.4912130000000  0.4740860000000 1.0
C      1  0.4856470000000  0.4938710000000  0.4340840000000 1.0
C      1  0.4601190000000  0.4933060000000  0.4463350000000 1.0
C      1  0.4303320000000  0.5597210000000  0.5066690000000 1.0
C      1  0.4201540000000  0.4601050000000  0.4788030000000 1.0
C      1  0.5368700000000  0.3792120000000  0.5318940000000 1.0
C      1  0.5489080000000  0.5191170000000  0.5355140000000 1.0
C      1  0.4372910000000  0.4337000000000  0.5368270000000 1.0
C      1  0.5060880000000  0.4587300000000  0.5386830000000 1.0
C      1  0.5240560000000  0.3909450000000  0.4386830000000 1.0
C      1  0.4414600000000  0.5232660000000  0.5641760000000 1.0
C      1  0.5579370000000  0.4700280000000  0.4914040000000 1.0
C      1  0.4035190000000  0.4944620000000  0.5708050000000 1.0
C      1  0.3915550000000  0.4614640000000  0.4388990000000 1.0
C      1  0.5327860000000  0.4854190000000  0.4262900000000 1.0
C      1  0.5525110000000  0.4639570000000  0.5578170000000 1.0
C      1  0.3834330000000  0.5345550000000  0.4576150000000 1.0
C      1  0.4066300000000  0.5438540000000  0.5873810000000 1.0
C      1  0.4904160000000  0.4892710000000  0.4053690000000 1.0
C      1  0.4961740000000  0.5502730000000  0.4577660000000 1.0
C      1  0.5221410000000  0.4857690000000  0.5920740000000 1.0
C      1  0.5698430000000  0.5385970000000  0.4928580000000 1.0
C      1  0.5492790000000  0.5282120000000  0.5073620000000 1.0
C      1  0.6128550000000  0.5152690000000  0.5722490000000 1.0
C      1  0.5733630000000  0.4386040000000  0.4335720000000 1.0
C      1  0.4488810000000  0.5453960000000  0.5486000000000 1.0
C      1  0.5036210000000  0.4913710000000  0.4913030000000 1.0
C      1  0.4994630000000  0.4458610000000  0.5150520000000 1.0
C      1  0.4177250000000  0.4799680000000  0.4995480000000 1.0
C      1  0.4149000000000  0.4684830000000  0.4513510000000 1.0
C      1  0.4481040000000  0.5433600000000  0.5205500000000 1.0
C      1  0.4325710000000  0.5386910000000  0.4027110000000 1.0
C      1  0.4708890000000  0.4501910000000  0.5984070000000 1.0
C      1  0.5008790000000  0.4606970000000  0.4053780000000 1.0
C      1  0.6002050000000  0.5158950000000  0.5461190000000 1.0
C      1  0.5466450000000  0.4878370000000  0.5378730000000 1.0
C      1  0.5727560000000  0.5739060000000  0.5255290000000 1.0
C      1  0.6000290000000  0.5127220000000  0.4695030000000 1.0
C      1  0.4993950000000  0.5163350000000  0.3964630000000 1.0
C      1  0.5507110000000  0.4301550000000  0.5209920000000 1.0
C      1  0.5027820000000  0.5081520000000  0.5917310000000 1.0
C      1  0.5164520000000  0.4851550000000  0.5374550000000 1.0
C      1  0.5902270000000  0.4375220000000  0.4547440000000 1.0
C      1  0.3906800000000  0.5278930000000  0.4313390000000 1.0
C      1  0.5491510000000  0.4424070000000  0.4943750000000 1.0
C      1  0.5165260000000  0.5960240000000  0.4767310000000 1.0
C      1  0.5229520000000  0.5334310000000  0.5424820000000 1.0
C      1  0.5239420000000  0.5714470000000  0.4292820000000 1.0
C      1  0.6109370000000  0.5107100000000  0.5203170000000 1.0
C      1  0.4602870000000  0.5680770000000  0.5613610000000 1.0
C      1  0.4941670000000  0.4124680000000  0.4053750000000 1.0
C      1  0.4757370000000  0.4983380000000  0.5874430000000 1.0
C      1  0.5419060000000  0.4041060000000  0.5260410000000 1.0
C      1  0.6132730000000  0.5229710000000  0.4943200000000 1.0
C      1  0.5940270000000  0.4430790000000  0.5316970000000 1.0
C      1  0.4425970000000  0.4249990000000  0.5088740000000 1.0
C      1  0.6118400000000  0.5519420000000  0.4974020000000 1.0
C      1  0.5453490000000  0.5364420000000  0.4025200000000 1.0
C      1  0.4622140000000  0.4914330000000  0.4740830000000 1.0
C      1  0.5146700000000  0.5355220000000  0.5917770000000 1.0
C      1  0.5697820000000  0.5204680000000  0.4681160000000 1.0
C      1  0.5953050000000  0.5221880000000  0.5926170000000 1.0
C      1  0.6012290000000  0.4377980000000  0.4795070000000 1.0
C      1  0.5099140000000  0.5468560000000  0.5185780000000 1.0
C      1  0.5468210000000  0.5365160000000  0.4520270000000 1.0
C      1  0.4350070000000  0.4835830000000  0.4376470000000 1.0
C      1  0.5534540000000  0.5730360000000  0.5447890000000 1.0
C      1  0.4665110000000  0.4092640000000  0.5078010000000 1.0
C      1  0.5448110000000  0.5507020000000  0.4270390000000 1.0
C      1  0.4045960000000  0.4693330000000  0.5607490000000 1.0
C      1  0.5250160000000  0.5913310000000  0.4507110000000 1.0
C      1  0.4290840000000  0.5735120000000  0.4823570000000 1.0
C      1  0.4858360000000  0.5396120000000  0.4086990000000 1.0
C      1  0.5655570000000  0.4805860000000  0.5160670000000 1.0
C      1  0.4352970000000  0.4357860000000  0.4822720000000 1.0
C      1  0.6126910000000  0.4989940000000  0.4497390000000 1.0
C      1  0.5334340000000  0.4042930000000  0.4597210000000 1.0
C      1  0.5049410000000  0.5097790000000  0.5452180000000 1.0
C      1  0.4542400000000  0.4853690000000  0.5411110000000 1.0
C      1  0.5294490000000  0.4618930000000  0.5772300000000 1.0
C      1  0.6039880000000  0.4399270000000  0.5064100000000 1.0
C      1  0.4371390000000  0.4826090000000  0.5202360000000 1.0
C      1  0.4683080000000  0.4764540000000  0.6040570000000 1.0
C      1  0.4848700000000  0.4377120000000  0.4143500000000 1.0
C      1  0.4493000000000  0.6061790000000  0.5898840000000 1.0
C      1  0.5722990000000  0.5242140000000  0.5531570000000 1.0
C      1  0.5517220000000  0.4431630000000  0.4178110000000 1.0
C      1  0.5228450000000  0.4941430000000  0.4709400000000 1.0
C      1  0.5094860000000  0.3934610000000  0.4164310000000 1.0
C      1  0.4803100000000  0.5681940000000  0.4739870000000 1.0
C      1  0.5243930000000  0.5373060000000  0.4965850000000 1.0
C      1  0.5087920000000  0.5606120000000  0.5746570000000 1.0
C      1  0.4960230000000  0.5835970000000  0.4938550000000 1.0
C      1  0.4433320000000  0.5813080000000  0.5802910000000 1.0
C      1  0.4878660000000  0.5717610000000  0.5558210000000 1.0
C      1  0.5851910000000  0.5601500000000  0.5038970000000 1.0
C      1  0.4594620000000  0.4306370000000  0.5555520000000 1.0
C      1  0.5318250000000  0.5587730000000  0.5566830000000 1.0
C      1  0.4198380000000  0.5675030000000  0.5886540000000 1.0
C      1  0.4509280000000  0.4290500000000  0.4581460000000 1.0
C      1  0.5440760000000  0.5335260000000  0.5956250000000 1.0
C      1  0.4689740000000  0.4649130000000  0.4825800000000 1.0
C      1  0.5216330000000  0.5402980000000  0.4687190000000 1.0
C      1  0.4536630000000  0.5752460000000  0.4691320000000 1.0
C      1  0.5668400000000  0.4434740000000  0.5413390000000 1.0
C      1  0.4663360000000  0.5270990000000  0.5065930000000 1.0
C      1  0.3839760000000  0.5620060000000  0.4638590000000 1.0
C      1  0.4943180000000  0.4638140000000  0.4946680000000 1.0
C      1  0.4798760000000  0.4390790000000  0.5739680000000 1.0
C      1  0.5129720000000  0.4938460000000  0.4448510000000 1.0
END
