TITL C-3866674-3872-384 -4.97906578935661e-07 125000 -1179.75021136693 0 0 191 (C1) n - 1
REM
REM in /home/nfs/bkarasulu/CARBON/AIRSS/Generating-Clusters/LCBOP/Only-C1/SD-CG/FIRE-CG
REM
REM
REM
REM
REM
REM ./C.cell (11c1c37f851c82e70ff6c80c92926a4b)
REM AIRSS Version 0.9.1 bugfix July 2018 build 013d7b7c2542+ Fri, 06 Jul 2018 19:26:36 +0100
REM compiler GCC version 9.2.1 20190827 (Red Hat 9.2.1-1)
REM options -cpp -mtune=generic -march=x86-64 -g -O0 -fpre-include=/usr/include/finclude/math-vector-fortran.h
REM seed 702229188 1351009819 -2146327752 1668538728 342707967 579098630 939784457 -1308478111 -1573525240 727645834 280888584 368519048 -1678373471 -618200994 -1993188562 459733361 1004244291 1960419697 -1872714707 -2135984587 1074630244 443128653 1954212098 -1175822642 1871497087 2135395204 -1589071402 154249015 -1940226119 -21617840 1665648497 1756184712 -2019996950
REM
CELL 1.54180   50.00000   50.00000   50.00000   90.00000   90.00000   90.00000
LATT -1
SFAC C  
C      1  0.4627220000000  0.4961620000000  0.4363180000000 1.0
C      1  0.5946070000000  0.4947510000000  0.4399730000000 1.0
C      1  0.4235970000000  0.5824150000000  0.5340870000000 1.0
C      1  0.4569790000000  0.5586570000000  0.5804500000000 1.0
C      1  0.4947590000000  0.6102650000000  0.5196630000000 1.0
C      1  0.5341200000000  0.4001820000000  0.4990810000000 1.0
C      1  0.5917770000000  0.4511390000000  0.6010190000000 1.0
C      1  0.4822510000000  0.5435630000000  0.5206260000000 1.0
C      1  0.5917410000000  0.4262750000000  0.5598720000000 1.0
C      1  0.3733710000000  0.4225110000000  0.5414530000000 1.0
C      1  0.5228600000000  0.5135790000000  0.4178970000000 1.0
C      1  0.4965300000000  0.5001010000000  0.6161900000000 1.0
C      1  0.5169600000000  0.4211310000000  0.4154780000000 1.0
C      1  0.5357640000000  0.4854140000000  0.5006610000000 1.0
C      1  0.5034530000000  0.4030500000000  0.4330250000000 1.0
C      1  0.5542690000000  0.4722320000000  0.5464040000000 1.0
C      1  0.4870250000000  0.4593350000000  0.4948370000000 1.0
C      1  0.4500940000000  0.4326950000000  0.4906100000000 1.0
C      1  0.5927750000000  0.5357170000000  0.4648310000000 1.0
C      1  0.3943700000000  0.5003010000000  0.5544510000000 1.0
C      1  0.3932200000000  0.4464430000000  0.5003700000000 1.0
C      1  0.4122650000000  0.4008240000000  0.5597840000000 1.0
C      1  0.4863050000000  0.5505740000000  0.4231800000000 1.0
C      1  0.5873300000000  0.5320500000000  0.4929790000000 1.0
C      1  0.4250670000000  0.5180040000000  0.4485560000000 1.0
C      1  0.5019450000000  0.3840040000000  0.5320140000000 1.0
C      1  0.5885810000000  0.4549160000000  0.5059010000000 1.0
C      1  0.5459410000000  0.4906520000000  0.5259730000000 1.0
C      1  0.4134040000000  0.4783290000000  0.5551160000000 1.0
C      1  0.4303200000000  0.5219930000000  0.4191470000000 1.0
C      1  0.5704340000000  0.6100120000000  0.4869530000000 1.0
C      1  0.3888010000000  0.5376500000000  0.4290080000000 1.0
C      1  0.5400380000000  0.4709730000000  0.4405210000000 1.0
C      1  0.4670720000000  0.5393490000000  0.4963810000000 1.0
C      1  0.4573660000000  0.4507160000000  0.3989330000000 1.0
C      1  0.5492150000000  0.4867110000000  0.5716370000000 1.0
C      1  0.5268180000000  0.5043980000000  0.5642100000000 1.0
C      1  0.4566650000000  0.5126120000000  0.4127240000000 1.0
C      1  0.4997110000000  0.4114410000000  0.5789150000000 1.0
C      1  0.5356810000000  0.5122130000000  0.6419930000000 1.0
C      1  0.5946110000000  0.5776590000000  0.5157500000000 1.0
C      1  0.4841050000000  0.5256620000000  0.6127730000000 1.0
C      1  0.4582780000000  0.6272820000000  0.4631180000000 1.0
C      1  0.4977680000000  0.4949330000000  0.5667090000000 1.0
C      1  0.5175280000000  0.4922430000000  0.6338740000000 1.0
C      1  0.6104320000000  0.5151060000000  0.4541790000000 1.0
C      1  0.4797730000000  0.5274060000000  0.4055010000000 1.0
C      1  0.5650510000000  0.4912180000000  0.5946450000000 1.0
C      1  0.5562880000000  0.4286500000000  0.4670480000000 1.0
C      1  0.4209360000000  0.5508430000000  0.4934640000000 1.0
C      1  0.5358080000000  0.5765370000000  0.4984430000000 1.0
C      1  0.6119110000000  0.5795480000000  0.5382700000000 1.0
C      1  0.5707480000000  0.5168170000000  0.6056360000000 1.0
C      1  0.4366760000000  0.4352720000000  0.4370960000000 1.0
C      1  0.5614330000000  0.6040160000000  0.5389860000000 1.0
C      1  0.6392990000000  0.4879870000000  0.4898870000000 1.0
C      1  0.4896320000000  0.4549290000000  0.5985830000000 1.0
C      1  0.5022140000000  0.5634050000000  0.4669130000000 1.0
C      1  0.3738250000000  0.4054480000000  0.4694420000000 1.0
C      1  0.4157430000000  0.4605670000000  0.5070270000000 1.0
C      1  0.4559040000000  0.4418680000000  0.5395100000000 1.0
C      1  0.5342840000000  0.5947200000000  0.5395460000000 1.0
C      1  0.4529840000000  0.4287660000000  0.5859890000000 1.0
C      1  0.4801880000000  0.5195140000000  0.5661470000000 1.0
C      1  0.4090990000000  0.5357220000000  0.5852920000000 1.0
C      1  0.3901950000000  0.5047790000000  0.5032410000000 1.0
C      1  0.3869660000000  0.5155700000000  0.5301670000000 1.0
C      1  0.5765820000000  0.6009910000000  0.5132940000000 1.0
C      1  0.5750650000000  0.6296410000000  0.4430900000000 1.0
C      1  0.5590390000000  0.4371010000000  0.3982680000000 1.0
C      1  0.6338860000000  0.4694570000000  0.5089710000000 1.0
C      1  0.4356140000000  0.4125020000000  0.4778520000000 1.0
C      1  0.5354890000000  0.5144130000000  0.5383440000000 1.0
C      1  0.6130400000000  0.4539010000000  0.5209950000000 1.0
C      1  0.4016580000000  0.5669310000000  0.5351050000000 1.0
C      1  0.5075690000000  0.5535900000000  0.5316490000000 1.0
C      1  0.5507510000000  0.5626850000000  0.4558630000000 1.0
C      1  0.5523960000000  0.5580850000000  0.5161120000000 1.0
C      1  0.6179620000000  0.4582050000000  0.5934760000000 1.0
C      1  0.4934050000000  0.4821780000000  0.5938970000000 1.0
C      1  0.5286170000000  0.5595370000000  0.4024210000000 1.0
C      1  0.5664690000000  0.4382030000000  0.5129820000000 1.0
C      1  0.4955450000000  0.5895670000000  0.4727680000000 1.0
C      1  0.5243370000000  0.4940140000000  0.4382820000000 1.0
C      1  0.4378320000000  0.6143320000000  0.3934770000000 1.0
C      1  0.4400690000000  0.4870480000000  0.5473870000000 1.0
C      1  0.5858750000000  0.4775970000000  0.4884500000000 1.0
C      1  0.5098670000000  0.4987350000000  0.4614390000000 1.0
C      1  0.5857370000000  0.5042700000000  0.4995600000000 1.0
C      1  0.4799010000000  0.4810690000000  0.5161200000000 1.0
C      1  0.4620520000000  0.3835390000000  0.5608870000000 1.0
C      1  0.5403990000000  0.5353110000000  0.4127880000000 1.0
C      1  0.4400620000000  0.4451730000000  0.5141620000000 1.0
C      1  0.5474270000000  0.5899280000000  0.4464440000000 1.0
C      1  0.5777820000000  0.5036840000000  0.4181530000000 1.0
C      1  0.5516770000000  0.3891880000000  0.4016670000000 1.0
C      1  0.3712220000000  0.5077960000000  0.5966700000000 1.0
C      1  0.5325330000000  0.5006910000000  0.3625450000000 1.0
C      1  0.5212560000000  0.5960160000000  0.4353100000000 1.0
C      1  0.5486100000000  0.4306380000000  0.5948690000000 1.0
C      1  0.4805610000000  0.4292400000000  0.5916480000000 1.0
C      1  0.3839510000000  0.5169820000000  0.4780280000000 1.0
C      1  0.4905900000000  0.3812140000000  0.4225950000000 1.0
C      1  0.4675510000000  0.3742840000000  0.4970170000000 1.0
C      1  0.5214050000000  0.5980040000000  0.5124160000000 1.0
C      1  0.4403020000000  0.5685310000000  0.3808110000000 1.0
C      1  0.3971280000000  0.5243850000000  0.4539980000000 1.0
C      1  0.4462650000000  0.6291840000000  0.4160760000000 1.0
C      1  0.4851920000000  0.5474500000000  0.4517990000000 1.0
C      1  0.5144200000000  0.5753520000000  0.5511220000000 1.0
C      1  0.5642960000000  0.6099440000000  0.4589240000000 1.0
C      1  0.5220550000000  0.5042790000000  0.4853720000000 1.0
C      1  0.5488630000000  0.4479200000000  0.4503510000000 1.0
C      1  0.4218510000000  0.4178720000000  0.4537990000000 1.0
C      1  0.4681830000000  0.4490930000000  0.4744820000000 1.0
C      1  0.6321290000000  0.5050070000000  0.4699970000000 1.0
C      1  0.4640690000000  0.4461720000000  0.4457060000000 1.0
C      1  0.5429560000000  0.4148140000000  0.4050580000000 1.0
C      1  0.4662470000000  0.6039600000000  0.5134750000000 1.0
C      1  0.4129640000000  0.4494770000000  0.5608310000000 1.0
C      1  0.3912310000000  0.5146220000000  0.5793050000000 1.0
C      1  0.4136850000000  0.4886890000000  0.5016390000000 1.0
C      1  0.5289490000000  0.5559640000000  0.4758120000000 1.0
C      1  0.4518800000000  0.5113260000000  0.4584030000000 1.0
C      1  0.3622230000000  0.4056020000000  0.4935980000000 1.0
C      1  0.5042380000000  0.5757160000000  0.4131330000000 1.0
C      1  0.5206600000000  0.4661090000000  0.3939120000000 1.0
C      1  0.4847180000000  0.4476010000000  0.5448390000000 1.0
C      1  0.4377070000000  0.6335300000000  0.4432970000000 1.0
C      1  0.5465900000000  0.4520470000000  0.6155020000000 1.0
C      1  0.4403080000000  0.4398450000000  0.5635690000000 1.0
C      1  0.5787430000000  0.6042910000000  0.5616680000000 1.0
C      1  0.3877850000000  0.5439870000000  0.5329400000000 1.0
C      1  0.5586470000000  0.5021790000000  0.3711520000000 1.0
C      1  0.5334930000000  0.4266810000000  0.5486910000000 1.0
C      1  0.4748760000000  0.6208040000000  0.4185960000000 1.0
C      1  0.4353190000000  0.3868250000000  0.5601970000000 1.0
C      1  0.5036360000000  0.4363050000000  0.5040710000000 1.0
C      1  0.6033440000000  0.5924360000000  0.5608020000000 1.0
C      1  0.4896740000000  0.3913430000000  0.5582180000000 1.0
C      1  0.4694790000000  0.5313990000000  0.4685980000000 1.0
C      1  0.4394430000000  0.5323600000000  0.5011440000000 1.0
C      1  0.5546940000000  0.4199500000000  0.4937480000000 1.0
C      1  0.5503480000000  0.4638020000000  0.3963170000000 1.0
C      1  0.4937170000000  0.6156840000000  0.5486590000000 1.0
C      1  0.3947190000000  0.4107490000000  0.4534610000000 1.0
C      1  0.4709290000000  0.5290990000000  0.5419690000000 1.0
C      1  0.4513510000000  0.5886730000000  0.5357840000000 1.0
C      1  0.5706170000000  0.4679680000000  0.6099940000000 1.0
C      1  0.5663610000000  0.4884570000000  0.3954570000000 1.0
C      1  0.5072660000000  0.4342520000000  0.5329720000000 1.0
C      1  0.3616560000000  0.4124520000000  0.5195080000000 1.0
C      1  0.5884030000000  0.5340310000000  0.5940240000000 1.0
C      1  0.4807100000000  0.5956670000000  0.4028810000000 1.0
C      1  0.5662940000000  0.5304130000000  0.4233090000000 1.0
C      1  0.4180260000000  0.5550940000000  0.3877210000000 1.0
C      1  0.5274800000000  0.4653800000000  0.6314270000000 1.0
C      1  0.3972720000000  0.4252440000000  0.5559730000000 1.0
C      1  0.4296160000000  0.5529140000000  0.5851330000000 1.0
C      1  0.4785260000000  0.4509810000000  0.4190640000000 1.0
C      1  0.5121290000000  0.4907620000000  0.3803940000000 1.0
C      1  0.5878310000000  0.4754110000000  0.4599750000000 1.0
C      1  0.5050440000000  0.4468830000000  0.4093910000000 1.0
C      1  0.5567620000000  0.5230380000000  0.6293200000000 1.0
C      1  0.5260820000000  0.5307230000000  0.4924420000000 1.0
C      1  0.4883580000000  0.3889050000000  0.5064760000000 1.0
C      1  0.6278350000000  0.4556410000000  0.5682710000000 1.0
C      1  0.5799530000000  0.5538810000000  0.5097540000000 1.0
C      1  0.5058230000000  0.4089060000000  0.4899460000000 1.0
C      1  0.5777100000000  0.4303350000000  0.5849090000000 1.0
C      1  0.5313610000000  0.5376160000000  0.5217790000000 1.0
C      1  0.4823340000000  0.6243350000000  0.4459470000000 1.0
C      1  0.4906600000000  0.4758400000000  0.5433870000000 1.0
C      1  0.4366790000000  0.5044250000000  0.5048960000000 1.0
C      1  0.4094510000000  0.5382810000000  0.4082360000000 1.0
C      1  0.5304090000000  0.3858410000000  0.5243340000000 1.0
C      1  0.4918420000000  0.5900920000000  0.5625030000000 1.0
C      1  0.5033280000000  0.6082610000000  0.4536670000000 1.0
C      1  0.4561580000000  0.6163000000000  0.4893950000000 1.0
C      1  0.5537670000000  0.4455430000000  0.5378330000000 1.0
C      1  0.4653050000000  0.5792220000000  0.5609390000000 1.0
C      1  0.6124060000000  0.4431630000000  0.5477430000000 1.0
C      1  0.4747350000000  0.5366720000000  0.5882770000000 1.0
C      1  0.5451810000000  0.3992640000000  0.5437860000000 1.0
C      1  0.4539990000000  0.4920720000000  0.5226810000000 1.0
C      1  0.5020180000000  0.5108970000000  0.3983910000000 1.0
C      1  0.5716920000000  0.5449700000000  0.4476450000000 1.0
C      1  0.4548720000000  0.5912660000000  0.3881830000000 1.0
C      1  0.5026130000000  0.4077220000000  0.4607330000000 1.0
C      1  0.5267270000000  0.4230980000000  0.5777900000000 1.0
C      1  0.4337380000000  0.4411720000000  0.4092240000000 1.0
END
