TITL C-3866669-3764-465 0.688522047708034 125000 -1055.21000864366 0 0 171 (C1) n - 1
REM
REM in /home/nfs/bkarasulu/CARBON/AIRSS/Generating-Clusters/LCBOP/Only-C1/SD-CG/FIRE-CG
REM
REM
REM
REM
REM
REM ./C.cell (11c1c37f851c82e70ff6c80c92926a4b)
REM AIRSS Version 0.9.1 bugfix July 2018 build 013d7b7c2542+ Fri, 06 Jul 2018 19:26:36 +0100
REM compiler GCC version 9.2.1 20190827 (Red Hat 9.2.1-1)
REM options -cpp -mtune=generic -march=x86-64 -g -O0 -fpre-include=/usr/include/finclude/math-vector-fortran.h
REM seed -667270070 888660424 1580375070 -10861246 -2331994 -2046239863 -1255936382 -198472106 1925456582 1745726905 141250374 -1292619560 -1952279683 83857506 1881580329 223525929 1819637374 -2094438424 -412197204 -67023078 1971072477 1530782583 -297826978 -2047600395 849134298 -818374949 -867160614 1202714583 -1504334625 -754590271 728827099 -1842858243 2069288434
REM
CELL 1.54180   50.00000   50.00000   50.00000   90.00000   90.00000   90.00000
LATT -1
SFAC C  
C      1  0.5878670000000  0.6024230000000  0.4196130000000 1.0
C      1  0.4896410000000  0.5479840000000  0.6356410000000 1.0
C      1  0.4735090000000  0.5384750000000  0.4928620000000 1.0
C      1  0.4939670000000  0.4161380000000  0.5037400000000 1.0
C      1  0.4156350000000  0.6107010000000  0.5445890000000 1.0
C      1  0.5151690000000  0.5237600000000  0.4299860000000 1.0
C      1  0.5285590000000  0.4732150000000  0.4285820000000 1.0
C      1  0.4274860000000  0.4430280000000  0.5849180000000 1.0
C      1  0.5079470000000  0.5604060000000  0.6206020000000 1.0
C      1  0.5635620000000  0.5371910000000  0.4334950000000 1.0
C      1  0.5057670000000  0.5969300000000  0.4299060000000 1.0
C      1  0.5476210000000  0.4901190000000  0.4395420000000 1.0
C      1  0.5489220000000  0.5343960000000  0.5058640000000 1.0
C      1  0.3818710000000  0.4420800000000  0.4105210000000 1.0
C      1  0.5183360000000  0.4231900000000  0.4928570000000 1.0
C      1  0.5308290000000  0.5616110000000  0.3451500000000 1.0
C      1  0.6319030000000  0.4586510000000  0.4973460000000 1.0
C      1  0.4439420000000  0.4853870000000  0.5254080000000 1.0
C      1  0.5734160000000  0.5396790000000  0.3624600000000 1.0
C      1  0.4648700000000  0.4541550000000  0.4613020000000 1.0
C      1  0.4801360000000  0.5698920000000  0.3972690000000 1.0
C      1  0.5509250000000  0.4280980000000  0.5394160000000 1.0
C      1  0.5802110000000  0.5489220000000  0.4130750000000 1.0
C      1  0.4315890000000  0.5785630000000  0.5817950000000 1.0
C      1  0.5054170000000  0.6295350000000  0.4637310000000 1.0
C      1  0.5007720000000  0.4292850000000  0.5519260000000 1.0
C      1  0.4806240000000  0.4468900000000  0.6401670000000 1.0
C      1  0.4925300000000  0.4924680000000  0.4714380000000 1.0
C      1  0.6086780000000  0.4377130000000  0.5411260000000 1.0
C      1  0.5820380000000  0.5375420000000  0.3875710000000 1.0
C      1  0.4796320000000  0.5201870000000  0.5706370000000 1.0
C      1  0.4475570000000  0.4588710000000  0.4385100000000 1.0
C      1  0.4810190000000  0.4866870000000  0.4140610000000 1.0
C      1  0.4334340000000  0.4251190000000  0.5206890000000 1.0
C      1  0.4636270000000  0.5579350000000  0.4164770000000 1.0
C      1  0.4060140000000  0.5231210000000  0.6052760000000 1.0
C      1  0.4753930000000  0.3844600000000  0.4478360000000 1.0
C      1  0.4057160000000  0.5083180000000  0.5826160000000 1.0
C      1  0.5303150000000  0.4496400000000  0.4947640000000 1.0
C      1  0.4904250000000  0.5809290000000  0.4726540000000 1.0
C      1  0.5107800000000  0.5616490000000  0.4689400000000 1.0
C      1  0.4611430000000  0.5384060000000  0.5828220000000 1.0
C      1  0.5108200000000  0.5423290000000  0.4506830000000 1.0
C      1  0.6128620000000  0.4370850000000  0.4922540000000 1.0
C      1  0.4515450000000  0.4518200000000  0.4860110000000 1.0
C      1  0.5068770000000  0.5651330000000  0.3561730000000 1.0
C      1  0.4121990000000  0.5511180000000  0.5038460000000 1.0
C      1  0.6199020000000  0.5401720000000  0.5214220000000 1.0
C      1  0.4237540000000  0.5438280000000  0.6129090000000 1.0
C      1  0.5951930000000  0.6066580000000  0.5487930000000 1.0
C      1  0.3945720000000  0.4517550000000  0.5138990000000 1.0
C      1  0.6582080000000  0.4546310000000  0.4904500000000 1.0
C      1  0.5655430000000  0.4309030000000  0.4690700000000 1.0
C      1  0.4760610000000  0.4355350000000  0.5945340000000 1.0
C      1  0.4715680000000  0.4835900000000  0.5382240000000 1.0
C      1  0.4943740000000  0.4918430000000  0.6362120000000 1.0
C      1  0.4492090000000  0.5111590000000  0.4631940000000 1.0
C      1  0.4490240000000  0.4431690000000  0.6032470000000 1.0
C      1  0.4818070000000  0.4596700000000  0.5222730000000 1.0
C      1  0.5511790000000  0.4565660000000  0.5368690000000 1.0
C      1  0.4669910000000  0.5295910000000  0.4206730000000 1.0
C      1  0.4142030000000  0.4421930000000  0.5613570000000 1.0
C      1  0.5592790000000  0.5544290000000  0.4560020000000 1.0
C      1  0.4880840000000  0.3802110000000  0.4726690000000 1.0
C      1  0.4900770000000  0.5130470000000  0.4188190000000 1.0
C      1  0.4925570000000  0.5945000000000  0.4049050000000 1.0
C      1  0.5183600000000  0.5652900000000  0.5965730000000 1.0
C      1  0.4868990000000  0.5551950000000  0.3732580000000 1.0
C      1  0.6339890000000  0.4941190000000  0.5350380000000 1.0
C      1  0.3994110000000  0.4990120000000  0.5118420000000 1.0
C      1  0.4950650000000  0.4390600000000  0.6158350000000 1.0
C      1  0.5755100000000  0.4722210000000  0.5372550000000 1.0
C      1  0.4781420000000  0.4514620000000  0.3721490000000 1.0
C      1  0.4517360000000  0.3627540000000  0.5273180000000 1.0
C      1  0.4684360000000  0.5035490000000  0.6377300000000 1.0
C      1  0.4102990000000  0.4766200000000  0.4691490000000 1.0
C      1  0.4462330000000  0.5641910000000  0.4372100000000 1.0
C      1  0.4185340000000  0.4623350000000  0.4446070000000 1.0
C      1  0.4773490000000  0.5028600000000  0.3603070000000 1.0
C      1  0.4862900000000  0.4459340000000  0.5704950000000 1.0
C      1  0.5457610000000  0.6240960000000  0.4357540000000 1.0
C      1  0.4942400000000  0.6040170000000  0.4561210000000 1.0
C      1  0.5298140000000  0.3925760000000  0.5655900000000 1.0
C      1  0.4440690000000  0.5674610000000  0.4646640000000 1.0
C      1  0.5997580000000  0.4630930000000  0.5502170000000 1.0
C      1  0.5483150000000  0.5788080000000  0.4480360000000 1.0
C      1  0.4188180000000  0.5714130000000  0.6065520000000 1.0
C      1  0.6069870000000  0.5267610000000  0.4997950000000 1.0
C      1  0.6011160000000  0.4989820000000  0.5025440000000 1.0
C      1  0.5366780000000  0.5595620000000  0.5461870000000 1.0
C      1  0.4742380000000  0.4422250000000  0.3987720000000 1.0
C      1  0.5411440000000  0.4228160000000  0.4203680000000 1.0
C      1  0.3957080000000  0.4744620000000  0.4959050000000 1.0
C      1  0.4912620000000  0.4657600000000  0.4593700000000 1.0
C      1  0.4187500000000  0.4960820000000  0.5338570000000 1.0
C      1  0.4163830000000  0.5125110000000  0.5568750000000 1.0
C      1  0.4812320000000  0.4740600000000  0.5661880000000 1.0
C      1  0.4949360000000  0.4682450000000  0.6528950000000 1.0
C      1  0.5520080000000  0.4544430000000  0.4764610000000 1.0
C      1  0.4830100000000  0.4298530000000  0.5274070000000 1.0
C      1  0.5165140000000  0.3788950000000  0.4720230000000 1.0
C      1  0.6244170000000  0.4833470000000  0.5093140000000 1.0
C      1  0.4784860000000  0.4759340000000  0.3604680000000 1.0
C      1  0.5580790000000  0.4789710000000  0.4632830000000 1.0
C      1  0.4236190000000  0.5409340000000  0.5509660000000 1.0
C      1  0.5271360000000  0.4170310000000  0.5521450000000 1.0
C      1  0.5038240000000  0.4869390000000  0.6086400000000 1.0
C      1  0.4041880000000  0.5883190000000  0.6220330000000 1.0
C      1  0.4887940000000  0.4215350000000  0.4132350000000 1.0
C      1  0.4569200000000  0.4130270000000  0.5308720000000 1.0
C      1  0.5288390000000  0.6395940000000  0.4529070000000 1.0
C      1  0.4450700000000  0.4772770000000  0.4978120000000 1.0
C      1  0.5234270000000  0.5632780000000  0.5705360000000 1.0
C      1  0.4679600000000  0.5648520000000  0.4802140000000 1.0
C      1  0.5769560000000  0.4924760000000  0.5162400000000 1.0
C      1  0.5583430000000  0.4051560000000  0.4770930000000 1.0
C      1  0.4203300000000  0.5634640000000  0.4786480000000 1.0
C      1  0.4024090000000  0.5984280000000  0.5244520000000 1.0
C      1  0.5134590000000  0.4302120000000  0.4255840000000 1.0
C      1  0.6014140000000  0.6309230000000  0.5559830000000 1.0
C      1  0.4796220000000  0.3917480000000  0.4971460000000 1.0
C      1  0.5884100000000  0.5806330000000  0.5411850000000 1.0
C      1  0.6374710000000  0.5224840000000  0.5354090000000 1.0
C      1  0.4479970000000  0.4832220000000  0.6356910000000 1.0
C      1  0.4514330000000  0.5370040000000  0.6099650000000 1.0
C      1  0.5114590000000  0.5163510000000  0.5294640000000 1.0
C      1  0.5317900000000  0.4003990000000  0.4817300000000 1.0
C      1  0.5848930000000  0.4305590000000  0.4481680000000 1.0
C      1  0.4638740000000  0.5336560000000  0.5195910000000 1.0
C      1  0.4617800000000  0.3864790000000  0.5189800000000 1.0
C      1  0.4357840000000  0.4293400000000  0.4925700000000 1.0
C      1  0.6090380000000  0.4311170000000  0.4638210000000 1.0
C      1  0.4776370000000  0.5289560000000  0.3669300000000 1.0
C      1  0.5549160000000  0.5503870000000  0.3465830000000 1.0
C      1  0.4639040000000  0.4636620000000  0.4152910000000 1.0
C      1  0.6084770000000  0.5632270000000  0.5321060000000 1.0
C      1  0.5726440000000  0.6237210000000  0.4269770000000 1.0
C      1  0.4817620000000  0.5150000000000  0.5387160000000 1.0
C      1  0.5309710000000  0.4660300000000  0.5185460000000 1.0
C      1  0.3976320000000  0.5707980000000  0.5222980000000 1.0
C      1  0.5103800000000  0.4551620000000  0.4399230000000 1.0
C      1  0.5437130000000  0.5165650000000  0.4305700000000 1.0
C      1  0.5683590000000  0.4255400000000  0.4247620000000 1.0
C      1  0.5531410000000  0.5064860000000  0.5102980000000 1.0
C      1  0.5279840000000  0.4941170000000  0.5188750000000 1.0
C      1  0.5145060000000  0.4595740000000  0.6084760000000 1.0
C      1  0.4365520000000  0.5422350000000  0.5230170000000 1.0
C      1  0.5310940000000  0.3696980000000  0.5779990000000 1.0
C      1  0.4329710000000  0.4933950000000  0.4769570000000 1.0
C      1  0.3980030000000  0.5566170000000  0.5473670000000 1.0
C      1  0.4534120000000  0.4554030000000  0.6298370000000 1.0
C      1  0.5586960000000  0.5470010000000  0.4830430000000 1.0
C      1  0.4272150000000  0.6022250000000  0.5673540000000 1.0
C      1  0.4466580000000  0.5235470000000  0.4386420000000 1.0
C      1  0.5988940000000  0.4263840000000  0.5164120000000 1.0
C      1  0.6206140000000  0.4812560000000  0.5565370000000 1.0
C      1  0.4748040000000  0.5148740000000  0.4760290000000 1.0
C      1  0.5724180000000  0.4160660000000  0.5238810000000 1.0
C      1  0.4766390000000  0.3990270000000  0.4252410000000 1.0
C      1  0.4678790000000  0.5306960000000  0.6313550000000 1.0
C      1  0.5342670000000  0.5977390000000  0.4330820000000 1.0
C      1  0.5898380000000  0.5757320000000  0.4161100000000 1.0
C      1  0.5616260000000  0.5723450000000  0.5427570000000 1.0
C      1  0.4895070000000  0.4954650000000  0.5844490000000 1.0
C      1  0.3992810000000  0.4522350000000  0.4270390000000 1.0
C      1  0.3965080000000  0.5252090000000  0.5012760000000 1.0
C      1  0.5285680000000  0.5407880000000  0.5263720000000 1.0
C      1  0.4240800000000  0.4125720000000  0.4745240000000 1.0
C      1  0.4909130000000  0.6162720000000  0.3883320000000 1.0
C      1  0.4118440000000  0.4386450000000  0.5331810000000 1.0
C      1  0.4427900000000  0.5552540000000  0.5686970000000 1.0
END
