TITL C-3866671-3735-676 6652.11820010466 125000 -797.120146072424 0 0 132 (C1) n - 1
REM
REM in /home/nfs/bkarasulu/CARBON/AIRSS/Generating-Clusters/LCBOP/Only-C1/SD-CG/FIRE-CG
REM
REM
REM
REM
REM
REM ./C.cell (11c1c37f851c82e70ff6c80c92926a4b)
REM AIRSS Version 0.9.1 bugfix July 2018 build 013d7b7c2542+ Fri, 06 Jul 2018 19:26:36 +0100
REM compiler GCC version 9.2.1 20190827 (Red Hat 9.2.1-1)
REM options -cpp -mtune=generic -march=x86-64 -g -O0 -fpre-include=/usr/include/finclude/math-vector-fortran.h
REM seed 907174655 -1896634300 19351809 -162730257 320920908 1044875145 877067738 -1944481733 690806370 943847772 -1274833873 -1857345558 1452316507 243184203 1816842493 1058099202 362186255 -947670827 -1913159167 -655783717 -386534749 673093807 -1637830224 1086847585 -1147682517 -374490749 -911642569 -159681249 2094965042 135597462 -770908738 1153080463 1446324468
REM
CELL 1.54180   50.00000   50.00000   50.00000   90.00000   90.00000   90.00000
LATT -1
SFAC C  
C      1  0.5145950000000  0.5327660000000  0.4492840000000 1.0
C      1  0.5180750000000  0.4090700000000  0.5379060000000 1.0
C      1  0.4699640000000  0.5651660000000  0.5705630000000 1.0
C      1  0.4420970000000  0.4335260000000  0.4925810000000 1.0
C      1  0.4800390000000  0.4684710000000  0.4687410000000 1.0
C      1  0.4959240000000  0.5674590000000  0.5822790000000 1.0
C      1  0.4436420000000  0.4978470000000  0.5702740000000 1.0
C      1  0.6438200000000  0.3425040000000  0.5321820000000 1.0
C      1  0.4625130000000  0.4327470000000  0.5142760000000 1.0
C      1  0.5156390000000  0.4438160000000  0.5054130000000 1.0
C      1  0.5984590000000  0.4551260000000  0.4629530000000 1.0
C      1  0.4303380000000  0.5014990000000  0.4119870000000 1.0
C      1  0.5370960000000  0.4742470000000  0.5785140000000 1.0
C      1  0.4879190000000  0.4989720000000  0.5271790000000 1.0
C      1  0.4788900000000  0.6127110000000  0.5277290000000 1.0
C      1  0.5083810000000  0.4851300000000  0.4012550000000 1.0
C      1  0.5963870000000  0.5457680000000  0.5049960000000 1.0
C      1  0.4859040000000  0.4131650000000  0.4663430000000 1.0
C      1  0.5369770000000  0.4440550000000  0.4873390000000 1.0
C      1  0.5437610000000  0.4462960000000  0.5697440000000 1.0
C      1  0.4050420000000  0.5273670000000  0.5659710000000 1.0
C      1  0.5668450000000  0.5675890000000  0.5537530000000 1.0
C      1  0.5815380000000  0.5792760000000  0.5342230000000 1.0
C      1  0.5609070000000  0.4847560000000  0.4876990000000 1.0
C      1  0.4612500000000  0.4767720000000  0.5781090000000 1.0
C      1  0.5240160000000  0.5057290000000  0.6126570000000 1.0
C      1  0.4354090000000  0.5497960000000  0.4099580000000 1.0
C      1  0.4609010000000  0.5254790000000  0.4605220000000 1.0
C      1  0.4477380000000  0.5469410000000  0.5703320000000 1.0
C      1  0.5500440000000  0.5014580000000  0.5080660000000 1.0
C      1  0.4592290000000  0.5932890000000  0.5334570000000 1.0
C      1  0.4682670000000  0.4782210000000  0.5193210000000 1.0
C      1  0.4649100000000  0.4312260000000  0.4245300000000 1.0
C      1  0.4572960000000  0.5476970000000  0.4778560000000 1.0
C      1  0.6159820000000  0.3587330000000  0.5968200000000 1.0
C      1  0.5224810000000  0.5528090000000  0.4677820000000 1.0
C      1  0.4015080000000  0.5598430000000  0.4601700000000 1.0
C      1  0.4137660000000  0.5697340000000  0.5382130000000 1.0
C      1  0.4340470000000  0.4614890000000  0.4949020000000 1.0
C      1  0.4995370000000  0.4398550000000  0.4567570000000 1.0
C      1  0.6219610000000  0.3603180000000  0.5715030000000 1.0
C      1  0.6582890000000  0.3240650000000  0.5207850000000 1.0
C      1  0.4014240000000  0.5352750000000  0.4429900000000 1.0
C      1  0.5099470000000  0.3969740000000  0.5139320000000 1.0
C      1  0.5084250000000  0.5509720000000  0.5144000000000 1.0
C      1  0.5451780000000  0.4103060000000  0.4254210000000 1.0
C      1  0.4605300000000  0.4152190000000  0.4503890000000 1.0
C      1  0.4607800000000  0.4743120000000  0.4913810000000 1.0
C      1  0.5442940000000  0.5559680000000  0.5672980000000 1.0
C      1  0.4756610000000  0.5948480000000  0.4819430000000 1.0
C      1  0.5931130000000  0.4264430000000  0.5780060000000 1.0
C      1  0.4903920000000  0.4353230000000  0.5084110000000 1.0
C      1  0.4494170000000  0.5705330000000  0.4202220000000 1.0
C      1  0.4981580000000  0.3977520000000  0.4883910000000 1.0
C      1  0.6095150000000  0.4047400000000  0.5160070000000 1.0
C      1  0.5203080000000  0.4308300000000  0.5576450000000 1.0
C      1  0.5281510000000  0.5454570000000  0.4951590000000 1.0
C      1  0.3995230000000  0.5120500000000  0.5008770000000 1.0
C      1  0.4394210000000  0.4298030000000  0.4639670000000 1.0
C      1  0.4971370000000  0.6159420000000  0.5500010000000 1.0
C      1  0.4851460000000  0.5481920000000  0.5296550000000 1.0
C      1  0.5893380000000  0.5839010000000  0.4816890000000 1.0
C      1  0.4408270000000  0.5049340000000  0.4599240000000 1.0
C      1  0.4107460000000  0.4656570000000  0.5094410000000 1.0
C      1  0.5831720000000  0.5680390000000  0.4595180000000 1.0
C      1  0.4976060000000  0.4991950000000  0.6112970000000 1.0
C      1  0.3984230000000  0.4675520000000  0.5329840000000 1.0
C      1  0.5808020000000  0.4703790000000  0.4462060000000 1.0
C      1  0.5411400000000  0.5022960000000  0.5896190000000 1.0
C      1  0.4167510000000  0.5821270000000  0.4515510000000 1.0
C      1  0.4201660000000  0.5511000000000  0.5603240000000 1.0
C      1  0.5873250000000  0.4446780000000  0.4870950000000 1.0
C      1  0.5638820000000  0.4545690000000  0.4301560000000 1.0
C      1  0.6189240000000  0.3838930000000  0.5293640000000 1.0
C      1  0.5930570000000  0.5739990000000  0.5089700000000 1.0
C      1  0.5111380000000  0.4895690000000  0.5432090000000 1.0
C      1  0.5209590000000  0.5741010000000  0.5691900000000 1.0
C      1  0.5288070000000  0.4397190000000  0.4605130000000 1.0
C      1  0.4283540000000  0.4811190000000  0.4563000000000 1.0
C      1  0.5313820000000  0.5992970000000  0.4770470000000 1.0
C      1  0.5248070000000  0.5103180000000  0.4077570000000 1.0
C      1  0.5117950000000  0.4980410000000  0.4792670000000 1.0
C      1  0.4862500000000  0.5188390000000  0.4461930000000 1.0
C      1  0.5692020000000  0.4352890000000  0.5726170000000 1.0
C      1  0.4226920000000  0.5236110000000  0.5078690000000 1.0
C      1  0.5182300000000  0.4638810000000  0.3875630000000 1.0
C      1  0.5196920000000  0.6056210000000  0.5015270000000 1.0
C      1  0.5037090000000  0.5308120000000  0.4018140000000 1.0
C      1  0.4787740000000  0.4911030000000  0.4065350000000 1.0
C      1  0.4868560000000  0.4857710000000  0.5890300000000 1.0
C      1  0.4759440000000  0.5226610000000  0.5395500000000 1.0
C      1  0.6282370000000  0.3622410000000  0.5443490000000 1.0
C      1  0.4314020000000  0.5920590000000  0.5354100000000 1.0
C      1  0.4150150000000  0.5004000000000  0.5678500000000 1.0
C      1  0.4203080000000  0.5279690000000  0.4206130000000 1.0
C      1  0.4814570000000  0.5188850000000  0.4162430000000 1.0
C      1  0.5077560000000  0.4756500000000  0.5691800000000 1.0
C      1  0.5509110000000  0.5287720000000  0.5010470000000 1.0
C      1  0.4909640000000  0.6083500000000  0.5018330000000 1.0
C      1  0.5992640000000  0.4253370000000  0.5028860000000 1.0
C      1  0.5361910000000  0.5194460000000  0.4334130000000 1.0
C      1  0.4001190000000  0.4795050000000  0.5567800000000 1.0
C      1  0.5018020000000  0.5065040000000  0.5023100000000 1.0
C      1  0.4573370000000  0.5211850000000  0.5610930000000 1.0
C      1  0.5459020000000  0.5279220000000  0.5759120000000 1.0
C      1  0.4681360000000  0.4532550000000  0.5613820000000 1.0
C      1  0.5617460000000  0.4564510000000  0.4922630000000 1.0
C      1  0.5292950000000  0.5845900000000  0.4312800000000 1.0
C      1  0.4967730000000  0.4471490000000  0.5638070000000 1.0
C      1  0.5199850000000  0.5980660000000  0.5519980000000 1.0
C      1  0.4724270000000  0.5699730000000  0.5421250000000 1.0
C      1  0.3973090000000  0.5651520000000  0.5148570000000 1.0
C      1  0.5747990000000  0.5401990000000  0.4609160000000 1.0
C      1  0.5758850000000  0.5348240000000  0.4894740000000 1.0
C      1  0.5280700000000  0.5790200000000  0.4580060000000 1.0
C      1  0.4468320000000  0.4539720000000  0.4218100000000 1.0
C      1  0.4922840000000  0.4391000000000  0.4274820000000 1.0
C      1  0.3837260000000  0.5069020000000  0.4797430000000 1.0
C      1  0.5456080000000  0.4345470000000  0.4380700000000 1.0
C      1  0.5326550000000  0.6003890000000  0.5263370000000 1.0
C      1  0.5364840000000  0.4926270000000  0.5308830000000 1.0
C      1  0.4321890000000  0.4542620000000  0.4474160000000 1.0
C      1  0.5616940000000  0.5177270000000  0.4474360000000 1.0
C      1  0.5681540000000  0.4922920000000  0.4600090000000 1.0
C      1  0.4422120000000  0.5405470000000  0.5005540000000 1.0
C      1  0.4444560000000  0.5812070000000  0.4459060000000 1.0
C      1  0.4517230000000  0.4805520000000  0.4100570000000 1.0
C      1  0.3934030000000  0.5618120000000  0.4879890000000 1.0
C      1  0.4933000000000  0.4912940000000  0.4590300000000 1.0
C      1  0.4609080000000  0.5748120000000  0.4685650000000 1.0
C      1  0.4598540000000  0.4543410000000  0.5345490000000 1.0
C      1  0.3847800000000  0.5149240000000  0.4539970000000 1.0
END
