TITL C-3866675-3766-521 5.20239809417782e-06 125000 -408.317934660405 0 0 69 (C1) n - 1
REM
REM in /home/nfs/bkarasulu/CARBON/AIRSS/Generating-Clusters/LCBOP/Only-C1/SD-CG/FIRE-CG
REM
REM
REM
REM
REM
REM ./C.cell (11c1c37f851c82e70ff6c80c92926a4b)
REM AIRSS Version 0.9.1 bugfix July 2018 build 013d7b7c2542+ Fri, 06 Jul 2018 19:26:36 +0100
REM compiler GCC version 9.2.1 20190827 (Red Hat 9.2.1-1)
REM options -cpp -mtune=generic -march=x86-64 -g -O0 -fpre-include=/usr/include/finclude/math-vector-fortran.h
REM seed 789326553 -1143449636 -228677103 736578429 -1881688462 -1699359926 -1380573459 1145032451 -514252582 956315582 601501549 914622627 -568861643 -673168860 494566176 991527364 153721076 893831770 -279029213 294332503 -1721839394 -2027025372 2095352481 778361791 -2135679775 1515244845 -1913398790 1379443148 -1503314232 1253827785 785717204 617284235 -1846228767
REM
CELL 1.54180   50.00000   50.00000   50.00000   90.00000   90.00000   90.00000
LATT -1
SFAC C  
C      1  0.5287660000000  0.5138200000000  0.4891810000000 1.0
C      1  0.4738450000000  0.5272190000000  0.5516080000000 1.0
C      1  0.5389970000000  0.5430330000000  0.4220250000000 1.0
C      1  0.4964070000000  0.5420240000000  0.4477530000000 1.0
C      1  0.5432680000000  0.5078430000000  0.4648730000000 1.0
C      1  0.5666700000000  0.4915370000000  0.4669610000000 1.0
C      1  0.5413700000000  0.4320230000000  0.4698880000000 1.0
C      1  0.4944060000000  0.4364830000000  0.4412160000000 1.0
C      1  0.4362650000000  0.5896160000000  0.4719920000000 1.0
C      1  0.4852360000000  0.4590700000000  0.5117010000000 1.0
C      1  0.4228510000000  0.4983860000000  0.5933660000000 1.0
C      1  0.4238350000000  0.4489540000000  0.6169390000000 1.0
C      1  0.4860490000000  0.4424090000000  0.5359900000000 1.0
C      1  0.5500970000000  0.4542930000000  0.5858650000000 1.0
C      1  0.5348830000000  0.4325600000000  0.5825280000000 1.0
C      1  0.4460420000000  0.5177050000000  0.4536570000000 1.0
C      1  0.4965910000000  0.5917350000000  0.5116000000000 1.0
C      1  0.4709050000000  0.5492030000000  0.5326360000000 1.0
C      1  0.4400190000000  0.4522870000000  0.5941450000000 1.0
C      1  0.4395800000000  0.4791050000000  0.5812890000000 1.0
C      1  0.5180280000000  0.5879920000000  0.4378510000000 1.0
C      1  0.4530270000000  0.5367370000000  0.5130690000000 1.0
C      1  0.4571470000000  0.4622860000000  0.4990390000000 1.0
C      1  0.5540700000000  0.5522520000000  0.4897360000000 1.0
C      1  0.4530840000000  0.4899200000000  0.4926620000000 1.0
C      1  0.4572520000000  0.4791150000000  0.5583230000000 1.0
C      1  0.5085540000000  0.4248960000000  0.5386850000000 1.0
C      1  0.5252100000000  0.4196680000000  0.5161570000000 1.0
C      1  0.4849900000000  0.5731850000000  0.5277040000000 1.0
C      1  0.5480460000000  0.4814910000000  0.5220130000000 1.0
C      1  0.4580040000000  0.4367530000000  0.5783290000000 1.0
C      1  0.5192430000000  0.4207410000000  0.5643540000000 1.0
C      1  0.5453890000000  0.5260310000000  0.4438950000000 1.0
C      1  0.4619650000000  0.4978800000000  0.4657550000000 1.0
C      1  0.5050710000000  0.4762110000000  0.4740380000000 1.0
C      1  0.5151870000000  0.4562760000000  0.4337780000000 1.0
C      1  0.5046740000000  0.5083730000000  0.4138060000000 1.0
C      1  0.5095380000000  0.5999850000000  0.4608380000000 1.0
C      1  0.5399040000000  0.5710900000000  0.4299580000000 1.0
C      1  0.5543320000000  0.4568670000000  0.5095390000000 1.0
C      1  0.5624720000000  0.5773890000000  0.4464870000000 1.0
C      1  0.4876700000000  0.4886930000000  0.4550630000000 1.0
C      1  0.4515000000000  0.5078340000000  0.5148710000000 1.0
C      1  0.4077770000000  0.4934030000000  0.6155160000000 1.0
C      1  0.5257590000000  0.4961100000000  0.5112960000000 1.0
C      1  0.5831410000000  0.5076270000000  0.4844670000000 1.0
C      1  0.5630530000000  0.5734460000000  0.4732550000000 1.0
C      1  0.5637270000000  0.4688610000000  0.4504680000000 1.0
C      1  0.5424230000000  0.4336380000000  0.4983880000000 1.0
C      1  0.4760220000000  0.5629980000000  0.4811110000000 1.0
C      1  0.5587520000000  0.4755920000000  0.5722120000000 1.0
C      1  0.5578450000000  0.4864040000000  0.5477870000000 1.0
C      1  0.5045550000000  0.6014620000000  0.4874970000000 1.0
C      1  0.4883010000000  0.5287820000000  0.4258290000000 1.0
C      1  0.5253290000000  0.5427770000000  0.4886930000000 1.0
C      1  0.4689160000000  0.4518040000000  0.5563350000000 1.0
C      1  0.5008060000000  0.5505360000000  0.4745910000000 1.0
C      1  0.4610390000000  0.5022360000000  0.5426900000000 1.0
C      1  0.4082650000000  0.4687950000000  0.6272600000000 1.0
C      1  0.4825920000000  0.4355760000000  0.4673440000000 1.0
C      1  0.5265810000000  0.5245530000000  0.4031630000000 1.0
C      1  0.5004250000000  0.4851020000000  0.5180690000000 1.0
C      1  0.5413280000000  0.4510740000000  0.4480190000000 1.0
C      1  0.5746130000000  0.5318950000000  0.4947540000000 1.0
C      1  0.4561860000000  0.4414080000000  0.4781490000000 1.0
C      1  0.4399650000000  0.5436340000000  0.4566200000000 1.0
C      1  0.4992210000000  0.4510980000000  0.4860210000000 1.0
C      1  0.5027790000000  0.4839540000000  0.4293080000000 1.0
C      1  0.4501640000000  0.5662640000000  0.4699930000000 1.0
END
