TITL C-3866672-3872-455 4.38519320979684 125000 -445.55054227655 0 0 75 (C1) n - 1
REM
REM in /home/nfs/bkarasulu/CARBON/AIRSS/Generating-Clusters/LCBOP/Only-C1/SD-CG/FIRE-CG
REM
REM
REM
REM
REM
REM ./C.cell (11c1c37f851c82e70ff6c80c92926a4b)
REM AIRSS Version 0.9.1 bugfix July 2018 build 013d7b7c2542+ Fri, 06 Jul 2018 19:26:36 +0100
REM compiler GCC version 9.2.1 20190827 (Red Hat 9.2.1-1)
REM options -cpp -mtune=generic -march=x86-64 -g -O0 -fpre-include=/usr/include/finclude/math-vector-fortran.h
REM seed 1034771875 -2144648677 -1855312056 14812359 -977871077 -362330040 1992348031 515103781 768692848 -480339016 -1631061556 -2098807044 -2132658765 -952686960 772948624 -1579525912 488163254 176872919 -1382063200 859901154 1879213157 -1403104709 1726432483 -1862277735 271151599 961941286 158536871 -233640985 -708363527 1785992654 68820579 503522438 -1570672770
REM
CELL 1.54180   50.00000   50.00000   50.00000   90.00000   90.00000   90.00000
LATT -1
SFAC C  
C      1  0.5460210000000  0.4619150000000  0.5768670000000 1.0
C      1  0.4753110000000  0.5103630000000  0.5184580000000 1.0
C      1  0.5403690000000  0.5025120000000  0.5497070000000 1.0
C      1  0.5271630000000  0.4813150000000  0.5077600000000 1.0
C      1  0.5006930000000  0.4346550000000  0.4110560000000 1.0
C      1  0.3982320000000  0.4318190000000  0.3233820000000 1.0
C      1  0.6509870000000  0.6062430000000  0.5394340000000 1.0
C      1  0.4408180000000  0.4659300000000  0.4662970000000 1.0
C      1  0.4802580000000  0.5360550000000  0.5087240000000 1.0
C      1  0.4925600000000  0.4990920000000  0.5381970000000 1.0
C      1  0.5553420000000  0.5264390000000  0.5461590000000 1.0
C      1  0.6771720000000  0.6083200000000  0.5429370000000 1.0
C      1  0.4990450000000  0.4276120000000  0.4645840000000 1.0
C      1  0.4777500000000  0.5836690000000  0.5485260000000 1.0
C      1  0.4179280000000  0.4139470000000  0.3135190000000 1.0
C      1  0.4232360000000  0.4426430000000  0.3647490000000 1.0
C      1  0.4011920000000  0.4447910000000  0.3470170000000 1.0
C      1  0.4946040000000  0.5789720000000  0.5261240000000 1.0
C      1  0.5724390000000  0.5994650000000  0.5292600000000 1.0
C      1  0.5207210000000  0.5887980000000  0.5258490000000 1.0
C      1  0.5676400000000  0.5390700000000  0.5668810000000 1.0
C      1  0.4177510000000  0.4631180000000  0.5226370000000 1.0
C      1  0.4667660000000  0.6089460000000  0.5528190000000 1.0
C      1  0.4722590000000  0.5625140000000  0.5659240000000 1.0
C      1  0.4685600000000  0.4412420000000  0.5759220000000 1.0
C      1  0.4800820000000  0.5747160000000  0.4801220000000 1.0
C      1  0.4519320000000  0.4868050000000  0.4817150000000 1.0
C      1  0.4567250000000  0.6332120000000  0.5563160000000 1.0
C      1  0.6248020000000  0.6041650000000  0.5359310000000 1.0
C      1  0.5438470000000  0.5001770000000  0.4612280000000 1.0
C      1  0.4343620000000  0.4417990000000  0.4805220000000 1.0
C      1  0.4889390000000  0.4184970000000  0.5108080000000 1.0
C      1  0.5200070000000  0.4942050000000  0.5320110000000 1.0
C      1  0.5186700000000  0.4449140000000  0.4757460000000 1.0
C      1  0.4244790000000  0.4563030000000  0.3889470000000 1.0
C      1  0.4674260000000  0.4213910000000  0.3710730000000 1.0
C      1  0.4138990000000  0.3872380000000  0.2670260000000 1.0
C      1  0.5652870000000  0.5292070000000  0.5921370000000 1.0
C      1  0.4972690000000  0.4245550000000  0.4369780000000 1.0
C      1  0.4562660000000  0.4990550000000  0.6261930000000 1.0
C      1  0.4758010000000  0.4653310000000  0.5691110000000 1.0
C      1  0.4770650000000  0.5118460000000  0.5836850000000 1.0
C      1  0.4798660000000  0.4178220000000  0.4837330000000 1.0
C      1  0.4122810000000  0.4859410000000  0.6518060000000 1.0
C      1  0.5391720000000  0.4959980000000  0.4870750000000 1.0
C      1  0.7553090000000  0.6145170000000  0.5533900000000 1.0
C      1  0.5411450000000  0.4933170000000  0.4356720000000 1.0
C      1  0.4341200000000  0.4924960000000  0.6391700000000 1.0
C      1  0.4468800000000  0.6571120000000  0.5597010000000 1.0
C      1  0.5449500000000  0.4891250000000  0.5747790000000 1.0
C      1  0.7295490000000  0.6124740000000  0.5499440000000 1.0
C      1  0.5308100000000  0.5052990000000  0.6184740000000 1.0
C      1  0.4849280000000  0.5632830000000  0.5044840000000 1.0
C      1  0.4158530000000  0.4001830000000  0.2895610000000 1.0
C      1  0.4359470000000  0.4682740000000  0.4390080000000 1.0
C      1  0.5045520000000  0.5046510000000  0.6229000000000 1.0
C      1  0.7033570000000  0.6103960000000  0.5464400000000 1.0
C      1  0.4332090000000  0.4850420000000  0.5254570000000 1.0
C      1  0.4714810000000  0.5382580000000  0.5765290000000 1.0
C      1  0.4819100000000  0.4920890000000  0.5637320000000 1.0
C      1  0.4790530000000  0.5051110000000  0.6113440000000 1.0
C      1  0.5177740000000  0.4566270000000  0.4076990000000 1.0
C      1  0.4400260000000  0.4118890000000  0.3311990000000 1.0
C      1  0.5067530000000  0.4367770000000  0.5203430000000 1.0
C      1  0.4533960000000  0.4954550000000  0.5085790000000 1.0
C      1  0.4524370000000  0.4204150000000  0.4785630000000 1.0
C      1  0.4296650000000  0.4648470000000  0.4134930000000 1.0
C      1  0.5986180000000  0.6020400000000  0.5324590000000 1.0
C      1  0.4443110000000  0.4249880000000  0.3560180000000 1.0
C      1  0.5200290000000  0.4544700000000  0.5025350000000 1.0
C      1  0.5317730000000  0.4774300000000  0.4165180000000 1.0
C      1  0.5463710000000  0.5953000000000  0.5269610000000 1.0
C      1  0.4861220000000  0.4244910000000  0.3895860000000 1.0
C      1  0.5491480000000  0.5064370000000  0.5974800000000 1.0
C      1  0.4175240000000  0.4445870000000  0.5030340000000 1.0
END
