TITL C-3866669-3764-508 444.224625659818 125000 -554.932626213806 0 0 91 (C1) n - 1
REM
REM in /home/nfs/bkarasulu/CARBON/AIRSS/Generating-Clusters/LCBOP/Only-C1/SD-CG/FIRE-CG
REM
REM
REM
REM
REM
REM ./C.cell (11c1c37f851c82e70ff6c80c92926a4b)
REM AIRSS Version 0.9.1 bugfix July 2018 build 013d7b7c2542+ Fri, 06 Jul 2018 19:26:36 +0100
REM compiler GCC version 9.2.1 20190827 (Red Hat 9.2.1-1)
REM options -cpp -mtune=generic -march=x86-64 -g -O0 -fpre-include=/usr/include/finclude/math-vector-fortran.h
REM seed 2021331501 962053708 -734221574 -1800226786 -1974148551 -690577295 -787774373 1468907776 76753319 -1141133117 -176268804 1327539007 -583427567 -462475613 -2095207783 372945563 92421954 -1579383830 1948703142 -338699075 2095093051 733096056 -1511420600 1409782279 491612935 1266833483 -1162026595 1495862716 523078128 691841339 -376895610 890645084 1834523397
REM
CELL 1.54180   50.00000   50.00000   50.00000   90.00000   90.00000   90.00000
LATT -1
SFAC C  
C      1  0.5166270000000  0.4740690000000  0.5023540000000 1.0
C      1  0.5385430000000  0.5365390000000  0.5294080000000 1.0
C      1  0.4762050000000  0.4148000000000  0.4971350000000 1.0
C      1  0.4758630000000  0.4334450000000  0.4457020000000 1.0
C      1  0.5156220000000  0.4376720000000  0.5678130000000 1.0
C      1  0.5443060000000  0.5506050000000  0.4560310000000 1.0
C      1  0.4416070000000  0.5770820000000  0.4482370000000 1.0
C      1  0.5152450000000  0.4267960000000  0.4727040000000 1.0
C      1  0.4336010000000  0.4591880000000  0.5119390000000 1.0
C      1  0.4748950000000  0.4987950000000  0.5435610000000 1.0
C      1  0.5609990000000  0.5332590000000  0.4132090000000 1.0
C      1  0.5717770000000  0.4584060000000  0.5116850000000 1.0
C      1  0.5424660000000  0.4214320000000  0.4776660000000 1.0
C      1  0.4146820000000  0.5396780000000  0.5419070000000 1.0
C      1  0.4137100000000  0.5793630000000  0.5661320000000 1.0
C      1  0.5666300000000  0.4360690000000  0.4380960000000 1.0
C      1  0.5559440000000  0.5292880000000  0.4398370000000 1.0
C      1  0.4980010000000  0.5645670000000  0.4733890000000 1.0
C      1  0.5549310000000  0.5504300000000  0.4831630000000 1.0
C      1  0.4806290000000  0.4455510000000  0.4204340000000 1.0
C      1  0.5824780000000  0.5471930000000  0.4885320000000 1.0
C      1  0.5429200000000  0.4636370000000  0.5465640000000 1.0
C      1  0.4814990000000  0.5384960000000  0.4779520000000 1.0
C      1  0.4460160000000  0.4509110000000  0.5375810000000 1.0
C      1  0.4757510000000  0.5269780000000  0.5046800000000 1.0
C      1  0.5196990000000  0.5006130000000  0.5584060000000 1.0
C      1  0.4829630000000  0.5178360000000  0.4205000000000 1.0
C      1  0.5274520000000  0.4636810000000  0.5251450000000 1.0
C      1  0.5070480000000  0.4067290000000  0.5333260000000 1.0
C      1  0.5376560000000  0.5357700000000  0.5007730000000 1.0
C      1  0.4927560000000  0.4546210000000  0.5586040000000 1.0
C      1  0.5292480000000  0.4333170000000  0.4036180000000 1.0
C      1  0.4197360000000  0.4980360000000  0.4717890000000 1.0
C      1  0.5346960000000  0.6046300000000  0.5176700000000 1.0
C      1  0.5567640000000  0.4850470000000  0.4726770000000 1.0
C      1  0.5324180000000  0.5612800000000  0.5421910000000 1.0
C      1  0.5712610000000  0.4849950000000  0.5728160000000 1.0
C      1  0.5622780000000  0.4381220000000  0.4655850000000 1.0
C      1  0.4824300000000  0.4183040000000  0.5248560000000 1.0
C      1  0.5275760000000  0.4215300000000  0.5459810000000 1.0
C      1  0.4955700000000  0.4845110000000  0.5571310000000 1.0
C      1  0.4724800000000  0.4405850000000  0.5413730000000 1.0
C      1  0.4540220000000  0.5136390000000  0.5550210000000 1.0
C      1  0.5087320000000  0.5644810000000  0.5569210000000 1.0
C      1  0.4158110000000  0.4885680000000  0.5444830000000 1.0
C      1  0.4780630000000  0.5008210000000  0.5152860000000 1.0
C      1  0.5553150000000  0.4287520000000  0.5240250000000 1.0
C      1  0.4685040000000  0.4696340000000  0.4118600000000 1.0
C      1  0.5528900000000  0.4635540000000  0.5740290000000 1.0
C      1  0.4856100000000  0.4331030000000  0.4744480000000 1.0
C      1  0.4743780000000  0.4594310000000  0.4852590000000 1.0
C      1  0.4321070000000  0.4732830000000  0.4656330000000 1.0
C      1  0.4565980000000  0.5368280000000  0.4614210000000 1.0
C      1  0.4853620000000  0.5769400000000  0.5594770000000 1.0
C      1  0.4789600000000  0.5469020000000  0.4214650000000 1.0
C      1  0.5625190000000  0.5041390000000  0.4523050000000 1.0
C      1  0.4309460000000  0.5794370000000  0.4733480000000 1.0
C      1  0.5533050000000  0.4338450000000  0.4150780000000 1.0
C      1  0.4015540000000  0.5546620000000  0.5633110000000 1.0
C      1  0.5136670000000  0.6054460000000  0.5010710000000 1.0
C      1  0.5337360000000  0.4414040000000  0.6141920000000 1.0
C      1  0.5037500000000  0.5611950000000  0.4257480000000 1.0
C      1  0.4130060000000  0.4799120000000  0.5170200000000 1.0
C      1  0.4269760000000  0.5698160000000  0.4983410000000 1.0
C      1  0.5235030000000  0.5161560000000  0.4859600000000 1.0
C      1  0.5802290000000  0.4849780000000  0.5242320000000 1.0
C      1  0.5968850000000  0.5024440000000  0.5089470000000 1.0
C      1  0.4274250000000  0.5619410000000  0.5255110000000 1.0
C      1  0.4339580000000  0.5210360000000  0.4653370000000 1.0
C      1  0.4614340000000  0.5865440000000  0.5529500000000 1.0
C      1  0.5174450000000  0.5618790000000  0.4510520000000 1.0
C      1  0.5444880000000  0.5852950000000  0.5335820000000 1.0
C      1  0.4978680000000  0.5884580000000  0.4878100000000 1.0
C      1  0.4997180000000  0.5093240000000  0.4419480000000 1.0
C      1  0.5426530000000  0.5130630000000  0.5453710000000 1.0
C      1  0.5342620000000  0.4471680000000  0.5877280000000 1.0
C      1  0.4460600000000  0.4601450000000  0.4863840000000 1.0
C      1  0.4264410000000  0.5146590000000  0.5484300000000 1.0
C      1  0.4572310000000  0.5549900000000  0.4389080000000 1.0
C      1  0.4043620000000  0.4959640000000  0.4955070000000 1.0
C      1  0.4695740000000  0.4963400000000  0.4082520000000 1.0
C      1  0.5021440000000  0.5190350000000  0.4680040000000 1.0
C      1  0.4887630000000  0.4783790000000  0.5004020000000 1.0
C      1  0.4347600000000  0.5820730000000  0.5464090000000 1.0
C      1  0.5028940000000  0.4364020000000  0.4058510000000 1.0
C      1  0.5510120000000  0.4113480000000  0.5025790000000 1.0
C      1  0.5683530000000  0.4988070000000  0.5475570000000 1.0
C      1  0.5330070000000  0.4902860000000  0.4868770000000 1.0
C      1  0.5975380000000  0.5268430000000  0.4977180000000 1.0
C      1  0.4301940000000  0.4660550000000  0.5569880000000 1.0
C      1  0.5690090000000  0.4607420000000  0.4818140000000 1.0
END
