TITL C-3866671-3735-704 -1553.0832863636 125000 -1115.13962127167 0 0 185 (C1) n - 1
REM
REM in /home/nfs/bkarasulu/CARBON/AIRSS/Generating-Clusters/LCBOP/Only-C1/SD-CG/FIRE-CG
REM
REM
REM
REM
REM
REM ./C.cell (11c1c37f851c82e70ff6c80c92926a4b)
REM AIRSS Version 0.9.1 bugfix July 2018 build 013d7b7c2542+ Fri, 06 Jul 2018 19:26:36 +0100
REM compiler GCC version 9.2.1 20190827 (Red Hat 9.2.1-1)
REM options -cpp -mtune=generic -march=x86-64 -g -O0 -fpre-include=/usr/include/finclude/math-vector-fortran.h
REM seed 1903864461 344736911 1318530217 -591860304 -960594633 1600560831 -1503944043 403528770 1302208481 1989948371 -1767073000 -1980178870 -1984892420 -827941274 501616418 -604969642 1020100366 -1496931534 2123675664 -1375236923 -1513548453 -770455793 1135898283 765063492 -1599617324 -1677646138 -2007056828 -1657006587 1309446994 -606996106 1154678744 472977837 2044794556
REM
CELL 1.54180   50.00000   50.00000   50.00000   90.00000   90.00000   90.00000
LATT -1
SFAC C  
C      1  0.4283640000000  0.5847330000000  0.5194160000000 1.0
C      1  0.5621450000000  0.4673520000000  0.6531720000000 1.0
C      1  0.5413300000000  0.6075180000000  0.4293780000000 1.0
C      1  0.4918430000000  0.5782550000000  0.5807760000000 1.0
C      1  0.4933640000000  0.5531500000000  0.5918780000000 1.0
C      1  0.4576270000000  0.5140340000000  0.5689760000000 1.0
C      1  0.4660700000000  0.4473570000000  0.4409340000000 1.0
C      1  0.6092130000000  0.4445420000000  0.5511980000000 1.0
C      1  0.5194510000000  0.5848750000000  0.5256040000000 1.0
C      1  0.5658140000000  0.5750060000000  0.4491470000000 1.0
C      1  0.5043250000000  0.5803630000000  0.4532400000000 1.0
C      1  0.3954620000000  0.4567530000000  0.4716360000000 1.0
C      1  0.5494840000000  0.4731440000000  0.6311450000000 1.0
C      1  0.4987830000000  0.3981750000000  0.5545570000000 1.0
C      1  0.4916950000000  0.5366840000000  0.3746440000000 1.0
C      1  0.5120890000000  0.5314400000000  0.4917170000000 1.0
C      1  0.3907440000000  0.4522680000000  0.5006000000000 1.0
C      1  0.5703900000000  0.5656390000000  0.4988110000000 1.0
C      1  0.3978780000000  0.4978390000000  0.4396500000000 1.0
C      1  0.5302510000000  0.3811290000000  0.5858110000000 1.0
C      1  0.6120670000000  0.4717950000000  0.5454530000000 1.0
C      1  0.4204880000000  0.5720600000000  0.4736490000000 1.0
C      1  0.4262190000000  0.3785770000000  0.4929040000000 1.0
C      1  0.4659930000000  0.6067150000000  0.5036370000000 1.0
C      1  0.5683800000000  0.5145490000000  0.4430090000000 1.0
C      1  0.5971620000000  0.4480850000000  0.4559690000000 1.0
C      1  0.4970680000000  0.3844680000000  0.4233550000000 1.0
C      1  0.3758140000000  0.5017310000000  0.5179870000000 1.0
C      1  0.4896130000000  0.6072690000000  0.4181530000000 1.0
C      1  0.4909110000000  0.4238090000000  0.4823090000000 1.0
C      1  0.4906730000000  0.5014290000000  0.6080010000000 1.0
C      1  0.4820730000000  0.4901750000000  0.4520160000000 1.0
C      1  0.5601370000000  0.3922240000000  0.5277840000000 1.0
C      1  0.5974410000000  0.5129540000000  0.5650590000000 1.0
C      1  0.4141050000000  0.5792110000000  0.4464600000000 1.0
C      1  0.4502850000000  0.5710310000000  0.4200190000000 1.0
C      1  0.3769400000000  0.4750890000000  0.5126280000000 1.0
C      1  0.3844340000000  0.5269550000000  0.5232380000000 1.0
C      1  0.5537360000000  0.5108880000000  0.4180140000000 1.0
C      1  0.4182150000000  0.4127130000000  0.5329530000000 1.0
C      1  0.5225690000000  0.5745110000000  0.4749710000000 1.0
C      1  0.5097220000000  0.3771830000000  0.5682090000000 1.0
C      1  0.4723030000000  0.3780340000000  0.4309230000000 1.0
C      1  0.4183450000000  0.4504110000000  0.4266220000000 1.0
C      1  0.5944670000000  0.5028830000000  0.4491230000000 1.0
C      1  0.4078610000000  0.5444440000000  0.4084680000000 1.0
C      1  0.5534570000000  0.4625020000000  0.5386720000000 1.0
C      1  0.5588700000000  0.5268980000000  0.4673650000000 1.0
C      1  0.5862140000000  0.5555430000000  0.5444690000000 1.0
C      1  0.5419060000000  0.6315370000000  0.4780740000000 1.0
C      1  0.5546420000000  0.5063720000000  0.4909630000000 1.0
C      1  0.4991180000000  0.3741140000000  0.4891460000000 1.0
C      1  0.4438520000000  0.4714500000000  0.5741670000000 1.0
C      1  0.4571260000000  0.5455060000000  0.4308090000000 1.0
C      1  0.5982950000000  0.4746790000000  0.4459220000000 1.0
C      1  0.4005450000000  0.5470300000000  0.5359190000000 1.0
C      1  0.5187680000000  0.4353700000000  0.4843780000000 1.0
C      1  0.5327200000000  0.6269340000000  0.5323990000000 1.0
C      1  0.4431520000000  0.5537610000000  0.4757840000000 1.0
C      1  0.5126800000000  0.5235880000000  0.4648900000000 1.0
C      1  0.5803870000000  0.4872510000000  0.5082210000000 1.0
C      1  0.5526490000000  0.4862620000000  0.5837350000000 1.0
C      1  0.5803630000000  0.4019780000000  0.5422070000000 1.0
C      1  0.5757820000000  0.6015250000000  0.4580350000000 1.0
C      1  0.6442330000000  0.5020530000000  0.4943620000000 1.0
C      1  0.4711530000000  0.4340630000000  0.5939540000000 1.0
C      1  0.6154210000000  0.5308310000000  0.5177960000000 1.0
C      1  0.4240080000000  0.4992510000000  0.5388100000000 1.0
C      1  0.4859920000000  0.5398510000000  0.4985970000000 1.0
C      1  0.4571220000000  0.4743640000000  0.4039500000000 1.0
C      1  0.5407890000000  0.4777160000000  0.5587820000000 1.0
C      1  0.5392130000000  0.4478760000000  0.4354830000000 1.0
C      1  0.5489290000000  0.5787030000000  0.4254410000000 1.0
C      1  0.4965540000000  0.5998570000000  0.5643480000000 1.0
C      1  0.5062560000000  0.4763980000000  0.6074440000000 1.0
C      1  0.5936560000000  0.5819190000000  0.4961250000000 1.0
C      1  0.5692140000000  0.4613910000000  0.5151300000000 1.0
C      1  0.5002180000000  0.5630780000000  0.4292200000000 1.0
C      1  0.4208610000000  0.5585110000000  0.5799320000000 1.0
C      1  0.5051840000000  0.4743520000000  0.4479940000000 1.0
C      1  0.5819170000000  0.4405110000000  0.4997690000000 1.0
C      1  0.5105880000000  0.5817180000000  0.4995250000000 1.0
C      1  0.4269240000000  0.4725040000000  0.5508740000000 1.0
C      1  0.5356690000000  0.6351110000000  0.5045810000000 1.0
C      1  0.4388090000000  0.5916420000000  0.4363260000000 1.0
C      1  0.4268100000000  0.4969910000000  0.5098420000000 1.0
C      1  0.6323990000000  0.4784580000000  0.5032420000000 1.0
C      1  0.5275890000000  0.4602360000000  0.4607980000000 1.0
C      1  0.5306080000000  0.4566780000000  0.4108340000000 1.0
C      1  0.4355260000000  0.3742910000000  0.4682770000000 1.0
C      1  0.5316670000000  0.5368350000000  0.5562840000000 1.0
C      1  0.4496280000000  0.5215710000000  0.5959420000000 1.0
C      1  0.4695890000000  0.4996250000000  0.3978110000000 1.0
C      1  0.3301240000000  0.5207430000000  0.5768000000000 1.0
C      1  0.5876040000000  0.3741400000000  0.3961430000000 1.0
C      1  0.5628580000000  0.5598180000000  0.5267180000000 1.0
C      1  0.4268360000000  0.5374690000000  0.5993540000000 1.0
C      1  0.5224400000000  0.3725950000000  0.5023690000000 1.0
C      1  0.4690860000000  0.5604430000000  0.4884710000000 1.0
C      1  0.4641880000000  0.5387130000000  0.3729090000000 1.0
C      1  0.4397840000000  0.5199440000000  0.5488260000000 1.0
C      1  0.5373700000000  0.5641050000000  0.5648240000000 1.0
C      1  0.5977940000000  0.4204380000000  0.5504380000000 1.0
C      1  0.4849600000000  0.6041470000000  0.4471320000000 1.0
C      1  0.5015630000000  0.5179830000000  0.3936550000000 1.0
C      1  0.5958490000000  0.6011150000000  0.4773490000000 1.0
C      1  0.4238850000000  0.5936360000000  0.4915150000000 1.0
C      1  0.5546000000000  0.5585770000000  0.4727040000000 1.0
C      1  0.4264830000000  0.5567290000000  0.5254430000000 1.0
C      1  0.5118150000000  0.4814220000000  0.5031070000000 1.0
C      1  0.4613430000000  0.4998910000000  0.6114390000000 1.0
C      1  0.4823690000000  0.5848450000000  0.4967610000000 1.0
C      1  0.4678000000000  0.4869320000000  0.5653670000000 1.0
C      1  0.6248510000000  0.5227140000000  0.4916620000000 1.0
C      1  0.4286910000000  0.4563390000000  0.5267880000000 1.0
C      1  0.5464390000000  0.5807710000000  0.5405810000000 1.0
C      1  0.4001890000000  0.5260760000000  0.6031610000000 1.0
C      1  0.5224740000000  0.3924110000000  0.4221720000000 1.0
C      1  0.4289730000000  0.4732860000000  0.4123870000000 1.0
C      1  0.5002770000000  0.5247600000000  0.5914570000000 1.0
C      1  0.3550610000000  0.5275290000000  0.5801460000000 1.0
C      1  0.5490960000000  0.4015590000000  0.4222170000000 1.0
C      1  0.5150500000000  0.4900860000000  0.5574460000000 1.0
C      1  0.4884320000000  0.4972290000000  0.5129210000000 1.0
C      1  0.4232570000000  0.5212010000000  0.4024430000000 1.0
C      1  0.4010810000000  0.5628340000000  0.4272420000000 1.0
C      1  0.5408760000000  0.4157580000000  0.4897210000000 1.0
C      1  0.4904050000000  0.4515520000000  0.6038890000000 1.0
C      1  0.5442110000000  0.5357300000000  0.5303710000000 1.0
C      1  0.4632320000000  0.4691730000000  0.4598320000000 1.0
C      1  0.6157760000000  0.4914300000000  0.5649750000000 1.0
C      1  0.4910910000000  0.4467840000000  0.5474120000000 1.0
C      1  0.4080450000000  0.4419490000000  0.4505610000000 1.0
C      1  0.5351860000000  0.5236050000000  0.5073920000000 1.0
C      1  0.5148930000000  0.5173220000000  0.5675180000000 1.0
C      1  0.5292820000000  0.4275380000000  0.5757860000000 1.0
C      1  0.5397500000000  0.5560960000000  0.4104730000000 1.0
C      1  0.4518960000000  0.4221590000000  0.5778050000000 1.0
C      1  0.5097720000000  0.6087220000000  0.5402170000000 1.0
C      1  0.4509030000000  0.3744000000000  0.4464650000000 1.0
C      1  0.4504740000000  0.6015180000000  0.5275740000000 1.0
C      1  0.4468490000000  0.6106180000000  0.4816710000000 1.0
C      1  0.5550660000000  0.6099800000000  0.5423450000000 1.0
C      1  0.4339440000000  0.4151080000000  0.5579400000000 1.0
C      1  0.4565360000000  0.4608800000000  0.4859700000000 1.0
C      1  0.5647430000000  0.4937020000000  0.3994180000000 1.0
C      1  0.6065420000000  0.4446550000000  0.4835520000000 1.0
C      1  0.5399490000000  0.4064220000000  0.5894240000000 1.0
C      1  0.4488680000000  0.5367640000000  0.5279930000000 1.0
C      1  0.5527840000000  0.6193500000000  0.4543250000000 1.0
C      1  0.4087000000000  0.4371360000000  0.5197390000000 1.0
C      1  0.4874290000000  0.3962090000000  0.4794260000000 1.0
C      1  0.5347850000000  0.4839970000000  0.4827490000000 1.0
C      1  0.4377590000000  0.4717350000000  0.5034170000000 1.0
C      1  0.5408990000000  0.3930960000000  0.5073410000000 1.0
C      1  0.4971780000000  0.5826750000000  0.4076500000000 1.0
C      1  0.6020410000000  0.5324960000000  0.5435190000000 1.0
C      1  0.4151140000000  0.4977580000000  0.4169610000000 1.0
C      1  0.4450260000000  0.4763150000000  0.6030610000000 1.0
C      1  0.5687480000000  0.3871340000000  0.4085840000000 1.0
C      1  0.5560670000000  0.4254460000000  0.4358190000000 1.0
C      1  0.3971500000000  0.5515100000000  0.5639800000000 1.0
C      1  0.6102900000000  0.5192810000000  0.4671230000000 1.0
C      1  0.6318110000000  0.4534740000000  0.4911020000000 1.0
C      1  0.5360330000000  0.4787850000000  0.6071060000000 1.0
C      1  0.5067570000000  0.4255950000000  0.5583230000000 1.0
C      1  0.4566220000000  0.6060610000000  0.4546110000000 1.0
C      1  0.4723830000000  0.5224560000000  0.5158890000000 1.0
C      1  0.6084830000000  0.4829190000000  0.5189180000000 1.0
C      1  0.4843300000000  0.5396920000000  0.4320370000000 1.0
C      1  0.4436490000000  0.5361990000000  0.4537770000000 1.0
C      1  0.5321330000000  0.5279460000000  0.4084510000000 1.0
C      1  0.4750900000000  0.4394910000000  0.5252190000000 1.0
C      1  0.4705790000000  0.4518950000000  0.4144800000000 1.0
C      1  0.5758150000000  0.4281850000000  0.4550190000000 1.0
C      1  0.3903070000000  0.4833640000000  0.4612590000000 1.0
C      1  0.4913270000000  0.4743930000000  0.5561810000000 1.0
C      1  0.4911650000000  0.5173440000000  0.4481340000000 1.0
C      1  0.5663760000000  0.4242670000000  0.4819850000000 1.0
C      1  0.4205300000000  0.3901180000000  0.5162860000000 1.0
C      1  0.5147770000000  0.4534440000000  0.5085930000000 1.0
C      1  0.5736410000000  0.5059300000000  0.5801290000000 1.0
C      1  0.4717600000000  0.4392890000000  0.4970980000000 1.0
C      1  0.4493730000000  0.5202820000000  0.3893910000000 1.0
C      1  0.3817860000000  0.5342520000000  0.5822380000000 1.0
END
