TITL C-3866675-3766-629 4.45277760492212 125000 -472.553914961938 0 0 79 (C1) n - 1
REM
REM in /home/nfs/bkarasulu/CARBON/AIRSS/Generating-Clusters/LCBOP/Only-C1/SD-CG/FIRE-CG
REM
REM
REM
REM
REM
REM ./C.cell (11c1c37f851c82e70ff6c80c92926a4b)
REM AIRSS Version 0.9.1 bugfix July 2018 build 013d7b7c2542+ Fri, 06 Jul 2018 19:26:36 +0100
REM compiler GCC version 9.2.1 20190827 (Red Hat 9.2.1-1)
REM options -cpp -mtune=generic -march=x86-64 -g -O0 -fpre-include=/usr/include/finclude/math-vector-fortran.h
REM seed -1330633926 1649456237 278601427 1255148785 -2142594994 -831964430 -1316667805 1469462267 -934669471 -1894789346 1145816716 720173007 1932127067 -1130556048 -212804273 -1066164570 -1514980942 91912339 -360292085 -1484252261 847089796 -2000411117 1147881674 -2007592573 -615208850 415097327 -882593828 -327313782 1784974190 -207841392 1689119094 1608005602 1706777866
REM
CELL 1.54180   50.00000   50.00000   50.00000   90.00000   90.00000   90.00000
LATT -1
SFAC C  
C      1  0.5155460000000  0.4810000000000  0.4359000000000 1.0
C      1  0.5217150000000  0.5388180000000  0.4246930000000 1.0
C      1  0.4410320000000  0.5248770000000  0.4322310000000 1.0
C      1  0.5313710000000  0.5570620000000  0.5051410000000 1.0
C      1  0.5230990000000  0.5665730000000  0.5550460000000 1.0
C      1  0.6056070000000  0.4254120000000  0.4981720000000 1.0
C      1  0.4329730000000  0.5098560000000  0.5762870000000 1.0
C      1  0.5105700000000  0.4889580000000  0.6185190000000 1.0
C      1  0.4320610000000  0.5568040000000  0.4967330000000 1.0
C      1  0.4805080000000  0.5828930000000  0.4578330000000 1.0
C      1  0.5637400000000  0.5447590000000  0.4731820000000 1.0
C      1  0.4687300000000  0.4871040000000  0.4901720000000 1.0
C      1  0.4914480000000  0.5939060000000  0.5308030000000 1.0
C      1  0.4949600000000  0.4934850000000  0.5302540000000 1.0
C      1  0.5254780000000  0.4397620000000  0.4198030000000 1.0
C      1  0.5155030000000  0.4724880000000  0.5348210000000 1.0
C      1  0.5248560000000  0.4906360000000  0.4817850000000 1.0
C      1  0.5799190000000  0.4902320000000  0.5174790000000 1.0
C      1  0.5618350000000  0.5226730000000  0.4537270000000 1.0
C      1  0.4222290000000  0.4563530000000  0.4721580000000 1.0
C      1  0.4903090000000  0.4351580000000  0.5084970000000 1.0
C      1  0.4514750000000  0.5421550000000  0.5438870000000 1.0
C      1  0.4531640000000  0.4522230000000  0.4278330000000 1.0
C      1  0.4805750000000  0.4422150000000  0.4839660000000 1.0
C      1  0.4213740000000  0.4902740000000  0.6366230000000 1.0
C      1  0.4431530000000  0.4872020000000  0.6208890000000 1.0
C      1  0.3983190000000  0.5029620000000  0.6302550000000 1.0
C      1  0.3923750000000  0.5151420000000  0.6068500000000 1.0
C      1  0.5548340000000  0.5487760000000  0.5221520000000 1.0
C      1  0.5481400000000  0.4391100000000  0.4700020000000 1.0
C      1  0.5422360000000  0.5631460000000  0.4791270000000 1.0
C      1  0.5386020000000  0.4831500000000  0.5505530000000 1.0
C      1  0.4360420000000  0.5531360000000  0.4707650000000 1.0
C      1  0.5339860000000  0.4464330000000  0.4949390000000 1.0
C      1  0.4742120000000  0.5555650000000  0.5542330000000 1.0
C      1  0.4228230000000  0.4817790000000  0.5180710000000 1.0
C      1  0.5717820000000  0.4674520000000  0.5026810000000 1.0
C      1  0.5654840000000  0.4870950000000  0.5414320000000 1.0
C      1  0.5146220000000  0.4471910000000  0.5171380000000 1.0
C      1  0.5436150000000  0.4736040000000  0.4959700000000 1.0
C      1  0.4430950000000  0.5155310000000  0.5506320000000 1.0
C      1  0.5375750000000  0.4632640000000  0.4312970000000 1.0
C      1  0.4444050000000  0.4950300000000  0.5307390000000 1.0
C      1  0.5339930000000  0.5018240000000  0.5719830000000 1.0
C      1  0.4070390000000  0.5179210000000  0.5843710000000 1.0
C      1  0.4693980000000  0.4902010000000  0.5182550000000 1.0
C      1  0.4757490000000  0.5590630000000  0.4436050000000 1.0
C      1  0.5572130000000  0.4642450000000  0.4533630000000 1.0
C      1  0.4872920000000  0.6018890000000  0.5057440000000 1.0
C      1  0.5726580000000  0.5363710000000  0.5007650000000 1.0
C      1  0.5202160000000  0.4954290000000  0.5951920000000 1.0
C      1  0.5133970000000  0.5348640000000  0.5064800000000 1.0
C      1  0.4544710000000  0.4778940000000  0.4151770000000 1.0
C      1  0.5695490000000  0.4968180000000  0.4648090000000 1.0
C      1  0.4708390000000  0.4307280000000  0.4197020000000 1.0
C      1  0.5187620000000  0.5171830000000  0.4858120000000 1.0
C      1  0.4783170000000  0.4849160000000  0.4020980000000 1.0
C      1  0.6227630000000  0.4052870000000  0.4964040000000 1.0
C      1  0.4993570000000  0.4321800000000  0.4182610000000 1.0
C      1  0.4961210000000  0.5729190000000  0.5489980000000 1.0
C      1  0.4351790000000  0.4496480000000  0.4496410000000 1.0
C      1  0.4506820000000  0.5459430000000  0.4479180000000 1.0
C      1  0.4590830000000  0.4068880000000  0.4124820000000 1.0
C      1  0.4839390000000  0.5976530000000  0.4796920000000 1.0
C      1  0.4478520000000  0.4955170000000  0.5956530000000 1.0
C      1  0.4378340000000  0.5542340000000  0.5225020000000 1.0
C      1  0.5017900000000  0.4903460000000  0.4136130000000 1.0
C      1  0.4969820000000  0.5478690000000  0.4290520000000 1.0
C      1  0.4389380000000  0.4998900000000  0.4231500000000 1.0
C      1  0.5035280000000  0.5208300000000  0.5289310000000 1.0
C      1  0.5882340000000  0.4453560000000  0.4996270000000 1.0
C      1  0.4827300000000  0.4688400000000  0.4739890000000 1.0
C      1  0.5451140000000  0.5279140000000  0.4317890000000 1.0
C      1  0.5461750000000  0.5270410000000  0.5673480000000 1.0
C      1  0.6396210000000  0.3854780000000  0.4946450000000 1.0
C      1  0.5453010000000  0.5490700000000  0.5497710000000 1.0
C      1  0.5065600000000  0.4792940000000  0.4626020000000 1.0
C      1  0.4169230000000  0.4676860000000  0.4958990000000 1.0
C      1  0.5810250000000  0.5095280000000  0.4974060000000 1.0
END
