TITL C-3866670-4165-362 -3577.85274971464 125000 -522.866533556446 0 0 87 (C1) n - 1
REM
REM in /home/nfs/bkarasulu/CARBON/AIRSS/Generating-Clusters/LCBOP/Only-C1/SD-CG/FIRE-CG
REM
REM
REM
REM
REM
REM ./C.cell (11c1c37f851c82e70ff6c80c92926a4b)
REM AIRSS Version 0.9.1 bugfix July 2018 build 013d7b7c2542+ Fri, 06 Jul 2018 19:26:36 +0100
REM compiler GCC version 9.2.1 20190827 (Red Hat 9.2.1-1)
REM options -cpp -mtune=generic -march=x86-64 -g -O0 -fpre-include=/usr/include/finclude/math-vector-fortran.h
REM seed 1997728779 740702822 -775106929 1150531324 -1061268607 -2066062984 -457875616 458197073 -1830915145 1658572472 -127154672 1647977026 693430343 -786878759 1100773534 -1398938252 -1787559197 787955170 818443051 -46718086 1626153928 288463628 296851841 185352786 -45003439 -1995972380 2109979195 -1657934850 1375588113 544882491 -1687153711 -75575409 707700144
REM
CELL 1.54180   50.00000   50.00000   50.00000   90.00000   90.00000   90.00000
LATT -1
SFAC C  
C      1  0.5445650000000  0.5361280000000  0.4938870000000 1.0
C      1  0.5715890000000  0.5016940000000  0.5224840000000 1.0
C      1  0.5718380000000  0.5129340000000  0.4526020000000 1.0
C      1  0.5602700000000  0.5123960000000  0.4993490000000 1.0
C      1  0.4632500000000  0.5181380000000  0.4737190000000 1.0
C      1  0.5359550000000  0.5527060000000  0.5545430000000 1.0
C      1  0.5336480000000  0.6013260000000  0.4637250000000 1.0
C      1  0.5031360000000  0.4637730000000  0.4882090000000 1.0
C      1  0.4122040000000  0.5328100000000  0.5554200000000 1.0
C      1  0.5892750000000  0.5608370000000  0.5605730000000 1.0
C      1  0.4566640000000  0.4334200000000  0.5752690000000 1.0
C      1  0.4643780000000  0.5591670000000  0.4185080000000 1.0
C      1  0.4391330000000  0.4715000000000  0.5240360000000 1.0
C      1  0.5568470000000  0.5549240000000  0.4753260000000 1.0
C      1  0.4934470000000  0.4887730000000  0.5387990000000 1.0
C      1  0.5683140000000  0.3930590000000  0.5122520000000 1.0
C      1  0.4584890000000  0.4676160000000  0.4255810000000 1.0
C      1  0.4686090000000  0.4367340000000  0.5502610000000 1.0
C      1  0.4312730000000  0.4945000000000  0.5721950000000 1.0
C      1  0.4421000000000  0.5067020000000  0.4897160000000 1.0
C      1  0.4852260000000  0.5152320000000  0.4298750000000 1.0
C      1  0.4903530000000  0.6021560000000  0.4343970000000 1.0
C      1  0.4848980000000  0.5089140000000  0.4576130000000 1.0
C      1  0.5014300000000  0.5019500000000  0.4113670000000 1.0
C      1  0.4700180000000  0.5846110000000  0.5400100000000 1.0
C      1  0.4347010000000  0.5275910000000  0.5091680000000 1.0
C      1  0.4169950000000  0.5185720000000  0.5785890000000 1.0
C      1  0.4703980000000  0.5449340000000  0.4847360000000 1.0
C      1  0.5169390000000  0.5730310000000  0.5571830000000 1.0
C      1  0.5614550000000  0.4984500000000  0.4284080000000 1.0
C      1  0.4734810000000  0.5840170000000  0.4236320000000 1.0
C      1  0.4470220000000  0.4527100000000  0.5911210000000 1.0
C      1  0.5313470000000  0.4584390000000  0.4834850000000 1.0
C      1  0.5260390000000  0.4826940000000  0.5702580000000 1.0
C      1  0.5169650000000  0.5316430000000  0.4881750000000 1.0
C      1  0.4513490000000  0.5508070000000  0.5053510000000 1.0
C      1  0.4951570000000  0.4268050000000  0.5444350000000 1.0
C      1  0.6157100000000  0.5627200000000  0.5610170000000 1.0
C      1  0.5022800000000  0.4837050000000  0.5860850000000 1.0
C      1  0.4517080000000  0.4812970000000  0.5874240000000 1.0
C      1  0.5509520000000  0.5199910000000  0.4124120000000 1.0
C      1  0.4231570000000  0.5185830000000  0.5329530000000 1.0
C      1  0.4540760000000  0.5722930000000  0.5226440000000 1.0
C      1  0.4644540000000  0.4931460000000  0.6115320000000 1.0
C      1  0.4336830000000  0.4803430000000  0.4967670000000 1.0
C      1  0.4635500000000  0.5309920000000  0.4190760000000 1.0
C      1  0.4207210000000  0.4417060000000  0.4662530000000 1.0
C      1  0.5092250000000  0.5086270000000  0.4725380000000 1.0
C      1  0.5053780000000  0.5606540000000  0.4533750000000 1.0
C      1  0.4534730000000  0.4261750000000  0.5071430000000 1.0
C      1  0.4436320000000  0.4337580000000  0.4544670000000 1.0
C      1  0.5121520000000  0.6085670000000  0.4490380000000 1.0
C      1  0.5646940000000  0.5412480000000  0.4512840000000 1.0
C      1  0.5752370000000  0.4800380000000  0.5377390000000 1.0
C      1  0.5225610000000  0.5566980000000  0.4328570000000 1.0
C      1  0.5189780000000  0.4369400000000  0.5558710000000 1.0
C      1  0.4943740000000  0.4763770000000  0.5128750000000 1.0
C      1  0.4737970000000  0.3700040000000  0.4641090000000 1.0
C      1  0.5192160000000  0.5006770000000  0.5478220000000 1.0
C      1  0.4949930000000  0.4088480000000  0.5224190000000 1.0
C      1  0.4735960000000  0.3876020000000  0.4833290000000 1.0
C      1  0.4806260000000  0.4834630000000  0.5654140000000 1.0
C      1  0.5484740000000  0.4742360000000  0.4670080000000 1.0
C      1  0.4439920000000  0.4867490000000  0.4134570000000 1.0
C      1  0.5498960000000  0.5824040000000  0.4741200000000 1.0
C      1  0.5423890000000  0.4352690000000  0.4947540000000 1.0
C      1  0.4919390000000  0.4915970000000  0.6111210000000 1.0
C      1  0.4851280000000  0.4565260000000  0.4670400000000 1.0
C      1  0.4648750000000  0.4512200000000  0.4476860000000 1.0
C      1  0.4173610000000  0.4638430000000  0.4810520000000 1.0
C      1  0.5442570000000  0.4519440000000  0.4224100000000 1.0
C      1  0.4521530000000  0.4456970000000  0.5279700000000 1.0
C      1  0.6417210000000  0.5644470000000  0.5612720000000 1.0
C      1  0.5632080000000  0.4602810000000  0.5513680000000 1.0
C      1  0.5639810000000  0.4972920000000  0.4756470000000 1.0
C      1  0.4935090000000  0.5846030000000  0.5524680000000 1.0
C      1  0.5504310000000  0.4734750000000  0.4378220000000 1.0
C      1  0.4740120000000  0.4068120000000  0.5033340000000 1.0
C      1  0.5629940000000  0.5579260000000  0.5590220000000 1.0
C      1  0.5373080000000  0.4577820000000  0.5620360000000 1.0
C      1  0.4977170000000  0.5518390000000  0.4792730000000 1.0
C      1  0.5557690000000  0.4138690000000  0.5028130000000 1.0
C      1  0.5275940000000  0.5270720000000  0.5469980000000 1.0
C      1  0.4314990000000  0.4915060000000  0.5430120000000 1.0
C      1  0.5471930000000  0.5442480000000  0.4276910000000 1.0
C      1  0.5087080000000  0.4895660000000  0.3895730000000 1.0
C      1  0.4429100000000  0.5136520000000  0.4103530000000 1.0
END
