TITL C-3866670-4165-523 -5.05702009949475e-08 125000 -1168.70914087665 0 0 188 (C1) n - 1
REM
REM in /home/nfs/bkarasulu/CARBON/AIRSS/Generating-Clusters/LCBOP/Only-C1/SD-CG/FIRE-CG
REM
REM
REM
REM
REM
REM ./C.cell (11c1c37f851c82e70ff6c80c92926a4b)
REM AIRSS Version 0.9.1 bugfix July 2018 build 013d7b7c2542+ Fri, 06 Jul 2018 19:26:36 +0100
REM compiler GCC version 9.2.1 20190827 (Red Hat 9.2.1-1)
REM options -cpp -mtune=generic -march=x86-64 -g -O0 -fpre-include=/usr/include/finclude/math-vector-fortran.h
REM seed 1523351457 -1393115436 -1314714315 -2140621285 627232445 -1647712458 -1029671293 847996656 1439849436 -469893253 1557096120 1909766707 -1237789567 -1914733878 1367081672 803179497 -516663376 1432834277 -1481017230 -1347341771 1888718248 584075001 804511241 456711846 -2040416786 -531636227 339471313 -1573810784 -1838769393 1391948436 -700498427 -622901572 975504872
REM
CELL 1.54180   50.00000   50.00000   50.00000   90.00000   90.00000   90.00000
LATT -1
SFAC C  
C      1  0.5456110000000  0.6110860000000  0.4095780000000 1.0
C      1  0.5500980000000  0.4998910000000  0.3851500000000 1.0
C      1  0.4852930000000  0.5571150000000  0.4827850000000 1.0
C      1  0.4182820000000  0.4590710000000  0.4598740000000 1.0
C      1  0.4427450000000  0.4209650000000  0.5159460000000 1.0
C      1  0.5560770000000  0.4340970000000  0.4188480000000 1.0
C      1  0.4649590000000  0.4415350000000  0.5078420000000 1.0
C      1  0.4990940000000  0.5431000000000  0.5037830000000 1.0
C      1  0.5179320000000  0.4098980000000  0.4762410000000 1.0
C      1  0.5262760000000  0.4230680000000  0.4526070000000 1.0
C      1  0.5457760000000  0.4712210000000  0.4892140000000 1.0
C      1  0.5256930000000  0.5404540000000  0.4468860000000 1.0
C      1  0.4978130000000  0.4952040000000  0.4772340000000 1.0
C      1  0.5549920000000  0.5227830000000  0.5031230000000 1.0
C      1  0.4802980000000  0.5753340000000  0.5825450000000 1.0
C      1  0.5303230000000  0.4496060000000  0.5005380000000 1.0
C      1  0.5734780000000  0.4921370000000  0.5337370000000 1.0
C      1  0.4145200000000  0.4386210000000  0.4024500000000 1.0
C      1  0.4861340000000  0.5144240000000  0.6230100000000 1.0
C      1  0.4332250000000  0.5538220000000  0.5396560000000 1.0
C      1  0.3676100000000  0.4515950000000  0.4014230000000 1.0
C      1  0.4296770000000  0.4258140000000  0.5651410000000 1.0
C      1  0.4613620000000  0.4620410000000  0.6153320000000 1.0
C      1  0.4113660000000  0.5631440000000  0.4692450000000 1.0
C      1  0.5206070000000  0.6387080000000  0.4393790000000 1.0
C      1  0.4055930000000  0.4628470000000  0.5497080000000 1.0
C      1  0.5400050000000  0.5967510000000  0.5026400000000 1.0
C      1  0.4289500000000  0.3943300000000  0.4757520000000 1.0
C      1  0.4646000000000  0.5872400000000  0.5615590000000 1.0
C      1  0.4929330000000  0.5084610000000  0.5491840000000 1.0
C      1  0.5165400000000  0.4014800000000  0.5474280000000 1.0
C      1  0.6067260000000  0.5036680000000  0.4940040000000 1.0
C      1  0.4549900000000  0.4701860000000  0.4991880000000 1.0
C      1  0.4420760000000  0.4358750000000  0.3966980000000 1.0
C      1  0.4710770000000  0.4001800000000  0.5674230000000 1.0
C      1  0.4128550000000  0.5502600000000  0.5192770000000 1.0
C      1  0.4053880000000  0.5520650000000  0.5955000000000 1.0
C      1  0.6447620000000  0.5306210000000  0.4969990000000 1.0
C      1  0.5383500000000  0.5367240000000  0.5728990000000 1.0
C      1  0.4462660000000  0.5110670000000  0.3734270000000 1.0
C      1  0.4572460000000  0.3984860000000  0.4339410000000 1.0
C      1  0.4413150000000  0.5361910000000  0.3827080000000 1.0
C      1  0.6212730000000  0.5478010000000  0.4995360000000 1.0
C      1  0.5767530000000  0.4150910000000  0.4143240000000 1.0
C      1  0.6088220000000  0.5406990000000  0.5707200000000 1.0
C      1  0.4878350000000  0.4456280000000  0.4389830000000 1.0
C      1  0.5227040000000  0.4939610000000  0.5852300000000 1.0
C      1  0.4551110000000  0.5129260000000  0.5173850000000 1.0
C      1  0.3987700000000  0.5247980000000  0.5236250000000 1.0
C      1  0.4958530000000  0.5511510000000  0.5316260000000 1.0
C      1  0.4530770000000  0.5336240000000  0.5390340000000 1.0
C      1  0.5411610000000  0.5244330000000  0.3957400000000 1.0
C      1  0.6057000000000  0.5876360000000  0.5634910000000 1.0
C      1  0.4977700000000  0.6224560000000  0.4466820000000 1.0
C      1  0.5308760000000  0.6112360000000  0.4799010000000 1.0
C      1  0.5517900000000  0.5734810000000  0.6083160000000 1.0
C      1  0.4849580000000  0.5042060000000  0.5220290000000 1.0
C      1  0.5579250000000  0.5765230000000  0.4904890000000 1.0
C      1  0.4644670000000  0.5406740000000  0.4708500000000 1.0
C      1  0.5519470000000  0.3712460000000  0.4231870000000 1.0
C      1  0.5290150000000  0.4709670000000  0.4420400000000 1.0
C      1  0.5558930000000  0.4782140000000  0.3995870000000 1.0
C      1  0.6186120000000  0.4211510000000  0.4977900000000 1.0
C      1  0.4593760000000  0.5989260000000  0.5151210000000 1.0
C      1  0.5122770000000  0.5278430000000  0.3955800000000 1.0
C      1  0.4666590000000  0.4438270000000  0.4577850000000 1.0
C      1  0.4181060000000  0.5680970000000  0.4966650000000 1.0
C      1  0.4424290000000  0.5617520000000  0.4295410000000 1.0
C      1  0.6348450000000  0.5972360000000  0.4354860000000 1.0
C      1  0.5130220000000  0.5171580000000  0.4389870000000 1.0
C      1  0.5794510000000  0.5169840000000  0.6027670000000 1.0
C      1  0.5142490000000  0.4581720000000  0.5219360000000 1.0
C      1  0.3863130000000  0.4788680000000  0.4948450000000 1.0
C      1  0.5598940000000  0.4192630000000  0.5366060000000 1.0
C      1  0.4336070000000  0.3949790000000  0.4492170000000 1.0
C      1  0.4182880000000  0.4845630000000  0.5372630000000 1.0
C      1  0.4861910000000  0.4300420000000  0.4149280000000 1.0
C      1  0.5900990000000  0.5441440000000  0.4589220000000 1.0
C      1  0.5598880000000  0.5349140000000  0.4149430000000 1.0
C      1  0.5283030000000  0.4733120000000  0.5417630000000 1.0
C      1  0.4816170000000  0.4673910000000  0.6350930000000 1.0
C      1  0.6363230000000  0.5044610000000  0.4929500000000 1.0
C      1  0.6148240000000  0.4672360000000  0.5253610000000 1.0
C      1  0.4601180000000  0.4184570000000  0.4119360000000 1.0
C      1  0.4598560000000  0.5431000000000  0.4426650000000 1.0
C      1  0.4447740000000  0.5026580000000  0.4235720000000 1.0
C      1  0.4945470000000  0.5201940000000  0.4171640000000 1.0
C      1  0.5773470000000  0.5677290000000  0.5981300000000 1.0
C      1  0.5174700000000  0.4350070000000  0.5873660000000 1.0
C      1  0.3838930000000  0.4544860000000  0.5100100000000 1.0
C      1  0.4002480000000  0.4424560000000  0.5296440000000 1.0
C      1  0.4897380000000  0.3911620000000  0.5474700000000 1.0
C      1  0.4378570000000  0.5886250000000  0.5021780000000 1.0
C      1  0.3424550000000  0.4451170000000  0.3993200000000 1.0
C      1  0.4019340000000  0.5222660000000  0.4405380000000 1.0
C      1  0.5570300000000  0.4705480000000  0.5429650000000 1.0
C      1  0.5041200000000  0.6057230000000  0.4694890000000 1.0
C      1  0.6348370000000  0.4949250000000  0.5635980000000 1.0
C      1  0.4792290000000  0.3749140000000  0.5272160000000 1.0
C      1  0.5661620000000  0.4935900000000  0.6047350000000 1.0
C      1  0.5530190000000  0.5516540000000  0.5033650000000 1.0
C      1  0.5499820000000  0.4626450000000  0.4221090000000 1.0
C      1  0.4976420000000  0.6022000000000  0.4017800000000 1.0
C      1  0.4506640000000  0.4764870000000  0.4300960000000 1.0
C      1  0.4518660000000  0.4581000000000  0.3807220000000 1.0
C      1  0.5015050000000  0.5135610000000  0.5001330000000 1.0
C      1  0.5605550000000  0.5172190000000  0.5316750000000 1.0
C      1  0.4668180000000  0.5211650000000  0.4255480000000 1.0
C      1  0.5022170000000  0.5862070000000  0.5965050000000 1.0
C      1  0.4847910000000  0.6113710000000  0.4239300000000 1.0
C      1  0.5134130000000  0.4486040000000  0.4497170000000 1.0
C      1  0.4387000000000  0.5556840000000  0.4016510000000 1.0
C      1  0.5916450000000  0.5731250000000  0.4568270000000 1.0
C      1  0.3984220000000  0.4736400000000  0.4700590000000 1.0
C      1  0.5511230000000  0.4982480000000  0.4886270000000 1.0
C      1  0.6269200000000  0.5193810000000  0.5703160000000 1.0
C      1  0.5241660000000  0.4117970000000  0.5730200000000 1.0
C      1  0.4583320000000  0.3757680000000  0.5104890000000 1.0
C      1  0.4091470000000  0.5099750000000  0.5467520000000 1.0
C      1  0.5053300000000  0.5977710000000  0.5363400000000 1.0
C      1  0.4399460000000  0.4860790000000  0.5188510000000 1.0
C      1  0.4535430000000  0.4195780000000  0.5793900000000 1.0
C      1  0.4414950000000  0.3961890000000  0.5008990000000 1.0
C      1  0.4399000000000  0.4894830000000  0.5798210000000 1.0
C      1  0.5763380000000  0.5329250000000  0.4365170000000 1.0
C      1  0.4991700000000  0.5773990000000  0.4679040000000 1.0
C      1  0.6006720000000  0.5320530000000  0.4834770000000 1.0
C      1  0.5269980000000  0.5833390000000  0.6062100000000 1.0
C      1  0.5219370000000  0.5219070000000  0.5897440000000 1.0
C      1  0.5298500000000  0.5870640000000  0.5275230000000 1.0
C      1  0.4944860000000  0.4914550000000  0.6372710000000 1.0
C      1  0.5368600000000  0.4513400000000  0.5999440000000 1.0
C      1  0.5912720000000  0.5895340000000  0.5862690000000 1.0
C      1  0.4251650000000  0.5348480000000  0.5883060000000 1.0
C      1  0.5147580000000  0.4938260000000  0.4538380000000 1.0
C      1  0.4582370000000  0.4764750000000  0.5625150000000 1.0
C      1  0.3981930000000  0.5397810000000  0.4604690000000 1.0
C      1  0.5449780000000  0.6235770000000  0.4350600000000 1.0
C      1  0.5240850000000  0.6019410000000  0.3957400000000 1.0
C      1  0.4440790000000  0.4578460000000  0.4497600000000 1.0
C      1  0.6305890000000  0.4741220000000  0.5474980000000 1.0
C      1  0.4871690000000  0.4502650000000  0.5299140000000 1.0
C      1  0.4508460000000  0.4842530000000  0.3732470000000 1.0
C      1  0.4016670000000  0.4855350000000  0.4089110000000 1.0
C      1  0.5884540000000  0.5415750000000  0.5916980000000 1.0
C      1  0.4851400000000  0.4632940000000  0.5587140000000 1.0
C      1  0.4388280000000  0.5760680000000  0.5562010000000 1.0
C      1  0.4737050000000  0.4287530000000  0.4808910000000 1.0
C      1  0.5329420000000  0.4183110000000  0.4253120000000 1.0
C      1  0.4228830000000  0.4242310000000  0.5357860000000 1.0
C      1  0.4893850000000  0.4052270000000  0.4736780000000 1.0
C      1  0.6157080000000  0.5600000000000  0.5241750000000 1.0
C      1  0.5352010000000  0.4089100000000  0.5261140000000 1.0
C      1  0.6112390000000  0.5624790000000  0.5517860000000 1.0
C      1  0.6173770000000  0.4429780000000  0.5119760000000 1.0
C      1  0.5013300000000  0.3724120000000  0.4383600000000 1.0
C      1  0.4582210000000  0.5132360000000  0.6160130000000 1.0
C      1  0.5428930000000  0.4787850000000  0.5982210000000 1.0
C      1  0.5081340000000  0.4854530000000  0.5608070000000 1.0
C      1  0.4483390000000  0.4873010000000  0.6070440000000 1.0
C      1  0.5428590000000  0.5608930000000  0.5304890000000 1.0
C      1  0.4804730000000  0.5358620000000  0.5541610000000 1.0
C      1  0.5264080000000  0.3662740000000  0.4304560000000 1.0
C      1  0.6138100000000  0.5856800000000  0.4456350000000 1.0
C      1  0.5107590000000  0.4181580000000  0.4073800000000 1.0
C      1  0.4770070000000  0.5979690000000  0.5377810000000 1.0
C      1  0.5492330000000  0.5386040000000  0.5475460000000 1.0
C      1  0.4565570000000  0.5168570000000  0.4860200000000 1.0
C      1  0.4686200000000  0.4892220000000  0.4794390000000 1.0
C      1  0.5668220000000  0.4440460000000  0.5447990000000 1.0
C      1  0.5721210000000  0.3882410000000  0.4169440000000 1.0
C      1  0.4775910000000  0.5452080000000  0.5838960000000 1.0
C      1  0.4254630000000  0.5756480000000  0.4475560000000 1.0
C      1  0.5293180000000  0.4203200000000  0.5000190000000 1.0
C      1  0.4668140000000  0.4400090000000  0.5965030000000 1.0
C      1  0.4986990000000  0.5309460000000  0.6023950000000 1.0
C      1  0.5177280000000  0.5653890000000  0.4504150000000 1.0
C      1  0.4159830000000  0.5061570000000  0.4222880000000 1.0
C      1  0.3944840000000  0.4585710000000  0.4041790000000 1.0
C      1  0.4516350000000  0.5356510000000  0.5983410000000 1.0
C      1  0.5966140000000  0.4876640000000  0.5163320000000 1.0
C      1  0.4212440000000  0.5114780000000  0.5727340000000 1.0
C      1  0.5694100000000  0.5873080000000  0.4666160000000 1.0
C      1  0.4816190000000  0.3901180000000  0.4490720000000 1.0
C      1  0.3861170000000  0.5061270000000  0.5051140000000 1.0
C      1  0.4137210000000  0.4486650000000  0.5730750000000 1.0
C      1  0.5525880000000  0.6099950000000  0.4589110000000 1.0
C      1  0.4914400000000  0.4453230000000  0.5821640000000 1.0
END
