TITL C-3866670-4165-166 -139.938024822836 125000 -521.09959764963 0 0 87 (C1) n - 1
REM
REM in /home/nfs/bkarasulu/CARBON/AIRSS/Generating-Clusters/LCBOP/Only-C1/SD-CG/HFTN-CG/FIRE-CG
REM
REM
REM
REM
REM
REM ./C.cell (11c1c37f851c82e70ff6c80c92926a4b)
REM AIRSS Version 0.9.1 bugfix July 2018 build 013d7b7c2542+ Fri, 06 Jul 2018 19:26:36 +0100
REM compiler GCC version 9.2.1 20190827 (Red Hat 9.2.1-1)
REM options -cpp -mtune=generic -march=x86-64 -g -O0 -fpre-include=/usr/include/finclude/math-vector-fortran.h
REM seed -1400757203 1076638886 2061201158 -954053540 -945584568 -1668373311 -889909080 -1802238768 -40783138 -1910213999 456105250 1316566138 -592119795 246387403 -497580261 -13082923 -2052083436 -1250215362 -989166648 -1071675380 -1873155342 480830590 1543809628 1497425318 2033530059 488513152 -297731415 -1952540304 -544614855 -582557557 -1469363520 -1938530521 -35767811
REM
CELL 1.54180   50.00000   50.00000   50.00000   90.00000   90.00000   90.00000
LATT -1
SFAC C  
C      1  0.4255470000000  0.4916350000000  0.5167980000000 1.0
C      1  0.4607490000000  0.4615750000000  0.5670270000000 1.0
C      1  0.5228670000000  0.5328710000000  0.4855090000000 1.0
C      1  0.5345400000000  0.4294220000000  0.5426230000000 1.0
C      1  0.4662230000000  0.4938380000000  0.4536680000000 1.0
C      1  0.5582870000000  0.4334830000000  0.4978360000000 1.0
C      1  0.5507840000000  0.5714050000000  0.4994520000000 1.0
C      1  0.5812730000000  0.4456080000000  0.4301000000000 1.0
C      1  0.4593040000000  0.5333910000000  0.4272130000000 1.0
C      1  0.5090570000000  0.5681410000000  0.5242990000000 1.0
C      1  0.5642830000000  0.5628290000000  0.4541440000000 1.0
C      1  0.5854180000000  0.4951470000000  0.4776890000000 1.0
C      1  0.5550980000000  0.4297500000000  0.4696980000000 1.0
C      1  0.5071720000000  0.4924790000000  0.5798230000000 1.0
C      1  0.5291330000000  0.5594410000000  0.5421820000000 1.0
C      1  0.4856800000000  0.5846320000000  0.5256390000000 1.0
C      1  0.4532200000000  0.4484210000000  0.5247750000000 1.0
C      1  0.5070320000000  0.5216190000000  0.4157550000000 1.0
C      1  0.5766680000000  0.5393920000000  0.4592950000000 1.0
C      1  0.4788860000000  0.5536350000000  0.4933090000000 1.0
C      1  0.5317030000000  0.4504910000000  0.4383360000000 1.0
C      1  0.4728030000000  0.5027230000000  0.4800830000000 1.0
C      1  0.4638560000000  0.5466410000000  0.5516890000000 1.0
C      1  0.4549290000000  0.5069810000000  0.5864570000000 1.0
C      1  0.4635170000000  0.4384200000000  0.5501260000000 1.0
C      1  0.4664640000000  0.4674790000000  0.4443190000000 1.0
C      1  0.4737190000000  0.4609290000000  0.5094960000000 1.0
C      1  0.4697880000000  0.4266880000000  0.4707900000000 1.0
C      1  0.5844270000000  0.5147790000000  0.5462630000000 1.0
C      1  0.5134580000000  0.5638800000000  0.4479390000000 1.0
C      1  0.4370350000000  0.5730880000000  0.5097130000000 1.0
C      1  0.4468040000000  0.5129750000000  0.4439520000000 1.0
C      1  0.4349110000000  0.5101250000000  0.5381280000000 1.0
C      1  0.4722590000000  0.4594570000000  0.4189930000000 1.0
C      1  0.5286780000000  0.4801550000000  0.4859180000000 1.0
C      1  0.4825540000000  0.5034700000000  0.5298460000000 1.0
C      1  0.4884120000000  0.4262450000000  0.5560120000000 1.0
C      1  0.5881010000000  0.4701330000000  0.4864430000000 1.0
C      1  0.5017770000000  0.5531140000000  0.5810490000000 1.0
C      1  0.4600930000000  0.5598240000000  0.4392860000000 1.0
C      1  0.4799360000000  0.5264420000000  0.4091000000000 1.0
C      1  0.5358930000000  0.4256550000000  0.5140700000000 1.0
C      1  0.5005710000000  0.4539570000000  0.5126060000000 1.0
C      1  0.5187090000000  0.4760060000000  0.5121370000000 1.0
C      1  0.4189230000000  0.5574310000000  0.4970340000000 1.0
C      1  0.4762020000000  0.5568890000000  0.5732250000000 1.0
C      1  0.5473090000000  0.5217060000000  0.4944730000000 1.0
C      1  0.4649750000000  0.5744150000000  0.5083890000000 1.0
C      1  0.5100490000000  0.4299640000000  0.5011130000000 1.0
C      1  0.4342390000000  0.5071580000000  0.5676750000000 1.0
C      1  0.5172470000000  0.4326340000000  0.4543580000000 1.0
C      1  0.4356000000000  0.5638830000000  0.4531710000000 1.0
C      1  0.5424000000000  0.5719850000000  0.4699070000000 1.0
C      1  0.5251200000000  0.4779970000000  0.4358450000000 1.0
C      1  0.5817260000000  0.4643930000000  0.5326570000000 1.0
C      1  0.4222770000000  0.5457490000000  0.4715080000000 1.0
C      1  0.5448200000000  0.5147720000000  0.5214070000000 1.0
C      1  0.5545710000000  0.5584690000000  0.5275430000000 1.0
C      1  0.5590300000000  0.4424270000000  0.4451160000000 1.0
C      1  0.4743250000000  0.4889490000000  0.5043100000000 1.0
C      1  0.4860010000000  0.5725140000000  0.4445060000000 1.0
C      1  0.4265950000000  0.5171220000000  0.4663180000000 1.0
C      1  0.5705790000000  0.5187970000000  0.4776380000000 1.0
C      1  0.5184420000000  0.5195580000000  0.4610490000000 1.0
C      1  0.4606380000000  0.5242670000000  0.5348000000000 1.0
C      1  0.4542000000000  0.4503110000000  0.4636400000000 1.0
C      1  0.5209360000000  0.5412520000000  0.5637010000000 1.0
C      1  0.5140810000000  0.4389410000000  0.5604700000000 1.0
C      1  0.4989990000000  0.4266160000000  0.4747040000000 1.0
C      1  0.4485420000000  0.4587700000000  0.5911950000000 1.0
C      1  0.4739880000000  0.4827660000000  0.5527620000000 1.0
C      1  0.5647960000000  0.5312050000000  0.5345530000000 1.0
C      1  0.4286760000000  0.4634530000000  0.5245920000000 1.0
C      1  0.4316810000000  0.4658460000000  0.4749690000000 1.0
C      1  0.5772850000000  0.4535890000000  0.5067010000000 1.0
C      1  0.4245830000000  0.4932330000000  0.4863130000000 1.0
C      1  0.4815580000000  0.5010340000000  0.5916340000000 1.0
C      1  0.4564160000000  0.4027790000000  0.4737880000000 1.0
C      1  0.5159750000000  0.5364310000000  0.4388360000000 1.0
C      1  0.5873300000000  0.4877600000000  0.5451490000000 1.0
C      1  0.5145810000000  0.4642500000000  0.5752560000000 1.0
C      1  0.5067180000000  0.5515800000000  0.4999810000000 1.0
C      1  0.5167540000000  0.5018280000000  0.5312610000000 1.0
C      1  0.5187730000000  0.5117320000000  0.5609710000000 1.0
C      1  0.5182030000000  0.4950590000000  0.4139620000000 1.0
C      1  0.5240770000000  0.4918350000000  0.4608430000000 1.0
C      1  0.4691570000000  0.5302790000000  0.4830930000000 1.0
END
