TITL C-3866675-3766-450 6.23903944436219 125000 -591.751845619027 0 0 99 (C1) n - 1
REM
REM in /home/nfs/bkarasulu/CARBON/AIRSS/Generating-Clusters/LCBOP/Only-C1/SD-CG/FIRE-CG
REM
REM
REM
REM
REM
REM ./C.cell (11c1c37f851c82e70ff6c80c92926a4b)
REM AIRSS Version 0.9.1 bugfix July 2018 build 013d7b7c2542+ Fri, 06 Jul 2018 19:26:36 +0100
REM compiler GCC version 9.2.1 20190827 (Red Hat 9.2.1-1)
REM options -cpp -mtune=generic -march=x86-64 -g -O0 -fpre-include=/usr/include/finclude/math-vector-fortran.h
REM seed -1551825100 1643339277 64602291 -792740564 949807822 512214634 1749266542 -1074547280 927450227 967337880 -373541824 2094190686 -289474041 -1168008515 -307411628 -1664063698 2145960419 1137643115 1810992447 -1035584626 1636980958 1542918848 595190668 807341403 714949375 1284952915 550810737 1393910679 1064700634 -1251535163 1096945725 -2073785345 -1265162649
REM
CELL 1.54180   50.00000   50.00000   50.00000   90.00000   90.00000   90.00000
LATT -1
SFAC C  
C      1  0.4770290000000  0.5618750000000  0.5469620000000 1.0
C      1  0.4472450000000  0.4200410000000  0.5275840000000 1.0
C      1  0.5230540000000  0.4175080000000  0.5376280000000 1.0
C      1  0.5865670000000  0.5721220000000  0.4693920000000 1.0
C      1  0.5822700000000  0.5200740000000  0.4380920000000 1.0
C      1  0.5369230000000  0.5481590000000  0.4462200000000 1.0
C      1  0.5863910000000  0.4551580000000  0.4760840000000 1.0
C      1  0.5781930000000  0.4609000000000  0.5029750000000 1.0
C      1  0.5118970000000  0.5343570000000  0.4481040000000 1.0
C      1  0.4219190000000  0.4651170000000  0.4604150000000 1.0
C      1  0.4902540000000  0.5774410000000  0.4416050000000 1.0
C      1  0.5623400000000  0.4989380000000  0.5302540000000 1.0
C      1  0.5437480000000  0.4812520000000  0.4460950000000 1.0
C      1  0.4848830000000  0.4817460000000  0.4125700000000 1.0
C      1  0.4875340000000  0.5155980000000  0.5854240000000 1.0
C      1  0.5013050000000  0.4064470000000  0.4927040000000 1.0
C      1  0.4244860000000  0.4406560000000  0.4863760000000 1.0
C      1  0.3679560000000  0.4862340000000  0.5746530000000 1.0
C      1  0.4745790000000  0.5311660000000  0.4835680000000 1.0
C      1  0.5818680000000  0.4871780000000  0.5133460000000 1.0
C      1  0.5410350000000  0.4962280000000  0.4699270000000 1.0
C      1  0.5486670000000  0.4337320000000  0.4520630000000 1.0
C      1  0.5074050000000  0.6072180000000  0.5368400000000 1.0
C      1  0.3757030000000  0.4530840000000  0.5105450000000 1.0
C      1  0.5039790000000  0.6002010000000  0.4842940000000 1.0
C      1  0.4911860000000  0.4044940000000  0.4678090000000 1.0
C      1  0.4943780000000  0.5314830000000  0.4255300000000 1.0
C      1  0.4797710000000  0.4694160000000  0.5730530000000 1.0
C      1  0.5611050000000  0.5365990000000  0.4374620000000 1.0
C      1  0.4464290000000  0.5262470000000  0.4906060000000 1.0
C      1  0.5162230000000  0.5977780000000  0.5605150000000 1.0
C      1  0.5619610000000  0.5272770000000  0.5285620000000 1.0
C      1  0.5410450000000  0.4403690000000  0.5370760000000 1.0
C      1  0.5369770000000  0.5738840000000  0.4591250000000 1.0
C      1  0.5326710000000  0.5776500000000  0.5716150000000 1.0
C      1  0.5573230000000  0.5394330000000  0.5535180000000 1.0
C      1  0.3940730000000  0.4620770000000  0.4937250000000 1.0
C      1  0.5214210000000  0.5086080000000  0.4837850000000 1.0
C      1  0.4003600000000  0.4807360000000  0.4734170000000 1.0
C      1  0.5955060000000  0.4979770000000  0.4456990000000 1.0
C      1  0.5452020000000  0.5197470000000  0.5716390000000 1.0
C      1  0.4244530000000  0.4961890000000  0.5302080000000 1.0
C      1  0.4644450000000  0.5061220000000  0.5452720000000 1.0
C      1  0.5000510000000  0.4115290000000  0.5207250000000 1.0
C      1  0.4879730000000  0.4958350000000  0.5628850000000 1.0
C      1  0.4306430000000  0.4292140000000  0.5486080000000 1.0
C      1  0.5105120000000  0.5860940000000  0.4606220000000 1.0
C      1  0.5411220000000  0.4619840000000  0.5563630000000 1.0
C      1  0.5035960000000  0.6069870000000  0.5102500000000 1.0
C      1  0.4772060000000  0.5549770000000  0.4283900000000 1.0
C      1  0.4161300000000  0.4778250000000  0.5506030000000 1.0
C      1  0.5280130000000  0.5598620000000  0.5934070000000 1.0
C      1  0.6033040000000  0.5524670000000  0.4779720000000 1.0
C      1  0.5732070000000  0.4337080000000  0.4631880000000 1.0
C      1  0.4418680000000  0.5040590000000  0.5092460000000 1.0
C      1  0.4754680000000  0.5393160000000  0.5897420000000 1.0
C      1  0.5337230000000  0.5330120000000  0.5938320000000 1.0
C      1  0.4807090000000  0.4111790000000  0.4438580000000 1.0
C      1  0.4357270000000  0.5275730000000  0.4426340000000 1.0
C      1  0.4452510000000  0.4370260000000  0.5048560000000 1.0
C      1  0.5609300000000  0.4433000000000  0.5170140000000 1.0
C      1  0.4692520000000  0.5591830000000  0.5726190000000 1.0
C      1  0.5068550000000  0.4758160000000  0.5202240000000 1.0
C      1  0.4907370000000  0.4674790000000  0.4723940000000 1.0
C      1  0.4880490000000  0.4565500000000  0.4258860000000 1.0
C      1  0.5288190000000  0.3984520000000  0.5568740000000 1.0
C      1  0.5558360000000  0.5417990000000  0.5059440000000 1.0
C      1  0.5404510000000  0.4924330000000  0.5530290000000 1.0
C      1  0.4033540000000  0.5089730000000  0.4735300000000 1.0
C      1  0.3915370000000  0.4824560000000  0.5631850000000 1.0
C      1  0.5040070000000  0.4580720000000  0.4497710000000 1.0
C      1  0.5979280000000  0.4751710000000  0.4596710000000 1.0
C      1  0.5078470000000  0.5250420000000  0.5307270000000 1.0
C      1  0.4772880000000  0.4302890000000  0.4247370000000 1.0
C      1  0.5012070000000  0.5258700000000  0.4737480000000 1.0
C      1  0.5262260000000  0.5029950000000  0.4038030000000 1.0
C      1  0.6075020000000  0.5290320000000  0.4907030000000 1.0
C      1  0.5552310000000  0.5698990000000  0.5036220000000 1.0
C      1  0.3446180000000  0.4897700000000  0.5857180000000 1.0
C      1  0.5447570000000  0.4918320000000  0.4199450000000 1.0
C      1  0.4497830000000  0.5491650000000  0.4314360000000 1.0
C      1  0.5525840000000  0.5678360000000  0.5534750000000 1.0
C      1  0.4648850000000  0.4808220000000  0.4687400000000 1.0
C      1  0.4397350000000  0.5011300000000  0.4326630000000 1.0
C      1  0.4259120000000  0.5267860000000  0.4697300000000 1.0
C      1  0.4440370000000  0.4788100000000  0.4497010000000 1.0
C      1  0.5111800000000  0.4968960000000  0.5418550000000 1.0
C      1  0.5317270000000  0.4555910000000  0.4480630000000 1.0
C      1  0.5571880000000  0.5819550000000  0.5290130000000 1.0
C      1  0.4639110000000  0.4582310000000  0.5072040000000 1.0
C      1  0.4318670000000  0.4553390000000  0.5597400000000 1.0
C      1  0.6009260000000  0.5056470000000  0.5024890000000 1.0
C      1  0.4987500000000  0.5070170000000  0.4105490000000 1.0
C      1  0.5595320000000  0.5780810000000  0.4768030000000 1.0
C      1  0.4542320000000  0.4824960000000  0.4961190000000 1.0
C      1  0.4548730000000  0.4596700000000  0.5753360000000 1.0
C      1  0.4942910000000  0.5480980000000  0.5316730000000 1.0
C      1  0.4735240000000  0.4096700000000  0.5316500000000 1.0
C      1  0.4923680000000  0.4611820000000  0.5010990000000 1.0
END
