TITL C-3866675-3766-746 -1.30364137616896e-07 125000 -396.233675488478 0 0 65 (C1) n - 1
REM
REM in /home/nfs/bkarasulu/CARBON/AIRSS/Generating-Clusters/LCBOP/Only-C1/SD-CG/FIRE-CG
REM
REM
REM
REM
REM
REM ./C.cell (11c1c37f851c82e70ff6c80c92926a4b)
REM AIRSS Version 0.9.1 bugfix July 2018 build 013d7b7c2542+ Fri, 06 Jul 2018 19:26:36 +0100
REM compiler GCC version 9.2.1 20190827 (Red Hat 9.2.1-1)
REM options -cpp -mtune=generic -march=x86-64 -g -O0 -fpre-include=/usr/include/finclude/math-vector-fortran.h
REM seed -1841586597 -714379042 456327337 1026866477 945686016 932909847 -1440508874 1349281400 -506373624 -920913377 -445737297 -1033157273 85337498 377654836 1743820888 1989154671 1836633324 -829588512 658778132 -934695061 1354295876 -399329140 -822999911 1248725213 -539318294 330568510 -911350494 -356504815 2059467350 -371276743 2092395875 -1761844979 -1446975216
REM
CELL 1.54180   50.00000   50.00000   50.00000   90.00000   90.00000   90.00000
LATT -1
SFAC C  
C      1  0.4407950000000  0.4578870000000  0.5083580000000 1.0
C      1  0.5264530000000  0.5139590000000  0.5806140000000 1.0
C      1  0.5089260000000  0.5651340000000  0.4196820000000 1.0
C      1  0.4894840000000  0.4851520000000  0.5478980000000 1.0
C      1  0.5406550000000  0.5702010000000  0.5078840000000 1.0
C      1  0.4833620000000  0.4247710000000  0.5081460000000 1.0
C      1  0.4410240000000  0.5382520000000  0.5179190000000 1.0
C      1  0.4797400000000  0.5509700000000  0.5816330000000 1.0
C      1  0.5958870000000  0.4773500000000  0.4889170000000 1.0
C      1  0.5494540000000  0.4392720000000  0.4484320000000 1.0
C      1  0.5631980000000  0.5095040000000  0.5473470000000 1.0
C      1  0.5053400000000  0.4796920000000  0.4890580000000 1.0
C      1  0.4919720000000  0.5319110000000  0.5249900000000 1.0
C      1  0.5129600000000  0.5765020000000  0.5151350000000 1.0
C      1  0.4793470000000  0.4877090000000  0.4966640000000 1.0
C      1  0.4624760000000  0.4576890000000  0.4475780000000 1.0
C      1  0.4266660000000  0.5131510000000  0.5111040000000 1.0
C      1  0.5020150000000  0.5410190000000  0.4102690000000 1.0
C      1  0.5183990000000  0.5809840000000  0.4682000000000 1.0
C      1  0.5301220000000  0.3731550000000  0.4735550000000 1.0
C      1  0.4709360000000  0.4638340000000  0.5420300000000 1.0
C      1  0.5010300000000  0.5565230000000  0.5311940000000 1.0
C      1  0.5368120000000  0.5032610000000  0.5559610000000 1.0
C      1  0.4288740000000  0.5087190000000  0.4817850000000 1.0
C      1  0.4229190000000  0.4875620000000  0.4640270000000 1.0
C      1  0.4822190000000  0.5032280000000  0.4383640000000 1.0
C      1  0.4675300000000  0.4327880000000  0.4610220000000 1.0
C      1  0.5590630000000  0.5583320000000  0.5252860000000 1.0
C      1  0.5141480000000  0.5811760000000  0.4405310000000 1.0
C      1  0.5176850000000  0.4909050000000  0.5365390000000 1.0
C      1  0.4271670000000  0.4934910000000  0.5321570000000 1.0
C      1  0.5386090000000  0.5130200000000  0.4929970000000 1.0
C      1  0.4925720000000  0.5164500000000  0.4157420000000 1.0
C      1  0.4854560000000  0.4755920000000  0.4452220000000 1.0
C      1  0.5238780000000  0.4919960000000  0.5067240000000 1.0
C      1  0.4498500000000  0.5389410000000  0.5451370000000 1.0
C      1  0.4958090000000  0.5362000000000  0.4722820000000 1.0
C      1  0.4365730000000  0.4695810000000  0.4489850000000 1.0
C      1  0.5653890000000  0.5157260000000  0.5023660000000 1.0
C      1  0.5248960000000  0.5342020000000  0.4783100000000 1.0
C      1  0.4809920000000  0.4393180000000  0.5308340000000 1.0
C      1  0.5656510000000  0.5313450000000  0.5275870000000 1.0
C      1  0.4538840000000  0.5487210000000  0.4931650000000 1.0
C      1  0.5128490000000  0.4208210000000  0.4697360000000 1.0
C      1  0.4584780000000  0.4698050000000  0.4918010000000 1.0
C      1  0.5323130000000  0.3995910000000  0.4659810000000 1.0
C      1  0.5371270000000  0.5610760000000  0.4798180000000 1.0
C      1  0.5078340000000  0.4690750000000  0.4627290000000 1.0
C      1  0.5052220000000  0.5568700000000  0.5887610000000 1.0
C      1  0.5276570000000  0.5415360000000  0.5873280000000 1.0
C      1  0.4492130000000  0.5271580000000  0.4722520000000 1.0
C      1  0.5545830000000  0.4123820000000  0.4525460000000 1.0
C      1  0.4978950000000  0.5809650000000  0.4898780000000 1.0
C      1  0.4808500000000  0.5041730000000  0.5686040000000 1.0
C      1  0.4745450000000  0.5208420000000  0.4593330000000 1.0
C      1  0.4673220000000  0.5302330000000  0.5661800000000 1.0
C      1  0.4864900000000  0.4225190000000  0.4799510000000 1.0
C      1  0.5800360000000  0.4887280000000  0.5356840000000 1.0
C      1  0.4426340000000  0.4694380000000  0.5346750000000 1.0
C      1  0.5821420000000  0.4921210000000  0.5069220000000 1.0
C      1  0.4801310000000  0.5588390000000  0.4854900000000 1.0
C      1  0.4798920000000  0.5114330000000  0.5121870000000 1.0
C      1  0.5274510000000  0.3483400000000  0.4810540000000 1.0
C      1  0.5014750000000  0.5025950000000  0.5886060000000 1.0
C      1  0.5236430000000  0.4462850000000  0.4588570000000 1.0
END
