TITL C-3866676-3738-690 0.00583170409829621 125000 -265.79024275557 0 0 45 (C1) n - 1
REM
REM in /home/nfs/bkarasulu/CARBON/AIRSS/Generating-Clusters/LCBOP/Only-C1/SD-CG/FIRE-CG
REM
REM
REM
REM
REM
REM ./C.cell (11c1c37f851c82e70ff6c80c92926a4b)
REM AIRSS Version 0.9.1 bugfix July 2018 build 013d7b7c2542+ Fri, 06 Jul 2018 19:26:36 +0100
REM compiler GCC version 9.2.1 20190827 (Red Hat 9.2.1-1)
REM options -cpp -mtune=generic -march=x86-64 -g -O0 -fpre-include=/usr/include/finclude/math-vector-fortran.h
REM seed 1168954950 -1505361959 2028319170 -871099727 306507257 -1330078326 226590208 -338800772 1281064117 953255525 341507861 1670883941 1390287175 912462283 1239483813 -2026171373 -874857204 -637224791 -768025367 -626175429 1662328454 -249296515 943258635 114951637 -729496488 836724454 1386186263 923109056 201351576 1149706384 -543725043 -882614283 1185470144
REM
CELL 1.54180   50.00000   50.00000   50.00000   90.00000   90.00000   90.00000
LATT -1
SFAC C  
C      1  0.4226910000000  0.5268090000000  0.4340470000000 1.0
C      1  0.5490600000000  0.5068550000000  0.4924710000000 1.0
C      1  0.6991120000000  0.5102250000000  0.5076520000000 1.0
C      1  0.4150960000000  0.5520310000000  0.5022070000000 1.0
C      1  0.5443020000000  0.4445600000000  0.4677650000000 1.0
C      1  0.3884080000000  0.5189810000000  0.4701480000000 1.0
C      1  0.4864390000000  0.5701710000000  0.5162550000000 1.0
C      1  0.5312860000000  0.4615650000000  0.4848450000000 1.0
C      1  0.4393190000000  0.5622970000000  0.5059400000000 1.0
C      1  0.4937650000000  0.4380860000000  0.5066950000000 1.0
C      1  0.3975950000000  0.5184420000000  0.4422110000000 1.0
C      1  0.5187870000000  0.4514770000000  0.5083490000000 1.0
C      1  0.5176210000000  0.5849400000000  0.5497950000000 1.0
C      1  0.5502920000000  0.4560110000000  0.5518700000000 1.0
C      1  0.3680810000000  0.4981840000000  0.4740480000000 1.0
C      1  0.5307260000000  0.4894510000000  0.4794340000000 1.0
C      1  0.4910970000000  0.4158620000000  0.4909140000000 1.0
C      1  0.6403640000000  0.4862290000000  0.5426440000000 1.0
C      1  0.4220740000000  0.4555810000000  0.5361160000000 1.0
C      1  0.6029140000000  0.5043820000000  0.4896790000000 1.0
C      1  0.3976750000000  0.5365700000000  0.4894920000000 1.0
C      1  0.4719620000000  0.4473350000000  0.5215960000000 1.0
C      1  0.4662270000000  0.5632720000000  0.4983700000000 1.0
C      1  0.4718680000000  0.5340050000000  0.4529920000000 1.0
C      1  0.4926220000000  0.5153310000000  0.4518720000000 1.0
C      1  0.3966800000000  0.4619900000000  0.5317660000000 1.0
C      1  0.5278520000000  0.5466760000000  0.5224450000000 1.0
C      1  0.5735450000000  0.4599740000000  0.5640020000000 1.0
C      1  0.5107550000000  0.5675750000000  0.5298520000000 1.0
C      1  0.6477050000000  0.4978260000000  0.5182560000000 1.0
C      1  0.5395030000000  0.5263110000000  0.5101320000000 1.0
C      1  0.4480110000000  0.4516190000000  0.5321460000000 1.0
C      1  0.5991140000000  0.4664280000000  0.5669580000000 1.0
C      1  0.3615700000000  0.4894870000000  0.4472610000000 1.0
C      1  0.4727250000000  0.5537160000000  0.4728580000000 1.0
C      1  0.3787060000000  0.5010950000000  0.4288850000000 1.0
C      1  0.5318900000000  0.4536770000000  0.5329380000000 1.0
C      1  0.5119870000000  0.5000250000000  0.4615840000000 1.0
C      1  0.3759020000000  0.4718820000000  0.5184940000000 1.0
C      1  0.6274890000000  0.5027840000000  0.4995400000000 1.0
C      1  0.6229440000000  0.4754530000000  0.5595260000000 1.0
C      1  0.4486590000000  0.5311550000000  0.4376460000000 1.0
C      1  0.6742720000000  0.5042320000000  0.5127790000000 1.0
C      1  0.3648170000000  0.4846320000000  0.4979700000000 1.0
C      1  0.5764890000000  0.5048110000000  0.4875550000000 1.0
END
