TITL C-3866674-3872-265 -0.0810594308937837 125000 -108.623945211474 0 0 20 (C1) n - 1
REM
REM in /home/nfs/bkarasulu/CARBON/AIRSS/Generating-Clusters/LCBOP/Only-C1/SD-CG/HFTN-CG/FIRE-CG
REM
REM
REM
REM
REM
REM ./C.cell (11c1c37f851c82e70ff6c80c92926a4b)
REM AIRSS Version 0.9.1 bugfix July 2018 build 013d7b7c2542+ Fri, 06 Jul 2018 19:26:36 +0100
REM compiler GCC version 9.2.1 20190827 (Red Hat 9.2.1-1)
REM options -cpp -mtune=generic -march=x86-64 -g -O0 -fpre-include=/usr/include/finclude/math-vector-fortran.h
REM seed 1108659422 1205531926 -76791572 -790478413 811687016 -139265122 -1032591406 -1727650448 109353213 437112780 899296742 494876988 2066425126 1446435512 -62189321 -2035245233 1201718190 1690126188 -1374870993 -1502084259 -127124760 -1900640853 513392906 -1020121766 -434340810 -744325182 -2113539966 -1497033741 968394846 1144399983 1714805033 616620163 -1684090521
REM
CELL 1.54180   50.00000   50.00000   50.00000   90.00000   90.00000   90.00000
LATT -1
SFAC C  
C      1  0.4922070000000  0.4490030000000  0.5057640000000 1.0
C      1  0.5432090000000  0.5747580000000  0.5110940000000 1.0
C      1  0.4599330000000  0.5140290000000  0.4473020000000 1.0
C      1  0.5675550000000  0.6204310000000  0.5203410000000 1.0
C      1  0.4996590000000  0.4508770000000  0.4796530000000 1.0
C      1  0.4520460000000  0.4184310000000  0.5016190000000 1.0
C      1  0.5056150000000  0.4622720000000  0.5282330000000 1.0
C      1  0.5521500000000  0.4708930000000  0.5367570000000 1.0
C      1  0.5250830000000  0.5046760000000  0.5160310000000 1.0
C      1  0.4980280000000  0.5258810000000  0.4821190000000 1.0
C      1  0.4697160000000  0.4377650000000  0.5444360000000 1.0
C      1  0.4905790000000  0.4543900000000  0.5516020000000 1.0
C      1  0.5180430000000  0.5274760000000  0.5015410000000 1.0
C      1  0.5309450000000  0.5517470000000  0.5064360000000 1.0
C      1  0.5279160000000  0.4792000000000  0.5271810000000 1.0
C      1  0.4694960000000  0.4334920000000  0.5158720000000 1.0
C      1  0.4789140000000  0.5208730000000  0.4644780000000 1.0
C      1  0.4410100000000  0.5066630000000  0.4302650000000 1.0
C      1  0.4224130000000  0.4993590000000  0.4135190000000 1.0
C      1  0.5554830000000  0.5977840000000  0.5157560000000 1.0
END
