TITL C-3866672-3872-174 -0.280583737098484 125000 -812.487535647185 0 0 135 (C1) n - 1
REM
REM in /home/nfs/bkarasulu/CARBON/AIRSS/Generating-Clusters/LCBOP/Only-C1/SD-CG/HFTN-CG/FIRE-CG
REM
REM
REM
REM
REM
REM ./C.cell (11c1c37f851c82e70ff6c80c92926a4b)
REM AIRSS Version 0.9.1 bugfix July 2018 build 013d7b7c2542+ Fri, 06 Jul 2018 19:26:36 +0100
REM compiler GCC version 9.2.1 20190827 (Red Hat 9.2.1-1)
REM options -cpp -mtune=generic -march=x86-64 -g -O0 -fpre-include=/usr/include/finclude/math-vector-fortran.h
REM seed 681126072 -274072956 -1077689574 -811429403 2036941453 -1570804553 1493746220 987623214 -574865404 594635103 -601008443 1571163058 1676366789 568059479 1291328832 106199742 -440660025 -1425025797 336898258 -1011254034 -1316000515 18387262 222830958 -889921580 69863723 1064495171 -1603039528 -713624302 2137451146 468417500 40959302 -479031892 2090687266
REM
CELL 1.54180   50.00000   50.00000   50.00000   90.00000   90.00000   90.00000
LATT -1
SFAC C  
C      1  0.4393250000000  0.5042280000000  0.5949440000000 1.0
C      1  0.5272130000000  0.4658570000000  0.3953880000000 1.0
C      1  0.3512930000000  0.5432160000000  0.5312170000000 1.0
C      1  0.5216710000000  0.4854020000000  0.4950080000000 1.0
C      1  0.4367030000000  0.5106150000000  0.5392700000000 1.0
C      1  0.5577640000000  0.5438410000000  0.4792550000000 1.0
C      1  0.6450240000000  0.4092110000000  0.5270780000000 1.0
C      1  0.6030060000000  0.4234070000000  0.4981840000000 1.0
C      1  0.6110880000000  0.5949950000000  0.4661370000000 1.0
C      1  0.6439960000000  0.4491980000000  0.5969740000000 1.0
C      1  0.6208960000000  0.4588290000000  0.5882840000000 1.0
C      1  0.3695970000000  0.5321030000000  0.5154540000000 1.0
C      1  0.5479600000000  0.5620360000000  0.5240790000000 1.0
C      1  0.5352210000000  0.5518830000000  0.5491560000000 1.0
C      1  0.5494780000000  0.5859680000000  0.4110360000000 1.0
C      1  0.5213100000000  0.5125120000000  0.4846930000000 1.0
C      1  0.5835180000000  0.5518820000000  0.4721690000000 1.0
C      1  0.4646490000000  0.3795720000000  0.4520450000000 1.0
C      1  0.4284200000000  0.5421590000000  0.4661350000000 1.0
C      1  0.4048740000000  0.4744340000000  0.4963890000000 1.0
C      1  0.4597690000000  0.4853430000000  0.3990170000000 1.0
C      1  0.4925330000000  0.4137780000000  0.5403420000000 1.0
C      1  0.5258340000000  0.5296080000000  0.4061570000000 1.0
C      1  0.5275050000000  0.4095290000000  0.4260330000000 1.0
C      1  0.4065050000000  0.4591080000000  0.4717280000000 1.0
C      1  0.4184790000000  0.4075670000000  0.5352570000000 1.0
C      1  0.4767410000000  0.4628400000000  0.4022670000000 1.0
C      1  0.3942830000000  0.5196420000000  0.5129250000000 1.0
C      1  0.4334480000000  0.5488050000000  0.5753370000000 1.0
C      1  0.5038420000000  0.5420560000000  0.6161860000000 1.0
C      1  0.4139350000000  0.4727010000000  0.5688110000000 1.0
C      1  0.4667210000000  0.4721250000000  0.5721920000000 1.0
C      1  0.4746680000000  0.4455080000000  0.4246140000000 1.0
C      1  0.5584070000000  0.6399510000000  0.4754020000000 1.0
C      1  0.6081100000000  0.4943480000000  0.5029400000000 1.0
C      1  0.4601300000000  0.5459590000000  0.5042950000000 1.0
C      1  0.6203870000000  0.5101870000000  0.4247630000000 1.0
C      1  0.5099080000000  0.4741090000000  0.5185220000000 1.0
C      1  0.5062390000000  0.5218200000000  0.4214820000000 1.0
C      1  0.5432370000000  0.5651010000000  0.5986810000000 1.0
C      1  0.4163600000000  0.4608300000000  0.5198250000000 1.0
C      1  0.4751450000000  0.5700830000000  0.4594810000000 1.0
C      1  0.4722030000000  0.5250930000000  0.4850760000000 1.0
C      1  0.4066990000000  0.4263710000000  0.5514050000000 1.0
C      1  0.4803050000000  0.5156380000000  0.4294150000000 1.0
C      1  0.6045420000000  0.6208200000000  0.4666390000000 1.0
C      1  0.4397010000000  0.4436170000000  0.5141260000000 1.0
C      1  0.4858290000000  0.3787560000000  0.4352430000000 1.0
C      1  0.4638690000000  0.6174490000000  0.4521690000000 1.0
C      1  0.4702590000000  0.5184510000000  0.4553380000000 1.0
C      1  0.4803330000000  0.4477990000000  0.5790130000000 1.0
C      1  0.5961770000000  0.4796270000000  0.5523400000000 1.0
C      1  0.4266900000000  0.4703240000000  0.4544970000000 1.0
C      1  0.6149950000000  0.4980370000000  0.4775810000000 1.0
C      1  0.4209620000000  0.4972450000000  0.4476330000000 1.0
C      1  0.6027750000000  0.5698160000000  0.4683970000000 1.0
C      1  0.5714560000000  0.5713890000000  0.4080270000000 1.0
C      1  0.5010700000000  0.5973100000000  0.4280400000000 1.0
C      1  0.4088740000000  0.4547480000000  0.5473410000000 1.0
C      1  0.4488210000000  0.6377810000000  0.4584340000000 1.0
C      1  0.5358210000000  0.6268110000000  0.4804920000000 1.0
C      1  0.5201080000000  0.3991320000000  0.4823990000000 1.0
C      1  0.4608220000000  0.4746030000000  0.4875490000000 1.0
C      1  0.5242780000000  0.4546760000000  0.6074430000000 1.0
C      1  0.4541430000000  0.5574430000000  0.5278780000000 1.0
C      1  0.4439590000000  0.5556000000000  0.4229840000000 1.0
C      1  0.5601420000000  0.4499510000000  0.4829690000000 1.0
C      1  0.5454330000000  0.5198210000000  0.4703330000000 1.0
C      1  0.5013990000000  0.4635570000000  0.3887590000000 1.0
C      1  0.4636500000000  0.4566470000000  0.5083590000000 1.0
C      1  0.4096100000000  0.4088910000000  0.4722690000000 1.0
C      1  0.4699170000000  0.4430910000000  0.4523140000000 1.0
C      1  0.4607390000000  0.5116250000000  0.4088700000000 1.0
C      1  0.5082520000000  0.3908840000000  0.4267770000000 1.0
C      1  0.4225370000000  0.5264770000000  0.5889330000000 1.0
C      1  0.3342750000000  0.5604870000000  0.6020510000000 1.0
C      1  0.5255230000000  0.5577170000000  0.6172060000000 1.0
C      1  0.5209210000000  0.5761360000000  0.4849540000000 1.0
C      1  0.4533200000000  0.4638600000000  0.4626850000000 1.0
C      1  0.5424680000000  0.4599610000000  0.4183580000000 1.0
C      1  0.5396350000000  0.3818530000000  0.4821470000000 1.0
C      1  0.3438740000000  0.5495450000000  0.5559680000000 1.0
C      1  0.5717410000000  0.5792770000000  0.5602320000000 1.0
C      1  0.3499760000000  0.5483800000000  0.5833130000000 1.0
C      1  0.4484450000000  0.5577590000000  0.4514690000000 1.0
C      1  0.5227380000000  0.6039090000000  0.4838150000000 1.0
C      1  0.5242370000000  0.4766260000000  0.5418190000000 1.0
C      1  0.4153470000000  0.5163630000000  0.4681820000000 1.0
C      1  0.4903340000000  0.4534680000000  0.5161740000000 1.0
C      1  0.6652900000000  0.4034950000000  0.5424490000000 1.0
C      1  0.5499510000000  0.5645710000000  0.5718020000000 1.0
C      1  0.3730630000000  0.5341270000000  0.5904040000000 1.0
C      1  0.6057240000000  0.5319130000000  0.4149060000000 1.0
C      1  0.6243170000000  0.4153130000000  0.5116970000000 1.0
C      1  0.6007080000000  0.4883730000000  0.5277100000000 1.0
C      1  0.4401600000000  0.4795280000000  0.5799420000000 1.0
C      1  0.4831050000000  0.4941900000000  0.5639340000000 1.0
C      1  0.4819210000000  0.4248480000000  0.5626050000000 1.0
C      1  0.4340390000000  0.4154240000000  0.5126570000000 1.0
C      1  0.4451740000000  0.5589090000000  0.5532490000000 1.0
C      1  0.4573270000000  0.3996630000000  0.4705170000000 1.0
C      1  0.5967480000000  0.4683700000000  0.5779420000000 1.0
C      1  0.4991360000000  0.5604460000000  0.4753800000000 1.0
C      1  0.5402200000000  0.4674770000000  0.4833580000000 1.0
C      1  0.4966320000000  0.5182160000000  0.5701090000000 1.0
C      1  0.5423550000000  0.5609040000000  0.4965510000000 1.0
C      1  0.6360270000000  0.4953850000000  0.4078850000000 1.0
C      1  0.3978520000000  0.4327590000000  0.4680600000000 1.0
C      1  0.5405170000000  0.4329810000000  0.4266360000000 1.0
C      1  0.4799200000000  0.5954080000000  0.4462830000000 1.0
C      1  0.4974720000000  0.4261170000000  0.5154880000000 1.0
C      1  0.3932850000000  0.4908360000000  0.5771290000000 1.0
C      1  0.5540270000000  0.5029120000000  0.4493550000000 1.0
C      1  0.4988160000000  0.4160080000000  0.4888010000000 1.0
C      1  0.5844620000000  0.6380070000000  0.4701380000000 1.0
C      1  0.5813650000000  0.4349500000000  0.4881440000000 1.0
C      1  0.4633250000000  0.5002260000000  0.4961390000000 1.0
C      1  0.5706530000000  0.5779130000000  0.5328120000000 1.0
C      1  0.6189180000000  0.5036170000000  0.4519460000000 1.0
C      1  0.4993630000000  0.4495700000000  0.5997070000000 1.0
C      1  0.5008440000000  0.5327160000000  0.4849560000000 1.0
C      1  0.4026400000000  0.5035930000000  0.4913790000000 1.0
C      1  0.4767810000000  0.4211430000000  0.4704200000000 1.0
C      1  0.5250480000000  0.5944410000000  0.4170330000000 1.0
C      1  0.5733780000000  0.4663210000000  0.5931590000000 1.0
C      1  0.4451540000000  0.5349240000000  0.4053310000000 1.0
C      1  0.4134080000000  0.5206250000000  0.5330300000000 1.0
C      1  0.3952000000000  0.5179310000000  0.5860810000000 1.0
C      1  0.6667530000000  0.4397110000000  0.6054450000000 1.0
C      1  0.5532370000000  0.4813090000000  0.4333760000000 1.0
C      1  0.5145340000000  0.5331170000000  0.5536550000000 1.0
C      1  0.5899460000000  0.5523600000000  0.4088440000000 1.0
C      1  0.4931610000000  0.5275560000000  0.5964990000000 1.0
C      1  0.5498950000000  0.4609010000000  0.6042480000000 1.0
C      1  0.4337530000000  0.4037220000000  0.4862460000000 1.0
END
