TITL C-3866672-3872-530 61.1750891635399 125000 -780.411268502935 0 0 130 (C1) n - 1
REM
REM in /home/nfs/bkarasulu/CARBON/AIRSS/Generating-Clusters/LCBOP/Only-C1/SD-CG/FIRE-CG
REM
REM
REM
REM
REM
REM ./C.cell (11c1c37f851c82e70ff6c80c92926a4b)
REM AIRSS Version 0.9.1 bugfix July 2018 build 013d7b7c2542+ Fri, 06 Jul 2018 19:26:36 +0100
REM compiler GCC version 9.2.1 20190827 (Red Hat 9.2.1-1)
REM options -cpp -mtune=generic -march=x86-64 -g -O0 -fpre-include=/usr/include/finclude/math-vector-fortran.h
REM seed -583745634 636712804 -1647030290 391453460 1275341342 -522458987 1439210828 1732868690 73918206 -856423902 1299255326 941003674 1172444581 373054536 967252595 1903484720 -2049119374 -2121420892 -405478863 2071459604 -1782810487 901132392 160331511 1329731923 -1475111176 -619348868 1230891219 1737125910 -411470481 -408991948 1793475477 -95455676 -1741359078
REM
CELL 1.54180   50.00000   50.00000   50.00000   90.00000   90.00000   90.00000
LATT -1
SFAC C  
C      1  0.5477070000000  0.4067880000000  0.5321030000000 1.0
C      1  0.4855970000000  0.5784090000000  0.4791740000000 1.0
C      1  0.5092950000000  0.4373730000000  0.4125300000000 1.0
C      1  0.5617690000000  0.4382920000000  0.4639090000000 1.0
C      1  0.4282180000000  0.4247950000000  0.4255190000000 1.0
C      1  0.5143290000000  0.5919190000000  0.5095330000000 1.0
C      1  0.4975420000000  0.4191080000000  0.4589190000000 1.0
C      1  0.4817130000000  0.5351730000000  0.4069910000000 1.0
C      1  0.5052820000000  0.4163110000000  0.4297820000000 1.0
C      1  0.4779340000000  0.4562830000000  0.5464980000000 1.0
C      1  0.5542540000000  0.5079580000000  0.5412600000000 1.0
C      1  0.5296000000000  0.5704190000000  0.5207310000000 1.0
C      1  0.4745100000000  0.5428430000000  0.4557130000000 1.0
C      1  0.4987010000000  0.6898840000000  0.4262450000000 1.0
C      1  0.4697420000000  0.5510140000000  0.4268860000000 1.0
C      1  0.4980820000000  0.5557920000000  0.4675330000000 1.0
C      1  0.5889690000000  0.3892160000000  0.5891630000000 1.0
C      1  0.5777610000000  0.4041070000000  0.5709490000000 1.0
C      1  0.5448390000000  0.5330880000000  0.4679360000000 1.0
C      1  0.4992490000000  0.7123950000000  0.4131070000000 1.0
C      1  0.6202850000000  0.5553060000000  0.5353980000000 1.0
C      1  0.4591770000000  0.4498160000000  0.4569020000000 1.0
C      1  0.3738330000000  0.4876530000000  0.5772630000000 1.0
C      1  0.6296730000000  0.5205640000000  0.5009140000000 1.0
C      1  0.4414520000000  0.5012170000000  0.5871600000000 1.0
C      1  0.5906820000000  0.5487690000000  0.4622610000000 1.0
C      1  0.4032980000000  0.4650730000000  0.5463590000000 1.0
C      1  0.6072910000000  0.4704710000000  0.5034780000000 1.0
C      1  0.5113990000000  0.4663450000000  0.4127160000000 1.0
C      1  0.4527430000000  0.5903500000000  0.4442010000000 1.0
C      1  0.4461790000000  0.5365800000000  0.5489420000000 1.0
C      1  0.4145680000000  0.4818850000000  0.4563830000000 1.0
C      1  0.5415980000000  0.4579820000000  0.4741290000000 1.0
C      1  0.4761890000000  0.5989910000000  0.4611550000000 1.0
C      1  0.5828890000000  0.5362910000000  0.5226070000000 1.0
C      1  0.5206740000000  0.4505770000000  0.5188850000000 1.0
C      1  0.5017220000000  0.5211600000000  0.5155670000000 1.0
C      1  0.5681070000000  0.4973290000000  0.4960640000000 1.0
C      1  0.4735460000000  0.4122190000000  0.5023170000000 1.0
C      1  0.4575110000000  0.4753910000000  0.4175000000000 1.0
C      1  0.5593650000000  0.5079690000000  0.4712640000000 1.0
C      1  0.5359940000000  0.5305660000000  0.5452690000000 1.0
C      1  0.4496890000000  0.4641260000000  0.4795430000000 1.0
C      1  0.4965600000000  0.6199130000000  0.4666610000000 1.0
C      1  0.4514150000000  0.5525080000000  0.4751020000000 1.0
C      1  0.5956270000000  0.5232530000000  0.4476360000000 1.0
C      1  0.4857480000000  0.4821300000000  0.4092960000000 1.0
C      1  0.4243460000000  0.5501680000000  0.4843200000000 1.0
C      1  0.5787750000000  0.4725750000000  0.5063290000000 1.0
C      1  0.4348540000000  0.4866070000000  0.4341790000000 1.0
C      1  0.4049390000000  0.4680760000000  0.5178100000000 1.0
C      1  0.5163370000000  0.4881520000000  0.5488500000000 1.0
C      1  0.4455310000000  0.5317370000000  0.5207030000000 1.0
C      1  0.4992890000000  0.4743200000000  0.4614650000000 1.0
C      1  0.4493560000000  0.5986480000000  0.5427210000000 1.0
C      1  0.4184890000000  0.5308970000000  0.5573130000000 1.0
C      1  0.4722400000000  0.4795330000000  0.5289460000000 1.0
C      1  0.4935760000000  0.3975190000000  0.5464380000000 1.0
C      1  0.5627900000000  0.4628360000000  0.5282610000000 1.0
C      1  0.4214450000000  0.4619350000000  0.4762060000000 1.0
C      1  0.4885660000000  0.5096640000000  0.4016030000000 1.0
C      1  0.4052960000000  0.5050020000000  0.4731980000000 1.0
C      1  0.4668620000000  0.5887810000000  0.5254440000000 1.0
C      1  0.5570400000000  0.4037720000000  0.5044250000000 1.0
C      1  0.6226620000000  0.4944950000000  0.5013680000000 1.0
C      1  0.4680070000000  0.5015600000000  0.5920050000000 1.0
C      1  0.5189670000000  0.5428790000000  0.5264260000000 1.0
C      1  0.4902070000000  0.4604940000000  0.5998780000000 1.0
C      1  0.6194740000000  0.4460010000000  0.5025470000000 1.0
C      1  0.5691070000000  0.5590000000000  0.5584980000000 1.0
C      1  0.5352140000000  0.4764400000000  0.4286950000000 1.0
C      1  0.4690910000000  0.5136200000000  0.4552090000000 1.0
C      1  0.5998210000000  0.5586930000000  0.4882120000000 1.0
C      1  0.5178640000000  0.5368110000000  0.4738980000000 1.0
C      1  0.4966910000000  0.4429660000000  0.5289910000000 1.0
C      1  0.5205720000000  0.3986730000000  0.5403550000000 1.0
C      1  0.3885670000000  0.5164100000000  0.5203820000000 1.0
C      1  0.5621730000000  0.5538500000000  0.4590190000000 1.0
C      1  0.4652250000000  0.4645670000000  0.5029840000000 1.0
C      1  0.4981430000000  0.6669960000000  0.4396020000000 1.0
C      1  0.5772550000000  0.5607550000000  0.5078260000000 1.0
C      1  0.4800640000000  0.4392460000000  0.5063820000000 1.0
C      1  0.4505850000000  0.4095030000000  0.5210060000000 1.0
C      1  0.4024030000000  0.5383710000000  0.5327560000000 1.0
C      1  0.5655120000000  0.4201680000000  0.5515040000000 1.0
C      1  0.4433920000000  0.4099800000000  0.4704180000000 1.0
C      1  0.5248190000000  0.4441810000000  0.4924970000000 1.0
C      1  0.4055180000000  0.4396910000000  0.5568200000000 1.0
C      1  0.5727550000000  0.4696940000000  0.5713820000000 1.0
C      1  0.4066400000000  0.4973630000000  0.5047960000000 1.0
C      1  0.4866690000000  0.4490620000000  0.4573120000000 1.0
C      1  0.5945340000000  0.5476340000000  0.5472290000000 1.0
C      1  0.5751250000000  0.4515970000000  0.4420970000000 1.0
C      1  0.5511580000000  0.4121470000000  0.4768450000000 1.0
C      1  0.4674430000000  0.4356260000000  0.5632790000000 1.0
C      1  0.5167460000000  0.4972310000000  0.5781780000000 1.0
C      1  0.4720080000000  0.4048860000000  0.4751700000000 1.0
C      1  0.4178650000000  0.5062940000000  0.5719330000000 1.0
C      1  0.5622460000000  0.4961380000000  0.5677610000000 1.0
C      1  0.6225010000000  0.5480810000000  0.5058730000000 1.0
C      1  0.5345710000000  0.4701950000000  0.5331050000000 1.0
C      1  0.3984830000000  0.4864140000000  0.5651230000000 1.0
C      1  0.4751560000000  0.4399360000000  0.5902100000000 1.0
C      1  0.4270400000000  0.5379990000000  0.4398690000000 1.0
C      1  0.4218120000000  0.5485690000000  0.5124770000000 1.0
C      1  0.4443160000000  0.5131290000000  0.4399260000000 1.0
C      1  0.4312900000000  0.6071540000000  0.5594780000000 1.0
C      1  0.5435480000000  0.5125910000000  0.5852040000000 1.0
C      1  0.5693510000000  0.5133530000000  0.5189140000000 1.0
C      1  0.4417690000000  0.4282400000000  0.4486870000000 1.0
C      1  0.5267400000000  0.4739860000000  0.4563980000000 1.0
C      1  0.4283180000000  0.4196000000000  0.5011880000000 1.0
C      1  0.4975460000000  0.6441100000000  0.4529200000000 1.0
C      1  0.5652980000000  0.4777460000000  0.4325040000000 1.0
C      1  0.5575190000000  0.5728800000000  0.5267590000000 1.0
C      1  0.4368310000000  0.5058370000000  0.5111310000000 1.0
C      1  0.5470240000000  0.5402610000000  0.5706750000000 1.0
C      1  0.5039990000000  0.5157320000000  0.4878160000000 1.0
C      1  0.4939920000000  0.4988920000000  0.5321970000000 1.0
C      1  0.4433490000000  0.5638420000000  0.4312290000000 1.0
C      1  0.4866010000000  0.5842320000000  0.5067830000000 1.0
C      1  0.4883760000000  0.4990140000000  0.4700320000000 1.0
C      1  0.4931940000000  0.4881480000000  0.5930020000000 1.0
C      1  0.5217670000000  0.4187920000000  0.4780540000000 1.0
C      1  0.5161060000000  0.6128570000000  0.4883450000000 1.0
C      1  0.5712050000000  0.4484730000000  0.5515820000000 1.0
C      1  0.4661060000000  0.4102230000000  0.5479080000000 1.0
C      1  0.4133310000000  0.4462060000000  0.4994200000000 1.0
C      1  0.5755530000000  0.5013790000000  0.4473590000000 1.0
C      1  0.4107480000000  0.5332860000000  0.4649070000000 1.0
END
