TITL C-3866674-3872-683 5335.7824037904 125000 -905.075704302339 0 0 147 (C1) n - 1
REM
REM in /home/nfs/bkarasulu/CARBON/AIRSS/Generating-Clusters/LCBOP/Only-C1/SD-CG/FIRE-CG
REM
REM
REM
REM
REM
REM ./C.cell (11c1c37f851c82e70ff6c80c92926a4b)
REM AIRSS Version 0.9.1 bugfix July 2018 build 013d7b7c2542+ Fri, 06 Jul 2018 19:26:36 +0100
REM compiler GCC version 9.2.1 20190827 (Red Hat 9.2.1-1)
REM options -cpp -mtune=generic -march=x86-64 -g -O0 -fpre-include=/usr/include/finclude/math-vector-fortran.h
REM seed -130069213 1330768790 162233965 -1370652224 -859799267 -1382351173 1363378043 -988051434 1968212213 917982604 -2047632008 540862025 -2146628906 964288143 -1228633479 935387871 1010145108 801555057 318179796 -1036850102 -2037361397 639491476 891152612 1752282917 934131048 -351180969 1004610203 1063378957 -1466836634 303325996 -2075091012 -610711176 872417973
REM
CELL 1.54180   50.00000   50.00000   50.00000   90.00000   90.00000   90.00000
LATT -1
SFAC C  
C      1  0.4957490000000  0.5288140000000  0.4762400000000 1.0
C      1  0.5198030000000  0.5480000000000  0.4805560000000 1.0
C      1  0.5024260000000  0.4905780000000  0.5661790000000 1.0
C      1  0.5095670000000  0.5571090000000  0.5338830000000 1.0
C      1  0.4708250000000  0.4802630000000  0.5360790000000 1.0
C      1  0.4332510000000  0.5190190000000  0.5378020000000 1.0
C      1  0.4960900000000  0.5647640000000  0.5788260000000 1.0
C      1  0.4189830000000  0.4610760000000  0.4914790000000 1.0
C      1  0.5119410000000  0.5627370000000  0.4120690000000 1.0
C      1  0.5159250000000  0.3795950000000  0.4367350000000 1.0
C      1  0.5918360000000  0.5030230000000  0.5195620000000 1.0
C      1  0.4587730000000  0.4822490000000  0.4677340000000 1.0
C      1  0.4962580000000  0.5037480000000  0.4956780000000 1.0
C      1  0.4437500000000  0.5743680000000  0.4094730000000 1.0
C      1  0.5195130000000  0.5841550000000  0.4263690000000 1.0
C      1  0.5024830000000  0.4440180000000  0.5653600000000 1.0
C      1  0.4603470000000  0.5697100000000  0.5442670000000 1.0
C      1  0.5768640000000  0.4292650000000  0.5190500000000 1.0
C      1  0.5590970000000  0.4677850000000  0.6016440000000 1.0
C      1  0.4627120000000  0.3810700000000  0.4850520000000 1.0
C      1  0.6086950000000  0.5376190000000  0.4887510000000 1.0
C      1  0.4789220000000  0.4631550000000  0.4136310000000 1.0
C      1  0.4929630000000  0.4658970000000  0.6065610000000 1.0
C      1  0.4296260000000  0.5149340000000  0.4117860000000 1.0
C      1  0.5171680000000  0.5937100000000  0.4977080000000 1.0
C      1  0.4771320000000  0.5256200000000  0.3891680000000 1.0
C      1  0.5305640000000  0.5987300000000  0.4726460000000 1.0
C      1  0.5420010000000  0.4836190000000  0.5372100000000 1.0
C      1  0.5537120000000  0.4255920000000  0.5621490000000 1.0
C      1  0.4487020000000  0.5074270000000  0.4533380000000 1.0
C      1  0.5814730000000  0.5101090000000  0.5692080000000 1.0
C      1  0.4579520000000  0.5239080000000  0.4107780000000 1.0
C      1  0.5434520000000  0.5044130000000  0.4812420000000 1.0
C      1  0.5962580000000  0.4955260000000  0.4674350000000 1.0
C      1  0.4734890000000  0.5462090000000  0.4849720000000 1.0
C      1  0.5280370000000  0.4883570000000  0.5789370000000 1.0
C      1  0.5789330000000  0.4556600000000  0.5063520000000 1.0
C      1  0.4666860000000  0.4215580000000  0.4410250000000 1.0
C      1  0.5332470000000  0.5043100000000  0.6012470000000 1.0
C      1  0.4565640000000  0.4051140000000  0.4978550000000 1.0
C      1  0.5803710000000  0.4805100000000  0.5763510000000 1.0
C      1  0.5350780000000  0.4653200000000  0.5165940000000 1.0
C      1  0.4788310000000  0.3667240000000  0.4694560000000 1.0
C      1  0.4046490000000  0.5224430000000  0.4252020000000 1.0
C      1  0.5403380000000  0.4681950000000  0.3859510000000 1.0
C      1  0.5598110000000  0.4114850000000  0.5050580000000 1.0
C      1  0.5473500000000  0.5301370000000  0.4174720000000 1.0
C      1  0.4455220000000  0.4347500000000  0.4568350000000 1.0
C      1  0.5407830000000  0.4706770000000  0.5620590000000 1.0
C      1  0.4163050000000  0.4497810000000  0.5372840000000 1.0
C      1  0.5574610000000  0.5403000000000  0.4413900000000 1.0
C      1  0.4890400000000  0.5097660000000  0.5829880000000 1.0
C      1  0.4872310000000  0.4367170000000  0.4247800000000 1.0
C      1  0.4329280000000  0.5395240000000  0.5943630000000 1.0
C      1  0.5527640000000  0.5462590000000  0.5932850000000 1.0
C      1  0.4876270000000  0.5948680000000  0.4958060000000 1.0
C      1  0.5490430000000  0.5694020000000  0.5769860000000 1.0
C      1  0.4115810000000  0.5566130000000  0.5278610000000 1.0
C      1  0.5720980000000  0.5679390000000  0.4738170000000 1.0
C      1  0.5562630000000  0.5256410000000  0.4673380000000 1.0
C      1  0.5870770000000  0.4627020000000  0.5534530000000 1.0
C      1  0.4264060000000  0.4352930000000  0.4795850000000 1.0
C      1  0.5757830000000  0.5298210000000  0.5893200000000 1.0
C      1  0.5984300000000  0.5614370000000  0.4812990000000 1.0
C      1  0.4085550000000  0.5273470000000  0.5260230000000 1.0
C      1  0.4551120000000  0.4097000000000  0.5714260000000 1.0
C      1  0.5606920000000  0.5696000000000  0.4471980000000 1.0
C      1  0.5535150000000  0.4628810000000  0.4949070000000 1.0
C      1  0.4371090000000  0.4542460000000  0.5586280000000 1.0
C      1  0.4507730000000  0.4965920000000  0.6074990000000 1.0
C      1  0.5278100000000  0.4729660000000  0.4497930000000 1.0
C      1  0.4826280000000  0.5622920000000  0.5280390000000 1.0
C      1  0.4367520000000  0.5038100000000  0.5610710000000 1.0
C      1  0.4289190000000  0.5580370000000  0.4597940000000 1.0
C      1  0.5083510000000  0.4925900000000  0.4401770000000 1.0
C      1  0.5879810000000  0.5904740000000  0.5558930000000 1.0
C      1  0.4474900000000  0.5616830000000  0.5902280000000 1.0
C      1  0.5084320000000  0.4571530000000  0.5205150000000 1.0
C      1  0.4953220000000  0.4676740000000  0.5462870000000 1.0
C      1  0.5696400000000  0.4846660000000  0.4196460000000 1.0
C      1  0.4969180000000  0.4861530000000  0.4134050000000 1.0
C      1  0.5160940000000  0.4286950000000  0.4828090000000 1.0
C      1  0.4690210000000  0.5204450000000  0.4371310000000 1.0
C      1  0.4006430000000  0.5060720000000  0.5062280000000 1.0
C      1  0.4945850000000  0.5166670000000  0.4490450000000 1.0
C      1  0.4270880000000  0.5784070000000  0.4800690000000 1.0
C      1  0.4728360000000  0.3982840000000  0.5545040000000 1.0
C      1  0.4942400000000  0.4452390000000  0.4968290000000 1.0
C      1  0.5528850000000  0.4609320000000  0.4113810000000 1.0
C      1  0.4535790000000  0.5199660000000  0.5180660000000 1.0
C      1  0.4307940000000  0.4161870000000  0.5001410000000 1.0
C      1  0.5227200000000  0.4037120000000  0.4275900000000 1.0
C      1  0.4729410000000  0.5502380000000  0.3756310000000 1.0
C      1  0.4859210000000  0.4759660000000  0.4813000000000 1.0
C      1  0.5867450000000  0.4882620000000  0.4426330000000 1.0
C      1  0.5303940000000  0.5102050000000  0.5320480000000 1.0
C      1  0.5375280000000  0.4137260000000  0.4898690000000 1.0
C      1  0.5207220000000  0.5364480000000  0.4086440000000 1.0
C      1  0.4821510000000  0.4466170000000  0.5864470000000 1.0
C      1  0.5819290000000  0.5215730000000  0.5409260000000 1.0
C      1  0.5381380000000  0.5877280000000  0.4471200000000 1.0
C      1  0.4058990000000  0.4711750000000  0.5160750000000 1.0
C      1  0.3926400000000  0.5162290000000  0.4497790000000 1.0
C      1  0.4183250000000  0.4232580000000  0.5249310000000 1.0
C      1  0.5170930000000  0.5325830000000  0.5475950000000 1.0
C      1  0.4319530000000  0.5277890000000  0.4704740000000 1.0
C      1  0.6001830000000  0.5106660000000  0.4922870000000 1.0
C      1  0.4488460000000  0.4794680000000  0.5539090000000 1.0
C      1  0.4504770000000  0.5324910000000  0.4933140000000 1.0
C      1  0.5770160000000  0.4345680000000  0.5480350000000 1.0
C      1  0.5064490000000  0.5106860000000  0.3949640000000 1.0
C      1  0.4351190000000  0.5747470000000  0.5284080000000 1.0
C      1  0.4776530000000  0.4207840000000  0.5091780000000 1.0
C      1  0.5508690000000  0.5490820000000  0.4860360000000 1.0
C      1  0.5565430000000  0.5067360000000  0.4046360000000 1.0
C      1  0.4338290000000  0.4889330000000  0.4203300000000 1.0
C      1  0.5281120000000  0.5736070000000  0.5186000000000 1.0
C      1  0.5693020000000  0.5704810000000  0.5565560000000 1.0
C      1  0.4787580000000  0.4925710000000  0.6046100000000 1.0
C      1  0.5216450000000  0.5798230000000  0.5779230000000 1.0
C      1  0.4861140000000  0.4084680000000  0.5333590000000 1.0
C      1  0.4044100000000  0.5152290000000  0.4768100000000 1.0
C      1  0.4337930000000  0.5671000000000  0.4333790000000 1.0
C      1  0.4520190000000  0.4687840000000  0.4220060000000 1.0
C      1  0.5153630000000  0.4307380000000  0.4268270000000 1.0
C      1  0.5692920000000  0.5492210000000  0.5363160000000 1.0
C      1  0.5290230000000  0.5317170000000  0.5976810000000 1.0
C      1  0.5902420000000  0.4748110000000  0.5258010000000 1.0
C      1  0.4677940000000  0.5692020000000  0.5722770000000 1.0
C      1  0.4359310000000  0.5121490000000  0.5884820000000 1.0
C      1  0.4397930000000  0.4796580000000  0.4893830000000 1.0
C      1  0.4384640000000  0.5906490000000  0.5034330000000 1.0
C      1  0.5445770000000  0.4776310000000  0.4722520000000 1.0
C      1  0.4619860000000  0.6077730000000  0.4991070000000 1.0
C      1  0.5318300000000  0.4430870000000  0.5650880000000 1.0
C      1  0.5056570000000  0.5352520000000  0.5783180000000 1.0
C      1  0.5341040000000  0.4519780000000  0.4310930000000 1.0
C      1  0.4505480000000  0.4612120000000  0.4491560000000 1.0
C      1  0.4756310000000  0.5028970000000  0.5193140000000 1.0
C      1  0.5521410000000  0.5571890000000  0.5144990000000 1.0
C      1  0.5250630000000  0.5075680000000  0.5037700000000 1.0
C      1  0.5272730000000  0.4616480000000  0.6130870000000 1.0
C      1  0.5349110000000  0.4966490000000  0.3853730000000 1.0
C      1  0.4578140000000  0.5700060000000  0.3868170000000 1.0
C      1  0.4990250000000  0.3658410000000  0.4520970000000 1.0
C      1  0.4801270000000  0.5677140000000  0.5006760000000 1.0
C      1  0.4548720000000  0.4378050000000  0.5764520000000 1.0
END
