TITL C-3866669-3764-585 -1.83937716685138 125000 -786.177684671846 0 0 130 (C1) n - 1
REM
REM in /home/nfs/bkarasulu/CARBON/AIRSS/Generating-Clusters/LCBOP/Only-C1/SD-CG/FIRE-CG
REM
REM
REM
REM
REM
REM ./C.cell (11c1c37f851c82e70ff6c80c92926a4b)
REM AIRSS Version 0.9.1 bugfix July 2018 build 013d7b7c2542+ Fri, 06 Jul 2018 19:26:36 +0100
REM compiler GCC version 9.2.1 20190827 (Red Hat 9.2.1-1)
REM options -cpp -mtune=generic -march=x86-64 -g -O0 -fpre-include=/usr/include/finclude/math-vector-fortran.h
REM seed -2013467356 -1327385909 -1284090347 -274853825 -2060205335 -1886056891 675875491 1290360339 -477397839 -674524074 908670575 1029471828 -1980789144 -1164811040 1779589485 -1395835298 1572681924 -1119607371 391727414 148091326 1925578497 -1944630956 -851529958 -300871551 -436971430 575108804 -255873156 1290624917 1470310507 -1766735538 -2028588753 761091253 -1875030926
REM
CELL 1.54180   50.00000   50.00000   50.00000   90.00000   90.00000   90.00000
LATT -1
SFAC C  
C      1  0.4942780000000  0.4146300000000  0.5558960000000 1.0
C      1  0.3972490000000  0.4514790000000  0.5426110000000 1.0
C      1  0.4751570000000  0.4302500000000  0.4853140000000 1.0
C      1  0.3741800000000  0.4574340000000  0.5270710000000 1.0
C      1  0.4975150000000  0.5277460000000  0.3845780000000 1.0
C      1  0.5518770000000  0.4499110000000  0.4002520000000 1.0
C      1  0.4180330000000  0.4370730000000  0.5307060000000 1.0
C      1  0.5710770000000  0.4981950000000  0.5790560000000 1.0
C      1  0.6096900000000  0.4262920000000  0.5428740000000 1.0
C      1  0.5415700000000  0.4589110000000  0.5517370000000 1.0
C      1  0.5676450000000  0.4685360000000  0.4112830000000 1.0
C      1  0.5287820000000  0.4368990000000  0.3969470000000 1.0
C      1  0.5679430000000  0.4895990000000  0.4298790000000 1.0
C      1  0.4833750000000  0.5331170000000  0.4395480000000 1.0
C      1  0.4547110000000  0.5357450000000  0.4385780000000 1.0
C      1  0.4872370000000  0.3869120000000  0.4288770000000 1.0
C      1  0.5327220000000  0.5701390000000  0.4348270000000 1.0
C      1  0.3488640000000  0.4499290000000  0.5361620000000 1.0
C      1  0.6055640000000  0.5417550000000  0.5560520000000 1.0
C      1  0.5886230000000  0.5616370000000  0.5673860000000 1.0
C      1  0.4991720000000  0.5058770000000  0.5987590000000 1.0
C      1  0.5736190000000  0.5072900000000  0.5520030000000 1.0
C      1  0.4725950000000  0.4290200000000  0.5667400000000 1.0
C      1  0.5100890000000  0.5439170000000  0.6302770000000 1.0
C      1  0.6424670000000  0.5207290000000  0.4872540000000 1.0
C      1  0.5022490000000  0.5722910000000  0.5682260000000 1.0
C      1  0.4551550000000  0.5555800000000  0.5069920000000 1.0
C      1  0.5635480000000  0.5494930000000  0.3972840000000 1.0
C      1  0.4740990000000  0.5455550000000  0.5960790000000 1.0
C      1  0.4654170000000  0.4769390000000  0.5736970000000 1.0
C      1  0.5255000000000  0.4473940000000  0.5288620000000 1.0
C      1  0.5097730000000  0.5390020000000  0.4966160000000 1.0
C      1  0.3815110000000  0.4790810000000  0.4778560000000 1.0
C      1  0.3770420000000  0.4704270000000  0.5024990000000 1.0
C      1  0.4520930000000  0.5028300000000  0.4707000000000 1.0
C      1  0.5162480000000  0.5876120000000  0.5107700000000 1.0
C      1  0.4797310000000  0.4654450000000  0.4560400000000 1.0
C      1  0.5400530000000  0.5092610000000  0.5126380000000 1.0
C      1  0.5703000000000  0.5413810000000  0.4236720000000 1.0
C      1  0.4703030000000  0.5054060000000  0.4918220000000 1.0
C      1  0.4299320000000  0.5342770000000  0.5821200000000 1.0
C      1  0.4367080000000  0.4278640000000  0.5123120000000 1.0
C      1  0.5960040000000  0.4520560000000  0.5423510000000 1.0
C      1  0.4696700000000  0.4555110000000  0.5559220000000 1.0
C      1  0.5465670000000  0.4895550000000  0.4486610000000 1.0
C      1  0.6302330000000  0.5104940000000  0.5078630000000 1.0
C      1  0.3991750000000  0.4600600000000  0.5685080000000 1.0
C      1  0.4405930000000  0.5284240000000  0.4155230000000 1.0
C      1  0.5452670000000  0.5348450000000  0.4656360000000 1.0
C      1  0.3253660000000  0.4428580000000  0.5449400000000 1.0
C      1  0.4712760000000  0.5920700000000  0.4485910000000 1.0
C      1  0.5240860000000  0.5601110000000  0.5590140000000 1.0
C      1  0.5388450000000  0.5405110000000  0.5487480000000 1.0
C      1  0.5559050000000  0.5368420000000  0.6007260000000 1.0
C      1  0.6083100000000  0.4704970000000  0.6064080000000 1.0
C      1  0.4557690000000  0.4186870000000  0.5855140000000 1.0
C      1  0.4352230000000  0.5916630000000  0.4900630000000 1.0
C      1  0.5138680000000  0.4936740000000  0.5119440000000 1.0
C      1  0.5032660000000  0.4913500000000  0.4263010000000 1.0
C      1  0.5378410000000  0.5318320000000  0.4927980000000 1.0
C      1  0.5036250000000  0.4680970000000  0.5217310000000 1.0
C      1  0.5396780000000  0.5515120000000  0.3848340000000 1.0
C      1  0.4712420000000  0.4993260000000  0.5897660000000 1.0
C      1  0.4753170000000  0.5703830000000  0.4920880000000 1.0
C      1  0.5384950000000  0.4498750000000  0.4767500000000 1.0
C      1  0.4942720000000  0.4058010000000  0.4113850000000 1.0
C      1  0.4579630000000  0.4837020000000  0.4504230000000 1.0
C      1  0.4956120000000  0.5135140000000  0.5001740000000 1.0
C      1  0.5322940000000  0.5144170000000  0.4508140000000 1.0
C      1  0.4765820000000  0.3752210000000  0.4503850000000 1.0
C      1  0.5047580000000  0.4700980000000  0.4450420000000 1.0
C      1  0.4222770000000  0.5433820000000  0.4751320000000 1.0
C      1  0.5803100000000  0.5148780000000  0.4264330000000 1.0
C      1  0.5279030000000  0.4727340000000  0.5728570000000 1.0
C      1  0.5536100000000  0.5532200000000  0.4447690000000 1.0
C      1  0.4839400000000  0.5028420000000  0.3785530000000 1.0
C      1  0.4445380000000  0.3842620000000  0.4899590000000 1.0
C      1  0.4354520000000  0.6033740000000  0.5166730000000 1.0
C      1  0.6414550000000  0.4562240000000  0.5313950000000 1.0
C      1  0.5901010000000  0.4829180000000  0.5925030000000 1.0
C      1  0.5127170000000  0.5504670000000  0.3944800000000 1.0
C      1  0.4617470000000  0.5901550000000  0.4752180000000 1.0
C      1  0.5138830000000  0.4217000000000  0.5389610000000 1.0
C      1  0.5067180000000  0.5171060000000  0.4376750000000 1.0
C      1  0.5091820000000  0.5685530000000  0.4179480000000 1.0
C      1  0.5511450000000  0.5174610000000  0.5377460000000 1.0
C      1  0.4713370000000  0.4388240000000  0.4590380000000 1.0
C      1  0.5014430000000  0.4308400000000  0.4007760000000 1.0
C      1  0.5440520000000  0.5893620000000  0.5137710000000 1.0
C      1  0.6169590000000  0.4719210000000  0.5343130000000 1.0
C      1  0.5657460000000  0.5900260000000  0.5292940000000 1.0
C      1  0.5307590000000  0.4670590000000  0.4562180000000 1.0
C      1  0.4759110000000  0.5665130000000  0.5761820000000 1.0
C      1  0.5694160000000  0.4552000000000  0.5497950000000 1.0
C      1  0.4618840000000  0.3733380000000  0.4726310000000 1.0
C      1  0.5245510000000  0.4955340000000  0.5901780000000 1.0
C      1  0.4776350000000  0.6103710000000  0.5383630000000 1.0
C      1  0.4407370000000  0.5271040000000  0.4617730000000 1.0
C      1  0.6158670000000  0.4996600000000  0.5292540000000 1.0
C      1  0.5021210000000  0.5659710000000  0.4982770000000 1.0
C      1  0.4968050000000  0.5333050000000  0.6090690000000 1.0
C      1  0.4180010000000  0.4167550000000  0.4677410000000 1.0
C      1  0.5493430000000  0.5101910000000  0.5935270000000 1.0
C      1  0.4522110000000  0.5975540000000  0.5397650000000 1.0
C      1  0.4554270000000  0.5036220000000  0.3791500000000 1.0
C      1  0.5995810000000  0.5164680000000  0.5449910000000 1.0
C      1  0.5396530000000  0.4435720000000  0.5027100000000 1.0
C      1  0.4766990000000  0.4575260000000  0.5276640000000 1.0
C      1  0.5732660000000  0.5549620000000  0.5904190000000 1.0
C      1  0.4583850000000  0.5491870000000  0.5337050000000 1.0
C      1  0.4284640000000  0.4231680000000  0.4436630000000 1.0
C      1  0.4913070000000  0.4753910000000  0.3826540000000 1.0
C      1  0.4534950000000  0.4339310000000  0.4363510000000 1.0
C      1  0.4924490000000  0.5133520000000  0.5493330000000 1.0
C      1  0.5004590000000  0.6064910000000  0.5248230000000 1.0
C      1  0.4281100000000  0.5584670000000  0.5691160000000 1.0
C      1  0.4581110000000  0.4533240000000  0.4142770000000 1.0
C      1  0.4297370000000  0.4083090000000  0.4921930000000 1.0
C      1  0.4712450000000  0.5260720000000  0.5415420000000 1.0
C      1  0.4489330000000  0.4805010000000  0.4224120000000 1.0
C      1  0.4522300000000  0.5706580000000  0.5551220000000 1.0
C      1  0.4546360000000  0.5238340000000  0.5911460000000 1.0
C      1  0.6364570000000  0.4294410000000  0.5364590000000 1.0
C      1  0.4865880000000  0.5828330000000  0.4281370000000 1.0
C      1  0.4821980000000  0.4520550000000  0.3972600000000 1.0
C      1  0.5804660000000  0.5823650000000  0.5502070000000 1.0
C      1  0.4301060000000  0.5625640000000  0.4937860000000 1.0
C      1  0.4430390000000  0.5025470000000  0.4044890000000 1.0
C      1  0.3853000000000  0.4855980000000  0.4529000000000 1.0
C      1  0.4631040000000  0.4391130000000  0.5094690000000 1.0
END
