TITL C-3866676-3738-517 -1.39352611654689e-07 125000 -1245.02379772438 0 0 198 (C1) n - 1
REM
REM in /home/nfs/bkarasulu/CARBON/AIRSS/Generating-Clusters/LCBOP/Only-C1/SD-CG/FIRE-CG
REM
REM
REM
REM
REM
REM ./C.cell (11c1c37f851c82e70ff6c80c92926a4b)
REM AIRSS Version 0.9.1 bugfix July 2018 build 013d7b7c2542+ Fri, 06 Jul 2018 19:26:36 +0100
REM compiler GCC version 9.2.1 20190827 (Red Hat 9.2.1-1)
REM options -cpp -mtune=generic -march=x86-64 -g -O0 -fpre-include=/usr/include/finclude/math-vector-fortran.h
REM seed -971263587 1620354891 988307620 2031736325 -1642363124 -1335132266 1035007546 121781685 1759675678 -423501485 779248157 1908044954 -585587613 -1614611006 1215588510 -1355944088 -562047038 -675591086 296934709 1128452682 690596611 2017562016 -491590807 -2024612577 551915850 165119236 -278440917 -687127727 1405350930 1627227481 1483815928 -1218227366 -2060456181
REM
CELL 1.54180   50.00000   50.00000   50.00000   90.00000   90.00000   90.00000
LATT -1
SFAC C  
C      1  0.6090280000000  0.4913060000000  0.4433150000000 1.0
C      1  0.4179870000000  0.5596030000000  0.5854060000000 1.0
C      1  0.4819800000000  0.6220090000000  0.6022140000000 1.0
C      1  0.3800960000000  0.5277630000000  0.4997720000000 1.0
C      1  0.4772800000000  0.4282580000000  0.5174250000000 1.0
C      1  0.5471010000000  0.5003540000000  0.3785920000000 1.0
C      1  0.6020770000000  0.5384070000000  0.4666970000000 1.0
C      1  0.4755980000000  0.5472740000000  0.4796720000000 1.0
C      1  0.5172500000000  0.6133680000000  0.5207950000000 1.0
C      1  0.4843520000000  0.4408680000000  0.4923390000000 1.0
C      1  0.4792630000000  0.5966840000000  0.6103060000000 1.0
C      1  0.4408090000000  0.3997490000000  0.5067940000000 1.0
C      1  0.4557810000000  0.5522730000000  0.5432310000000 1.0
C      1  0.4952870000000  0.3920250000000  0.4065120000000 1.0
C      1  0.6022460000000  0.4535400000000  0.4989480000000 1.0
C      1  0.4079070000000  0.5118830000000  0.6001310000000 1.0
C      1  0.5710480000000  0.4714270000000  0.5855850000000 1.0
C      1  0.4058390000000  0.4454400000000  0.5488540000000 1.0
C      1  0.4624240000000  0.3828710000000  0.4968870000000 1.0
C      1  0.5360880000000  0.3919970000000  0.5410110000000 1.0
C      1  0.4376130000000  0.5934330000000  0.4909750000000 1.0
C      1  0.4097930000000  0.4354760000000  0.4492370000000 1.0
C      1  0.4770750000000  0.5130560000000  0.5593370000000 1.0
C      1  0.5581700000000  0.5653360000000  0.5711510000000 1.0
C      1  0.4242540000000  0.5840630000000  0.4667680000000 1.0
C      1  0.5436510000000  0.4772440000000  0.5791450000000 1.0
C      1  0.6228380000000  0.4614370000000  0.4812040000000 1.0
C      1  0.5393680000000  0.4203660000000  0.4913330000000 1.0
C      1  0.5528220000000  0.4932370000000  0.4704720000000 1.0
C      1  0.4978300000000  0.5345430000000  0.3976850000000 1.0
C      1  0.5187620000000  0.5834200000000  0.5246680000000 1.0
C      1  0.4244150000000  0.5159320000000  0.5322430000000 1.0
C      1  0.4875140000000  0.3784320000000  0.5129900000000 1.0
C      1  0.5665910000000  0.4267330000000  0.4924390000000 1.0
C      1  0.4399670000000  0.5801140000000  0.4415060000000 1.0
C      1  0.4878760000000  0.3896510000000  0.5597880000000 1.0
C      1  0.4526880000000  0.4960700000000  0.4416010000000 1.0
C      1  0.4941760000000  0.5035100000000  0.4958340000000 1.0
C      1  0.4523570000000  0.4164280000000  0.5259920000000 1.0
C      1  0.3949490000000  0.5523190000000  0.4958800000000 1.0
C      1  0.5128850000000  0.5409270000000  0.6200000000000 1.0
C      1  0.5635110000000  0.4983120000000  0.4239180000000 1.0
C      1  0.5892400000000  0.5079010000000  0.4309310000000 1.0
C      1  0.4726250000000  0.5759730000000  0.5420240000000 1.0
C      1  0.4011920000000  0.5638000000000  0.4691640000000 1.0
C      1  0.4186380000000  0.4872490000000  0.5961520000000 1.0
C      1  0.5479120000000  0.5834690000000  0.4691420000000 1.0
C      1  0.4779120000000  0.6339980000000  0.5785640000000 1.0
C      1  0.5905700000000  0.5715660000000  0.5039920000000 1.0
C      1  0.4647300000000  0.3843900000000  0.4685530000000 1.0
C      1  0.4950270000000  0.4783820000000  0.4244210000000 1.0
C      1  0.5467610000000  0.5197860000000  0.4791460000000 1.0
C      1  0.4665330000000  0.5957310000000  0.4884440000000 1.0
C      1  0.5920400000000  0.4580410000000  0.5439380000000 1.0
C      1  0.6183460000000  0.4897240000000  0.4710290000000 1.0
C      1  0.5067920000000  0.6275260000000  0.4777050000000 1.0
C      1  0.4472270000000  0.4884500000000  0.4687760000000 1.0
C      1  0.6329500000000  0.4345470000000  0.4738780000000 1.0
C      1  0.5038740000000  0.4959670000000  0.4462940000000 1.0
C      1  0.5295860000000  0.4349530000000  0.5136960000000 1.0
C      1  0.5086410000000  0.5450260000000  0.5553900000000 1.0
C      1  0.4237660000000  0.5870360000000  0.5162300000000 1.0
C      1  0.5101890000000  0.5723260000000  0.4969840000000 1.0
C      1  0.4458070000000  0.4818960000000  0.5881940000000 1.0
C      1  0.4315990000000  0.5427790000000  0.5306270000000 1.0
C      1  0.5007600000000  0.4862810000000  0.4735710000000 1.0
C      1  0.5522800000000  0.5419940000000  0.5547760000000 1.0
C      1  0.5004710000000  0.5698360000000  0.5437100000000 1.0
C      1  0.5683040000000  0.3924940000000  0.5250880000000 1.0
C      1  0.4317690000000  0.4421970000000  0.5604870000000 1.0
C      1  0.4467820000000  0.5127890000000  0.4834190000000 1.0
C      1  0.5175350000000  0.3984780000000  0.4225550000000 1.0
C      1  0.6066440000000  0.5042140000000  0.5342400000000 1.0
C      1  0.6124730000000  0.5170100000000  0.4848340000000 1.0
C      1  0.5258680000000  0.5634680000000  0.6124290000000 1.0
C      1  0.5319430000000  0.4300370000000  0.5811410000000 1.0
C      1  0.5491620000000  0.4540290000000  0.3896820000000 1.0
C      1  0.4650910000000  0.5001900000000  0.6024950000000 1.0
C      1  0.5837180000000  0.4520250000000  0.5697610000000 1.0
C      1  0.4657240000000  0.4423860000000  0.4486310000000 1.0
C      1  0.5566250000000  0.5299120000000  0.5031920000000 1.0
C      1  0.5428220000000  0.5721890000000  0.5935560000000 1.0
C      1  0.4068740000000  0.4612830000000  0.4365350000000 1.0
C      1  0.5138740000000  0.3973980000000  0.4509560000000 1.0
C      1  0.5045270000000  0.4579610000000  0.4776710000000 1.0
C      1  0.4644520000000  0.5220090000000  0.4395060000000 1.0
C      1  0.4503050000000  0.5074020000000  0.3959210000000 1.0
C      1  0.4436320000000  0.4749060000000  0.5148530000000 1.0
C      1  0.5019080000000  0.4652560000000  0.6022200000000 1.0
C      1  0.4876940000000  0.5612200000000  0.3954850000000 1.0
C      1  0.5257920000000  0.4571870000000  0.5886180000000 1.0
C      1  0.6005320000000  0.5563850000000  0.5530990000000 1.0
C      1  0.4267560000000  0.5242850000000  0.3945820000000 1.0
C      1  0.3909060000000  0.4852310000000  0.4435120000000 1.0
C      1  0.4796740000000  0.5115640000000  0.3929850000000 1.0
C      1  0.6036100000000  0.5527610000000  0.5234060000000 1.0
C      1  0.5677160000000  0.5556020000000  0.4346700000000 1.0
C      1  0.5056250000000  0.3840840000000  0.5361940000000 1.0
C      1  0.4026570000000  0.5136320000000  0.4056530000000 1.0
C      1  0.4676670000000  0.4070860000000  0.5714250000000 1.0
C      1  0.4603230000000  0.4741480000000  0.5383790000000 1.0
C      1  0.4301410000000  0.5947830000000  0.5437080000000 1.0
C      1  0.5713520000000  0.5732770000000  0.4576240000000 1.0
C      1  0.5604460000000  0.5372730000000  0.5283780000000 1.0
C      1  0.4432250000000  0.3954630000000  0.4519320000000 1.0
C      1  0.5222910000000  0.4448880000000  0.4588310000000 1.0
C      1  0.5482950000000  0.5812620000000  0.5287660000000 1.0
C      1  0.4141510000000  0.5600860000000  0.5158890000000 1.0
C      1  0.6142530000000  0.4919750000000  0.5825980000000 1.0
C      1  0.4224320000000  0.4130660000000  0.4628130000000 1.0
C      1  0.5515540000000  0.4820820000000  0.4439900000000 1.0
C      1  0.5399810000000  0.4563300000000  0.4389750000000 1.0
C      1  0.4834140000000  0.4440450000000  0.6060630000000 1.0
C      1  0.5387330000000  0.4142530000000  0.4136600000000 1.0
C      1  0.6142240000000  0.5107130000000  0.5611130000000 1.0
C      1  0.5284980000000  0.4562200000000  0.5318410000000 1.0
C      1  0.4730920000000  0.5438620000000  0.4520360000000 1.0
C      1  0.5080080000000  0.4742800000000  0.3766510000000 1.0
C      1  0.4415380000000  0.5682010000000  0.3817450000000 1.0
C      1  0.4825490000000  0.5717810000000  0.4906410000000 1.0
C      1  0.5378230000000  0.4091910000000  0.5648570000000 1.0
C      1  0.4582360000000  0.6000850000000  0.5461440000000 1.0
C      1  0.5920150000000  0.5639120000000  0.4761790000000 1.0
C      1  0.3417750000000  0.4748280000000  0.4630230000000 1.0
C      1  0.5283490000000  0.6209160000000  0.4952160000000 1.0
C      1  0.5762230000000  0.4528130000000  0.4862000000000 1.0
C      1  0.6239060000000  0.4090470000000  0.4815630000000 1.0
C      1  0.5886100000000  0.3775190000000  0.5096540000000 1.0
C      1  0.5887890000000  0.5346520000000  0.4402010000000 1.0
C      1  0.5486430000000  0.5160780000000  0.6050810000000 1.0
C      1  0.4743800000000  0.5716260000000  0.6028600000000 1.0
C      1  0.4734160000000  0.4215520000000  0.5951730000000 1.0
C      1  0.4677860000000  0.5474480000000  0.5911320000000 1.0
C      1  0.4244290000000  0.5349160000000  0.5999770000000 1.0
C      1  0.4190950000000  0.4118370000000  0.4916060000000 1.0
C      1  0.5351400000000  0.4974370000000  0.5592900000000 1.0
C      1  0.5164120000000  0.5219830000000  0.4427780000000 1.0
C      1  0.4187300000000  0.5801040000000  0.5668610000000 1.0
C      1  0.4684880000000  0.3909570000000  0.4072990000000 1.0
C      1  0.5186950000000  0.5140120000000  0.6111020000000 1.0
C      1  0.5294830000000  0.5261240000000  0.5605820000000 1.0
C      1  0.5274050000000  0.5640210000000  0.4754450000000 1.0
C      1  0.4610990000000  0.4451800000000  0.4763370000000 1.0
C      1  0.5471080000000  0.5116840000000  0.4043690000000 1.0
C      1  0.4476240000000  0.3927270000000  0.4241210000000 1.0
C      1  0.5203580000000  0.5789960000000  0.4244320000000 1.0
C      1  0.4680360000000  0.5693120000000  0.3772120000000 1.0
C      1  0.4810580000000  0.6185570000000  0.4793320000000 1.0
C      1  0.4672140000000  0.5861750000000  0.4323340000000 1.0
C      1  0.5833880000000  0.5762290000000  0.5640890000000 1.0
C      1  0.4467280000000  0.4668970000000  0.4866330000000 1.0
C      1  0.5034880000000  0.4562800000000  0.5453590000000 1.0
C      1  0.5680950000000  0.5899540000000  0.5099170000000 1.0
C      1  0.3951330000000  0.4799560000000  0.5155730000000 1.0
C      1  0.4256400000000  0.5578660000000  0.4284170000000 1.0
C      1  0.4101310000000  0.5405070000000  0.4499220000000 1.0
C      1  0.5772580000000  0.4190540000000  0.5187710000000 1.0
C      1  0.5361840000000  0.4744760000000  0.3753980000000 1.0
C      1  0.4916270000000  0.4321930000000  0.5410120000000 1.0
C      1  0.4446110000000  0.4867490000000  0.4160340000000 1.0
C      1  0.5884460000000  0.4914600000000  0.5951820000000 1.0
C      1  0.5862920000000  0.4841860000000  0.5327240000000 1.0
C      1  0.4208940000000  0.4909500000000  0.5205660000000 1.0
C      1  0.4879100000000  0.4787110000000  0.5374010000000 1.0
C      1  0.4920420000000  0.5784290000000  0.4183840000000 1.0
C      1  0.6102280000000  0.5244240000000  0.5136160000000 1.0
C      1  0.5054130000000  0.4956510000000  0.5206050000000 1.0
C      1  0.4666990000000  0.5373940000000  0.5644810000000 1.0
C      1  0.5405820000000  0.5576870000000  0.4216530000000 1.0
C      1  0.3659990000000  0.4810480000000  0.4556710000000 1.0
C      1  0.3973490000000  0.5120620000000  0.4335320000000 1.0
C      1  0.5617210000000  0.4858360000000  0.5177250000000 1.0
C      1  0.5994470000000  0.5333250000000  0.5707880000000 1.0
C      1  0.4291600000000  0.5518200000000  0.4007740000000 1.0
C      1  0.6088980000000  0.3890750000000  0.4937790000000 1.0
C      1  0.5518840000000  0.6043390000000  0.4887530000000 1.0
C      1  0.4935830000000  0.4868120000000  0.3971530000000 1.0
C      1  0.5345940000000  0.4861480000000  0.5304700000000 1.0
C      1  0.5763640000000  0.5175110000000  0.5948530000000 1.0
C      1  0.4471610000000  0.4186600000000  0.5539990000000 1.0
C      1  0.5622880000000  0.4766220000000  0.4906630000000 1.0
C      1  0.4722540000000  0.5221920000000  0.4927000000000 1.0
C      1  0.5451280000000  0.4415790000000  0.4145840000000 1.0
C      1  0.4477190000000  0.4664140000000  0.5636730000000 1.0
C      1  0.4953430000000  0.4939060000000  0.6063930000000 1.0
C      1  0.4529020000000  0.5276080000000  0.6054700000000 1.0
C      1  0.3780540000000  0.5011360000000  0.5062230000000 1.0
C      1  0.4006860000000  0.4302380000000  0.5037800000000 1.0
C      1  0.4815250000000  0.4542200000000  0.4304980000000 1.0
C      1  0.5262900000000  0.4174660000000  0.4666350000000 1.0
C      1  0.5972420000000  0.4393300000000  0.5239470000000 1.0
C      1  0.3956040000000  0.4513570000000  0.5224640000000 1.0
C      1  0.4256040000000  0.4663300000000  0.4156930000000 1.0
C      1  0.4912690000000  0.3833150000000  0.4594410000000 1.0
C      1  0.5283110000000  0.5363430000000  0.4652590000000 1.0
C      1  0.4269640000000  0.5271170000000  0.4705520000000 1.0
C      1  0.5258180000000  0.5308580000000  0.4145360000000 1.0
C      1  0.4685430000000  0.6241740000000  0.5554760000000 1.0
END
