TITL C-3866673-4222-716 0.0445887825265609 125000 -575.515860979333 0 0 96 (C1) n - 1
REM
REM in /home/nfs/bkarasulu/CARBON/AIRSS/Generating-Clusters/LCBOP/Only-C1/SD-CG/FIRE-CG
REM
REM
REM
REM
REM
REM ./C.cell (11c1c37f851c82e70ff6c80c92926a4b)
REM AIRSS Version 0.9.1 bugfix July 2018 build 013d7b7c2542+ Fri, 06 Jul 2018 19:26:36 +0100
REM compiler GCC version 9.2.1 20190827 (Red Hat 9.2.1-1)
REM options -cpp -mtune=generic -march=x86-64 -g -O0 -fpre-include=/usr/include/finclude/math-vector-fortran.h
REM seed 246306567 -1223996950 2135939229 786535699 867204430 -1698588752 1318269344 -2103625719 -1802071880 174059520 576687113 1954483055 -1530215098 1425530932 809121442 1935770451 -1556572934 1889773740 -1666893438 -607401584 -542370217 -141958664 -1343224554 1664065136 -780996244 28526520 -885170108 617478822 2030231997 919887338 -2076216860 868843573 1272446976
REM
CELL 1.54180   50.00000   50.00000   50.00000   90.00000   90.00000   90.00000
LATT -1
SFAC C  
C      1  0.5689880000000  0.4609360000000  0.5483420000000 1.0
C      1  0.4856720000000  0.5810770000000  0.5393880000000 1.0
C      1  0.4303250000000  0.5197320000000  0.4489570000000 1.0
C      1  0.4777080000000  0.4070030000000  0.4464270000000 1.0
C      1  0.5464060000000  0.4977170000000  0.4227880000000 1.0
C      1  0.5159360000000  0.5593230000000  0.4235010000000 1.0
C      1  0.4704150000000  0.4113450000000  0.5111070000000 1.0
C      1  0.5700430000000  0.4343050000000  0.5055710000000 1.0
C      1  0.5309730000000  0.4704410000000  0.6134930000000 1.0
C      1  0.4724070000000  0.4294180000000  0.4892190000000 1.0
C      1  0.4147850000000  0.4931140000000  0.5416780000000 1.0
C      1  0.5314040000000  0.4869060000000  0.5099540000000 1.0
C      1  0.5393800000000  0.5315090000000  0.4980760000000 1.0
C      1  0.4891810000000  0.4216190000000  0.4673740000000 1.0
C      1  0.5079190000000  0.5666770000000  0.4865890000000 1.0
C      1  0.4670570000000  0.5821330000000  0.5181860000000 1.0
C      1  0.5715280000000  0.4873900000000  0.5375930000000 1.0
C      1  0.5097200000000  0.4673530000000  0.4143220000000 1.0
C      1  0.4476850000000  0.3956490000000  0.5147440000000 1.0
C      1  0.5956540000000  0.5001710000000  0.5329650000000 1.0
C      1  0.5366250000000  0.4711040000000  0.4219060000000 1.0
C      1  0.4785730000000  0.5008930000000  0.4822120000000 1.0
C      1  0.4726900000000  0.4989870000000  0.5888860000000 1.0
C      1  0.4962390000000  0.5302840000000  0.5188640000000 1.0
C      1  0.4212290000000  0.4734630000000  0.5227560000000 1.0
C      1  0.4567680000000  0.5203970000000  0.4050630000000 1.0
C      1  0.4145880000000  0.4975190000000  0.4092330000000 1.0
C      1  0.3886900000000  0.4984740000000  0.5478610000000 1.0
C      1  0.4495700000000  0.5572160000000  0.5622990000000 1.0
C      1  0.4257630000000  0.3818630000000  0.5176510000000 1.0
C      1  0.5624200000000  0.5469320000000  0.4949570000000 1.0
C      1  0.5483920000000  0.4506440000000  0.4371860000000 1.0
C      1  0.5044470000000  0.5797530000000  0.4398980000000 1.0
C      1  0.4348530000000  0.5349960000000  0.5586790000000 1.0
C      1  0.5243580000000  0.6217830000000  0.5841710000000 1.0
C      1  0.5513360000000  0.4021770000000  0.4424410000000 1.0
C      1  0.4658000000000  0.5810490000000  0.4704950000000 1.0
C      1  0.5262260000000  0.4059120000000  0.5619610000000 1.0
C      1  0.4849890000000  0.4669420000000  0.4244080000000 1.0
C      1  0.5459500000000  0.4984260000000  0.5322530000000 1.0
C      1  0.4921870000000  0.4097600000000  0.5284590000000 1.0
C      1  0.4341190000000  0.5127490000000  0.4212290000000 1.0
C      1  0.5149180000000  0.5452500000000  0.5030090000000 1.0
C      1  0.4727130000000  0.4695050000000  0.5527470000000 1.0
C      1  0.5043590000000  0.4704060000000  0.6173810000000 1.0
C      1  0.4834000000000  0.4738780000000  0.5993420000000 1.0
C      1  0.5550020000000  0.3796520000000  0.4298910000000 1.0
C      1  0.4854560000000  0.5241170000000  0.5895550000000 1.0
C      1  0.4362700000000  0.4591050000000  0.5062440000000 1.0
C      1  0.4586130000000  0.4544550000000  0.4900750000000 1.0
C      1  0.4943680000000  0.5808630000000  0.4665640000000 1.0
C      1  0.5625480000000  0.4610280000000  0.5760070000000 1.0
C      1  0.5453560000000  0.4278200000000  0.4565070000000 1.0
C      1  0.4675020000000  0.3945260000000  0.4254060000000 1.0
C      1  0.5159940000000  0.4186590000000  0.5400110000000 1.0
C      1  0.4528290000000  0.5722140000000  0.4472410000000 1.0
C      1  0.4637280000000  0.5497620000000  0.4371630000000 1.0
C      1  0.5167640000000  0.4270980000000  0.4664880000000 1.0
C      1  0.5155280000000  0.5557770000000  0.3753730000000 1.0
C      1  0.5590550000000  0.5710000000000  0.4801040000000 1.0
C      1  0.5547580000000  0.5648840000000  0.4524060000000 1.0
C      1  0.4774570000000  0.5623880000000  0.5597280000000 1.0
C      1  0.5302360000000  0.5109620000000  0.5523870000000 1.0
C      1  0.4895540000000  0.4689360000000  0.5303890000000 1.0
C      1  0.5373520000000  0.5024430000000  0.5783850000000 1.0
C      1  0.5641060000000  0.4310070000000  0.4797170000000 1.0
C      1  0.4802050000000  0.5323710000000  0.3981240000000 1.0
C      1  0.4588010000000  0.4930900000000  0.5633870000000 1.0
C      1  0.6179900000000  0.5126650000000  0.5280630000000 1.0
C      1  0.5152650000000  0.4647370000000  0.5192430000000 1.0
C      1  0.5390090000000  0.5469960000000  0.4360540000000 1.0
C      1  0.5472610000000  0.5918110000000  0.4961550000000 1.0
C      1  0.4577720000000  0.5687510000000  0.4952970000000 1.0
C      1  0.5296350000000  0.5967090000000  0.5164370000000 1.0
C      1  0.4931740000000  0.5398070000000  0.5671500000000 1.0
C      1  0.5304210000000  0.6338330000000  0.6064790000000 1.0
C      1  0.5109760000000  0.5952870000000  0.5383600000000 1.0
C      1  0.4801940000000  0.4554940000000  0.5770650000000 1.0
C      1  0.5224930000000  0.5085210000000  0.4621780000000 1.0
C      1  0.4523680000000  0.5399500000000  0.4941600000000 1.0
C      1  0.4697210000000  0.4700800000000  0.4460740000000 1.0
C      1  0.4344230000000  0.5295120000000  0.4740150000000 1.0
C      1  0.4731690000000  0.5209250000000  0.5029980000000 1.0
C      1  0.4677740000000  0.4757020000000  0.4738350000000 1.0
C      1  0.5578330000000  0.4424860000000  0.5294910000000 1.0
C      1  0.5063920000000  0.5259380000000  0.5459080000000 1.0
C      1  0.5181250000000  0.6094400000000  0.5615730000000 1.0
C      1  0.4359430000000  0.5071020000000  0.5545680000000 1.0
C      1  0.5339140000000  0.5050440000000  0.4880260000000 1.0
C      1  0.5036770000000  0.5490170000000  0.3992990000000 1.0
C      1  0.5459120000000  0.4784310000000  0.5911070000000 1.0
C      1  0.4576110000000  0.3825930000000  0.4044460000000 1.0
C      1  0.5291620000000  0.4412780000000  0.5289640000000 1.0
C      1  0.5382230000000  0.5183800000000  0.4401410000000 1.0
C      1  0.4811400000000  0.5306020000000  0.4448000000000 1.0
C      1  0.4945550000000  0.5125660000000  0.4613400000000 1.0
END
