TITL C-3866670-4165-263 -3.26395472011149e-07 125000 -511.197473987798 0 0 84 (C1) n - 1
REM
REM in /home/nfs/bkarasulu/CARBON/AIRSS/Generating-Clusters/LCBOP/Only-C1/SD-CG/HFTN-CG/FIRE-CG
REM
REM
REM
REM
REM
REM ./C.cell (11c1c37f851c82e70ff6c80c92926a4b)
REM AIRSS Version 0.9.1 bugfix July 2018 build 013d7b7c2542+ Fri, 06 Jul 2018 19:26:36 +0100
REM compiler GCC version 9.2.1 20190827 (Red Hat 9.2.1-1)
REM options -cpp -mtune=generic -march=x86-64 -g -O0 -fpre-include=/usr/include/finclude/math-vector-fortran.h
REM seed 466308561 494875195 1695266594 -132478095 -1968848170 758480613 1853267136 881660172 14586965 -803074247 -1109645986 1607905201 -1848538545 -1981115256 1196580426 1125777279 -295325371 -539669893 -30008673 -5317382 -1775054766 498687769 -172848533 1144463149 -1677163221 -1168792410 -442184701 -962828041 -513980679 754109015 -1023999588 -522973075 418684856
REM
CELL 1.54180   50.00000   50.00000   50.00000   90.00000   90.00000   90.00000
LATT -1
SFAC C  
C      1  0.5173920000000  0.4373970000000  0.4374040000000 1.0
C      1  0.5123730000000  0.5292880000000  0.6255920000000 1.0
C      1  0.5225420000000  0.4243700000000  0.4635860000000 1.0
C      1  0.4757090000000  0.5008590000000  0.5467130000000 1.0
C      1  0.4819790000000  0.5001860000000  0.5190070000000 1.0
C      1  0.5077030000000  0.4941310000000  0.4630850000000 1.0
C      1  0.5783310000000  0.4677400000000  0.5343550000000 1.0
C      1  0.4950760000000  0.5451880000000  0.5053960000000 1.0
C      1  0.4214710000000  0.4771670000000  0.5057510000000 1.0
C      1  0.5394500000000  0.5485830000000  0.5397320000000 1.0
C      1  0.4873520000000  0.4610600000000  0.4899520000000 1.0
C      1  0.5419980000000  0.4450730000000  0.4248280000000 1.0
C      1  0.5640760000000  0.5696540000000  0.5031650000000 1.0
C      1  0.4786020000000  0.5010170000000  0.4193960000000 1.0
C      1  0.4420230000000  0.4773880000000  0.4869140000000 1.0
C      1  0.4773960000000  0.5740330000000  0.5430460000000 1.0
C      1  0.4415070000000  0.5699340000000  0.4512430000000 1.0
C      1  0.5017210000000  0.4175010000000  0.4828950000000 1.0
C      1  0.5741050000000  0.5036310000000  0.4880740000000 1.0
C      1  0.5728070000000  0.5064570000000  0.4249130000000 1.0
C      1  0.4376450000000  0.5813350000000  0.5162310000000 1.0
C      1  0.5606480000000  0.4613920000000  0.4391450000000 1.0
C      1  0.5202320000000  0.4384240000000  0.5487860000000 1.0
C      1  0.4480790000000  0.4358330000000  0.5395990000000 1.0
C      1  0.4282480000000  0.5612680000000  0.4747840000000 1.0
C      1  0.4120330000000  0.5027540000000  0.5442690000000 1.0
C      1  0.4835050000000  0.5257940000000  0.5592020000000 1.0
C      1  0.5068900000000  0.4099620000000  0.5101540000000 1.0
C      1  0.5344120000000  0.5260220000000  0.5568600000000 1.0
C      1  0.4676160000000  0.5281010000000  0.4722410000000 1.0
C      1  0.4044590000000  0.5377870000000  0.5114890000000 1.0
C      1  0.5106600000000  0.5282090000000  0.5996120000000 1.0
C      1  0.4692640000000  0.5469070000000  0.4936270000000 1.0
C      1  0.4518650000000  0.4328520000000  0.4753910000000 1.0
C      1  0.5354760000000  0.4704610000000  0.4956020000000 1.0
C      1  0.5029230000000  0.5190630000000  0.5126030000000 1.0
C      1  0.4812060000000  0.5281130000000  0.4222550000000 1.0
C      1  0.4745450000000  0.4732710000000  0.4267970000000 1.0
C      1  0.5354410000000  0.4594730000000  0.5551450000000 1.0
C      1  0.5993900000000  0.4840930000000  0.5227690000000 1.0
C      1  0.4421570000000  0.4581760000000  0.4653070000000 1.0
C      1  0.5094420000000  0.5266240000000  0.5716830000000 1.0
C      1  0.4810830000000  0.5037610000000  0.4713530000000 1.0
C      1  0.5010700000000  0.4227830000000  0.5352250000000 1.0
C      1  0.4807070000000  0.5993210000000  0.4965220000000 1.0
C      1  0.4389850000000  0.5429370000000  0.5480280000000 1.0
C      1  0.4619700000000  0.4792930000000  0.5580970000000 1.0
C      1  0.5808570000000  0.5294750000000  0.4800840000000 1.0
C      1  0.4873360000000  0.5532750000000  0.4346410000000 1.0
C      1  0.4416790000000  0.4628710000000  0.5470470000000 1.0
C      1  0.4701380000000  0.4853400000000  0.4946740000000 1.0
C      1  0.5874700000000  0.4573700000000  0.4859520000000 1.0
C      1  0.4742090000000  0.4257050000000  0.5436130000000 1.0
C      1  0.5482000000000  0.4316580000000  0.4753330000000 1.0
C      1  0.4946440000000  0.4526310000000  0.4286320000000 1.0
C      1  0.5300280000000  0.5135130000000  0.5095250000000 1.0
C      1  0.4170170000000  0.5293770000000  0.5358080000000 1.0
C      1  0.5798940000000  0.5552150000000  0.4870600000000 1.0
C      1  0.5547650000000  0.5052210000000  0.5611490000000 1.0
C      1  0.5734470000000  0.4483960000000  0.5120810000000 1.0
C      1  0.4668130000000  0.5488030000000  0.5524010000000 1.0
C      1  0.5564260000000  0.4779410000000  0.5506380000000 1.0
C      1  0.4862730000000  0.5878680000000  0.4706170000000 1.0
C      1  0.5293990000000  0.4989150000000  0.4457420000000 1.0
C      1  0.5549680000000  0.4895560000000  0.4369180000000 1.0
C      1  0.5167400000000  0.5622220000000  0.4974740000000 1.0
C      1  0.4699780000000  0.5737630000000  0.4486810000000 1.0
C      1  0.5754250000000  0.5125130000000  0.5781580000000 1.0
C      1  0.5481870000000  0.4959150000000  0.4982100000000 1.0
C      1  0.4211380000000  0.4781580000000  0.5338500000000 1.0
C      1  0.4328160000000  0.4219990000000  0.5201690000000 1.0
C      1  0.4499080000000  0.4665710000000  0.4395250000000 1.0
C      1  0.5121860000000  0.5731310000000  0.4713760000000 1.0
C      1  0.4466490000000  0.5637960000000  0.4971240000000 1.0
C      1  0.4060740000000  0.5472480000000  0.4859230000000 1.0
C      1  0.5135030000000  0.5579430000000  0.4469690000000 1.0
C      1  0.4355200000000  0.4186870000000  0.4935140000000 1.0
C      1  0.5948240000000  0.4848100000000  0.4938380000000 1.0
C      1  0.4815170000000  0.5925100000000  0.5232000000000 1.0
C      1  0.5469700000000  0.4449690000000  0.5015150000000 1.0
C      1  0.5119420000000  0.4717070000000  0.4809890000000 1.0
C      1  0.5705610000000  0.4481390000000  0.4629130000000 1.0
C      1  0.5394340000000  0.5630550000000  0.5149890000000 1.0
C      1  0.4794980000000  0.4350720000000  0.4818470000000 1.0
END
