TITL C-3866675-3766-673 -0.00681609313898578 125000 -160.252402063915 0 0 28 (C1) n - 1
REM
REM in /home/nfs/bkarasulu/CARBON/AIRSS/Generating-Clusters/LCBOP/Only-C1/SD-CG/FIRE-CG
REM
REM
REM
REM
REM
REM ./C.cell (11c1c37f851c82e70ff6c80c92926a4b)
REM AIRSS Version 0.9.1 bugfix July 2018 build 013d7b7c2542+ Fri, 06 Jul 2018 19:26:36 +0100
REM compiler GCC version 9.2.1 20190827 (Red Hat 9.2.1-1)
REM options -cpp -mtune=generic -march=x86-64 -g -O0 -fpre-include=/usr/include/finclude/math-vector-fortran.h
REM seed 896835383 2120474271 1925619954 -1751748267 318156616 -391744855 1475278860 808551933 -2023608246 1319881639 -1149438151 575244264 -676628710 -2034168026 -2106626721 293736354 711638414 1212477450 -249749330 154940447 -981845157 -133943970 -190459191 -1849555869 -354280498 410240978 -682149423 -229775625 787190160 -332119850 -1767302302 1736563663 -385387466
REM
CELL 1.54180   50.00000   50.00000   50.00000   90.00000   90.00000   90.00000
LATT -1
SFAC C  
C      1  0.5029080000000  0.4450700000000  0.4724720000000 1.0
C      1  0.5766240000000  0.4450570000000  0.4872290000000 1.0
C      1  0.4844830000000  0.5269020000000  0.4984520000000 1.0
C      1  0.5329460000000  0.5161550000000  0.5234310000000 1.0
C      1  0.5827970000000  0.5735670000000  0.5986520000000 1.0
C      1  0.4064610000000  0.3940020000000  0.4873040000000 1.0
C      1  0.5854760000000  0.4662970000000  0.5013500000000 1.0
C      1  0.4152030000000  0.6408950000000  0.5034320000000 1.0
C      1  0.4614590000000  0.4407010000000  0.4214520000000 1.0
C      1  0.4781510000000  0.4553750000000  0.4643410000000 1.0
C      1  0.4424760000000  0.5959890000000  0.5014560000000 1.0
C      1  0.4602450000000  0.4398780000000  0.4487710000000 1.0
C      1  0.4413920000000  0.4237960000000  0.4617100000000 1.0
C      1  0.5441170000000  0.4916110000000  0.5148830000000 1.0
C      1  0.4562220000000  0.5733550000000  0.5004600000000 1.0
C      1  0.5704700000000  0.5596900000000  0.5803460000000 1.0
C      1  0.4716740000000  0.4814950000000  0.4721530000000 1.0
C      1  0.5455010000000  0.5314230000000  0.5431200000000 1.0
C      1  0.4746480000000  0.5051290000000  0.4838610000000 1.0
C      1  0.5266360000000  0.4498690000000  0.4862250000000 1.0
C      1  0.5088630000000  0.5247950000000  0.5120290000000 1.0
C      1  0.5718480000000  0.4863290000000  0.5132570000000 1.0
C      1  0.4287260000000  0.6186280000000  0.5024520000000 1.0
C      1  0.4237750000000  0.4087700000000  0.4745850000000 1.0
C      1  0.4699630000000  0.5507320000000  0.4994660000000 1.0
C      1  0.5579390000000  0.5455800000000  0.5617330000000 1.0
C      1  0.5514870000000  0.4376600000000  0.4807150000000 1.0
C      1  0.5275080000000  0.4712480000000  0.5046600000000 1.0
END
