TITL C-3866670-4165-161 0.382642229777952 125000 -881.466508683507 0 0 145 (C1) n - 1
REM
REM in /home/nfs/bkarasulu/CARBON/AIRSS/Generating-Clusters/LCBOP/Only-C1/SD-CG/HFTN-CG/FIRE-CG
REM
REM
REM
REM
REM
REM ./C.cell (11c1c37f851c82e70ff6c80c92926a4b)
REM AIRSS Version 0.9.1 bugfix July 2018 build 013d7b7c2542+ Fri, 06 Jul 2018 19:26:36 +0100
REM compiler GCC version 9.2.1 20190827 (Red Hat 9.2.1-1)
REM options -cpp -mtune=generic -march=x86-64 -g -O0 -fpre-include=/usr/include/finclude/math-vector-fortran.h
REM seed 728219746 1051230904 2064239118 2082132464 -1381905372 -1713404214 1009315018 918927272 45520945 -1855438610 -1912383845 -1241918020 -803794868 1541780515 119518949 1058288977 -1145506495 -2084401105 -142767220 1551352441 1396980739 858584882 -507801319 1930230044 -1276872291 -1877273020 1535917959 163369404 1307031045 1597059370 848856718 -1027018218 6525895
REM
CELL 1.54180   50.00000   50.00000   50.00000   90.00000   90.00000   90.00000
LATT -1
SFAC C  
C      1  0.4567880000000  0.5675660000000  0.6049190000000 1.0
C      1  0.5489680000000  0.5892340000000  0.5352970000000 1.0
C      1  0.5627670000000  0.4050370000000  0.4910670000000 1.0
C      1  0.3895550000000  0.5291140000000  0.5386270000000 1.0
C      1  0.5273970000000  0.4957680000000  0.4817720000000 1.0
C      1  0.5177720000000  0.5008230000000  0.6165960000000 1.0
C      1  0.5560770000000  0.4797380000000  0.3983210000000 1.0
C      1  0.5942270000000  0.4999070000000  0.5553290000000 1.0
C      1  0.4501150000000  0.5850980000000  0.4365680000000 1.0
C      1  0.5881720000000  0.4621920000000  0.4578480000000 1.0
C      1  0.4393730000000  0.5536080000000  0.4008700000000 1.0
C      1  0.5797350000000  0.6439260000000  0.4610570000000 1.0
C      1  0.4453280000000  0.5485630000000  0.5349090000000 1.0
C      1  0.4560020000000  0.6389650000000  0.4375820000000 1.0
C      1  0.5855680000000  0.4777520000000  0.5705910000000 1.0
C      1  0.5787670000000  0.4248600000000  0.5052110000000 1.0
C      1  0.5512200000000  0.4830680000000  0.4259810000000 1.0
C      1  0.5414140000000  0.4608020000000  0.3853640000000 1.0
C      1  0.4367130000000  0.4499910000000  0.5712050000000 1.0
C      1  0.4438740000000  0.4547270000000  0.4350710000000 1.0
C      1  0.5474740000000  0.4582270000000  0.5197970000000 1.0
C      1  0.5608690000000  0.4344580000000  0.5256460000000 1.0
C      1  0.4937000000000  0.3970270000000  0.5341140000000 1.0
C      1  0.5432430000000  0.5344220000000  0.4049670000000 1.0
C      1  0.4149580000000  0.4233850000000  0.5311930000000 1.0
C      1  0.5746370000000  0.5957260000000  0.4824740000000 1.0
C      1  0.6081680000000  0.4516110000000  0.5317470000000 1.0
C      1  0.4067010000000  0.6360780000000  0.5639920000000 1.0
C      1  0.4889370000000  0.5051020000000  0.5769630000000 1.0
C      1  0.4619580000000  0.4968000000000  0.5860610000000 1.0
C      1  0.4840430000000  0.3417630000000  0.4499020000000 1.0
C      1  0.5616430000000  0.4114760000000  0.4126000000000 1.0
C      1  0.4587100000000  0.4318430000000  0.5677870000000 1.0
C      1  0.4004070000000  0.5625160000000  0.4293980000000 1.0
C      1  0.5582230000000  0.5414000000000  0.5315890000000 1.0
C      1  0.4665230000000  0.4752180000000  0.4713160000000 1.0
C      1  0.4813790000000  0.5468760000000  0.4635830000000 1.0
C      1  0.4217930000000  0.6134720000000  0.5615670000000 1.0
C      1  0.5050060000000  0.5605450000000  0.5306810000000 1.0
C      1  0.5071320000000  0.4602710000000  0.4198470000000 1.0
C      1  0.5342420000000  0.4236210000000  0.4594110000000 1.0
C      1  0.5341700000000  0.4199890000000  0.4114620000000 1.0
C      1  0.4530170000000  0.6126470000000  0.4370880000000 1.0
C      1  0.4643300000000  0.4353720000000  0.4320210000000 1.0
C      1  0.5407770000000  0.4533690000000  0.4588540000000 1.0
C      1  0.3971790000000  0.5932380000000  0.5217330000000 1.0
C      1  0.5198120000000  0.4568510000000  0.5159160000000 1.0
C      1  0.5190810000000  0.4561540000000  0.5645330000000 1.0
C      1  0.4950120000000  0.3644520000000  0.4432370000000 1.0
C      1  0.5802200000000  0.5008560000000  0.5313310000000 1.0
C      1  0.4589740000000  0.6648600000000  0.4380420000000 1.0
C      1  0.5060700000000  0.5739290000000  0.4055150000000 1.0
C      1  0.5122190000000  0.6016070000000  0.5706460000000 1.0
C      1  0.5204390000000  0.3900760000000  0.5244560000000 1.0
C      1  0.5188460000000  0.4195850000000  0.4849520000000 1.0
C      1  0.4796020000000  0.4630920000000  0.5370610000000 1.0
C      1  0.5000870000000  0.5569460000000  0.4821090000000 1.0
C      1  0.5608410000000  0.5417840000000  0.4244720000000 1.0
C      1  0.5086810000000  0.5154190000000  0.4305340000000 1.0
C      1  0.5193800000000  0.4863830000000  0.4337590000000 1.0
C      1  0.5177550000000  0.5218090000000  0.4029200000000 1.0
C      1  0.5821500000000  0.6676370000000  0.4504940000000 1.0
C      1  0.4184170000000  0.4691760000000  0.5321600000000 1.0
C      1  0.4160180000000  0.4448990000000  0.5503620000000 1.0
C      1  0.5568470000000  0.3862590000000  0.5861440000000 1.0
C      1  0.4953390000000  0.5685500000000  0.5070350000000 1.0
C      1  0.5587740000000  0.5677770000000  0.5199890000000 1.0
C      1  0.4943500000000  0.5139650000000  0.3880020000000 1.0
C      1  0.4377900000000  0.5698810000000  0.4571840000000 1.0
C      1  0.4376940000000  0.5336070000000  0.5127590000000 1.0
C      1  0.3958270000000  0.5628580000000  0.3812010000000 1.0
C      1  0.5337340000000  0.5211400000000  0.4844720000000 1.0
C      1  0.4415650000000  0.6067970000000  0.5805540000000 1.0
C      1  0.3822600000000  0.5477440000000  0.5208760000000 1.0
C      1  0.4515700000000  0.5156230000000  0.6048780000000 1.0
C      1  0.5506820000000  0.4360080000000  0.5958850000000 1.0
C      1  0.5196740000000  0.4966300000000  0.6426810000000 1.0
C      1  0.5112220000000  0.5385800000000  0.5471180000000 1.0
C      1  0.4420380000000  0.4799630000000  0.5726140000000 1.0
C      1  0.4513870000000  0.5419230000000  0.6101190000000 1.0
C      1  0.5993150000000  0.4555350000000  0.5576080000000 1.0
C      1  0.4891630000000  0.5974440000000  0.5834150000000 1.0
C      1  0.4535980000000  0.4797790000000  0.4450570000000 1.0
C      1  0.4063570000000  0.5123410000000  0.5509380000000 1.0
C      1  0.4592260000000  0.5683900000000  0.4154130000000 1.0
C      1  0.5773110000000  0.5248210000000  0.5187430000000 1.0
C      1  0.5255480000000  0.5458600000000  0.4796460000000 1.0
C      1  0.4239190000000  0.4905380000000  0.5511690000000 1.0
C      1  0.4415140000000  0.5319030000000  0.4866380000000 1.0
C      1  0.4596780000000  0.4107370000000  0.4216340000000 1.0
C      1  0.5329430000000  0.5998680000000  0.5538750000000 1.0
C      1  0.5618780000000  0.4815080000000  0.5230580000000 1.0
C      1  0.3933420000000  0.5702810000000  0.4785750000000 1.0
C      1  0.5785870000000  0.5468430000000  0.4766610000000 1.0
C      1  0.4480510000000  0.5291300000000  0.3899980000000 1.0
C      1  0.4186210000000  0.5954700000000  0.5398510000000 1.0
C      1  0.5705600000000  0.5700950000000  0.4931090000000 1.0
C      1  0.5213350000000  0.4109810000000  0.4354540000000 1.0
C      1  0.5215090000000  0.4921470000000  0.6682960000000 1.0
C      1  0.5612160000000  0.4084140000000  0.4621430000000 1.0
C      1  0.5990040000000  0.4471580000000  0.5043140000000 1.0
C      1  0.5398920000000  0.5058240000000  0.5720470000000 1.0
C      1  0.4895140000000  0.4466460000000  0.4396020000000 1.0
C      1  0.4674640000000  0.5105710000000  0.3988710000000 1.0
C      1  0.4693300000000  0.4375120000000  0.5416800000000 1.0
C      1  0.4610990000000  0.4976880000000  0.4239890000000 1.0
C      1  0.4298630000000  0.4599650000000  0.5060980000000 1.0
C      1  0.4742950000000  0.4156610000000  0.5232950000000 1.0
C      1  0.4540320000000  0.4149190000000  0.5033650000000 1.0
C      1  0.5420040000000  0.4575980000000  0.5805950000000 1.0
C      1  0.4375300000000  0.5749700000000  0.5377460000000 1.0
C      1  0.4882180000000  0.5259840000000  0.5578540000000 1.0
C      1  0.5872850000000  0.5240760000000  0.4920370000000 1.0
C      1  0.4938410000000  0.4599820000000  0.4690150000000 1.0
C      1  0.4701660000000  0.4077660000000  0.5775110000000 1.0
C      1  0.4535240000000  0.5490100000000  0.4683580000000 1.0
C      1  0.3883710000000  0.5711310000000  0.5062700000000 1.0
C      1  0.4093110000000  0.5677740000000  0.4556830000000 1.0
C      1  0.4529430000000  0.4745180000000  0.4966890000000 1.0
C      1  0.5724720000000  0.5452620000000  0.4487080000000 1.0
C      1  0.4689830000000  0.4815280000000  0.5189170000000 1.0
C      1  0.4298890000000  0.4299080000000  0.5067880000000 1.0
C      1  0.5385270000000  0.5286310000000  0.5508930000000 1.0
C      1  0.5567950000000  0.4101900000000  0.5978370000000 1.0
C      1  0.5733770000000  0.4047320000000  0.4366180000000 1.0
C      1  0.4863640000000  0.5594310000000  0.4178880000000 1.0
C      1  0.5574150000000  0.4814800000000  0.5767660000000 1.0
C      1  0.5634480000000  0.4653790000000  0.4454500000000 1.0
C      1  0.5194480000000  0.4757430000000  0.4625230000000 1.0
C      1  0.5492370000000  0.3725550000000  0.5645960000000 1.0
C      1  0.4626780000000  0.5910740000000  0.5905440000000 1.0
C      1  0.5151470000000  0.5032960000000  0.5888290000000 1.0
C      1  0.4918870000000  0.5389100000000  0.4382150000000 1.0
C      1  0.4867580000000  0.3921530000000  0.5619990000000 1.0
C      1  0.5068480000000  0.4624990000000  0.5401960000000 1.0
C      1  0.5058340000000  0.4438310000000  0.4932710000000 1.0
C      1  0.5982170000000  0.4691330000000  0.4836270000000 1.0
C      1  0.5241460000000  0.4449370000000  0.4014300000000 1.0
C      1  0.5058830000000  0.3879340000000  0.4375250000000 1.0
C      1  0.5772780000000  0.6198180000000  0.4717970000000 1.0
C      1  0.5995400000000  0.4983060000000  0.4861920000000 1.0
C      1  0.4636240000000  0.5373350000000  0.5521130000000 1.0
C      1  0.5341200000000  0.4016120000000  0.5019840000000 1.0
C      1  0.5358690000000  0.3738490000000  0.5415880000000 1.0
C      1  0.4114460000000  0.5596260000000  0.4034200000000 1.0
END
