TITL C-3866670-4165-565 0.00344068231284981 125000 -861.232519874085 0 0 141 (C1) n - 1
REM
REM in /home/nfs/bkarasulu/CARBON/AIRSS/Generating-Clusters/LCBOP/Only-C1/SD-CG/FIRE-CG
REM
REM
REM
REM
REM
REM ./C.cell (11c1c37f851c82e70ff6c80c92926a4b)
REM AIRSS Version 0.9.1 bugfix July 2018 build 013d7b7c2542+ Fri, 06 Jul 2018 19:26:36 +0100
REM compiler GCC version 9.2.1 20190827 (Red Hat 9.2.1-1)
REM options -cpp -mtune=generic -march=x86-64 -g -O0 -fpre-include=/usr/include/finclude/math-vector-fortran.h
REM seed 1464181563 389771851 -1852901646 -636985983 2103879981 1850950526 1823774640 929057166 -1569372883 1723667929 -1665360711 1728789487 -1339536785 -172556730 -1595427033 -470909560 -213165788 -632401452 -187619862 1373907303 1816103970 -527578437 510528398 -2018575154 -738401218 -1037361047 1070651621 -280423418 950701355 1223455982 1447488994 31561927 -726397523
REM
CELL 1.54180   50.00000   50.00000   50.00000   90.00000   90.00000   90.00000
LATT -1
SFAC C  
C      1  0.4758740000000  0.4216060000000  0.4588300000000 1.0
C      1  0.4293510000000  0.5786660000000  0.5084040000000 1.0
C      1  0.3752510000000  0.5058780000000  0.4991390000000 1.0
C      1  0.5852450000000  0.4326670000000  0.5266690000000 1.0
C      1  0.4512460000000  0.4811790000000  0.4214770000000 1.0
C      1  0.5638750000000  0.5466280000000  0.5702660000000 1.0
C      1  0.4658740000000  0.4155190000000  0.4852470000000 1.0
C      1  0.4073450000000  0.4162550000000  0.4435380000000 1.0
C      1  0.6090310000000  0.5227500000000  0.4863690000000 1.0
C      1  0.5452340000000  0.4879510000000  0.5811910000000 1.0
C      1  0.5612060000000  0.4877640000000  0.4233970000000 1.0
C      1  0.3849110000000  0.5411240000000  0.4578210000000 1.0
C      1  0.4884640000000  0.4729230000000  0.5049370000000 1.0
C      1  0.3704080000000  0.4689810000000  0.4684940000000 1.0
C      1  0.5196280000000  0.5114610000000  0.5429340000000 1.0
C      1  0.5905840000000  0.5098250000000  0.5387800000000 1.0
C      1  0.5048450000000  0.5175420000000  0.4621400000000 1.0
C      1  0.4628890000000  0.4753710000000  0.5434390000000 1.0
C      1  0.5107030000000  0.4501700000000  0.4378460000000 1.0
C      1  0.5327460000000  0.5092190000000  0.5674210000000 1.0
C      1  0.5101170000000  0.4714270000000  0.4570550000000 1.0
C      1  0.3747280000000  0.4424000000000  0.4765290000000 1.0
C      1  0.5355140000000  0.4969840000000  0.5239090000000 1.0
C      1  0.5483330000000  0.5099480000000  0.5025520000000 1.0
C      1  0.4579270000000  0.5441760000000  0.5819360000000 1.0
C      1  0.5241930000000  0.4166280000000  0.4721560000000 1.0
C      1  0.4766230000000  0.4941610000000  0.5876830000000 1.0
C      1  0.4664640000000  0.5709420000000  0.5722150000000 1.0
C      1  0.4309270000000  0.5366600000000  0.5792860000000 1.0
C      1  0.5445980000000  0.5873370000000  0.4509220000000 1.0
C      1  0.5506060000000  0.5325370000000  0.4323240000000 1.0
C      1  0.4943590000000  0.5783010000000  0.5661520000000 1.0
C      1  0.5630550000000  0.5866710000000  0.4727530000000 1.0
C      1  0.4838720000000  0.4263950000000  0.5297510000000 1.0
C      1  0.4599770000000  0.4205570000000  0.5126240000000 1.0
C      1  0.6035670000000  0.5391620000000  0.4421340000000 1.0
C      1  0.5005410000000  0.5373600000000  0.4067990000000 1.0
C      1  0.5153070000000  0.5134960000000  0.3971160000000 1.0
C      1  0.6094550000000  0.4642080000000  0.5032080000000 1.0
C      1  0.4020760000000  0.5020280000000  0.4307930000000 1.0
C      1  0.5022840000000  0.5955720000000  0.5445250000000 1.0
C      1  0.4848430000000  0.4583310000000  0.5309530000000 1.0
C      1  0.4465670000000  0.5179560000000  0.5197070000000 1.0
C      1  0.5147940000000  0.5600260000000  0.5757210000000 1.0
C      1  0.4560960000000  0.4331730000000  0.4411840000000 1.0
C      1  0.6156700000000  0.5030580000000  0.4656340000000 1.0
C      1  0.3760400000000  0.4960810000000  0.4726730000000 1.0
C      1  0.5044040000000  0.4252850000000  0.4523830000000 1.0
C      1  0.5122530000000  0.4167270000000  0.5214960000000 1.0
C      1  0.5209360000000  0.4973450000000  0.4521530000000 1.0
C      1  0.3860680000000  0.5131480000000  0.4518650000000 1.0
C      1  0.3715690000000  0.4363980000000  0.5038200000000 1.0
C      1  0.4420980000000  0.4702350000000  0.4670860000000 1.0
C      1  0.4789140000000  0.4173740000000  0.5584420000000 1.0
C      1  0.4890500000000  0.5163450000000  0.4852530000000 1.0
C      1  0.3870370000000  0.4245090000000  0.4587500000000 1.0
C      1  0.5556630000000  0.4654630000000  0.4846710000000 1.0
C      1  0.5384200000000  0.4527980000000  0.5031110000000 1.0
C      1  0.5665320000000  0.4725280000000  0.5675880000000 1.0
C      1  0.4906020000000  0.5006930000000  0.5078840000000 1.0
C      1  0.4733420000000  0.5248870000000  0.4108530000000 1.0
C      1  0.5631440000000  0.4438100000000  0.5695560000000 1.0
C      1  0.5395990000000  0.5984050000000  0.5195730000000 1.0
C      1  0.4526210000000  0.4616270000000  0.4423780000000 1.0
C      1  0.4979790000000  0.5848950000000  0.4688330000000 1.0
C      1  0.5887420000000  0.4944930000000  0.4241050000000 1.0
C      1  0.5101820000000  0.6025670000000  0.5175720000000 1.0
C      1  0.5001290000000  0.4823740000000  0.5999220000000 1.0
C      1  0.4501070000000  0.5755210000000  0.5272400000000 1.0
C      1  0.4446440000000  0.5290630000000  0.4931340000000 1.0
C      1  0.5421730000000  0.5855330000000  0.5447920000000 1.0
C      1  0.6000600000000  0.5468670000000  0.4698650000000 1.0
C      1  0.4478420000000  0.5835810000000  0.5544030000000 1.0
C      1  0.5321460000000  0.4102750000000  0.5420740000000 1.0
C      1  0.5830580000000  0.5551720000000  0.5282890000000 1.0
C      1  0.5233320000000  0.4290390000000  0.4981180000000 1.0
C      1  0.5219510000000  0.5511360000000  0.5055660000000 1.0
C      1  0.4245380000000  0.4921810000000  0.4190620000000 1.0
C      1  0.4260610000000  0.4692670000000  0.4875460000000 1.0
C      1  0.4942240000000  0.4292680000000  0.5775210000000 1.0
C      1  0.4587610000000  0.4754590000000  0.5719940000000 1.0
C      1  0.4782090000000  0.5242610000000  0.5875040000000 1.0
C      1  0.5658770000000  0.4412170000000  0.4183770000000 1.0
C      1  0.5551870000000  0.6014110000000  0.4962800000000 1.0
C      1  0.4357250000000  0.5373640000000  0.4444400000000 1.0
C      1  0.5941180000000  0.4599950000000  0.5269230000000 1.0
C      1  0.3812390000000  0.5140010000000  0.5237820000000 1.0
C      1  0.4746970000000  0.4948970000000  0.4110180000000 1.0
C      1  0.4444610000000  0.4911980000000  0.5282720000000 1.0
C      1  0.5391090000000  0.4677110000000  0.6256090000000 1.0
C      1  0.5796740000000  0.5639640000000  0.4797760000000 1.0
C      1  0.4728110000000  0.5577720000000  0.5247460000000 1.0
C      1  0.5117170000000  0.4611490000000  0.5448970000000 1.0
C      1  0.5162180000000  0.4439230000000  0.5674420000000 1.0
C      1  0.5440490000000  0.5056570000000  0.4372520000000 1.0
C      1  0.4840990000000  0.6280610000000  0.4857720000000 1.0
C      1  0.4374250000000  0.4269530000000  0.5293640000000 1.0
C      1  0.4829220000000  0.5592490000000  0.4694710000000 1.0
C      1  0.5318940000000  0.4689860000000  0.5259190000000 1.0
C      1  0.5412290000000  0.5642550000000  0.5640900000000 1.0
C      1  0.5795870000000  0.4122120000000  0.5099180000000 1.0
C      1  0.3928900000000  0.5614630000000  0.4737430000000 1.0
C      1  0.5284900000000  0.4786740000000  0.6029380000000 1.0
C      1  0.5462470000000  0.5379630000000  0.5022120000000 1.0
C      1  0.5082240000000  0.5569010000000  0.4285550000000 1.0
C      1  0.4299080000000  0.5288750000000  0.4693970000000 1.0
C      1  0.3781820000000  0.4383870000000  0.5295960000000 1.0
C      1  0.4704960000000  0.5385800000000  0.4851030000000 1.0
C      1  0.4327520000000  0.4184270000000  0.4354160000000 1.0
C      1  0.5170910000000  0.5817170000000  0.4442430000000 1.0
C      1  0.4978300000000  0.6045530000000  0.4908640000000 1.0
C      1  0.6063780000000  0.5103430000000  0.4391140000000 1.0
C      1  0.5685480000000  0.4009910000000  0.4880120000000 1.0
C      1  0.5600190000000  0.5509910000000  0.4162820000000 1.0
C      1  0.5846410000000  0.4815150000000  0.5456690000000 1.0
C      1  0.4950660000000  0.4650200000000  0.4795960000000 1.0
C      1  0.6023820000000  0.4422270000000  0.4558190000000 1.0
C      1  0.5696480000000  0.5533380000000  0.5040180000000 1.0
C      1  0.6112310000000  0.4535720000000  0.4784590000000 1.0
C      1  0.4379670000000  0.4546680000000  0.5737660000000 1.0
C      1  0.4245440000000  0.4397830000000  0.5520670000000 1.0
C      1  0.3922910000000  0.5219190000000  0.5466940000000 1.0
C      1  0.3964850000000  0.4411210000000  0.5489430000000 1.0
C      1  0.6051830000000  0.5144380000000  0.5134650000000 1.0
C      1  0.5800330000000  0.5357020000000  0.5489360000000 1.0
C      1  0.5861920000000  0.4360180000000  0.4353480000000 1.0
C      1  0.5040450000000  0.5373210000000  0.5893130000000 1.0
C      1  0.4988110000000  0.5606910000000  0.5146500000000 1.0
C      1  0.4089840000000  0.5738030000000  0.4914990000000 1.0
C      1  0.5713090000000  0.5427330000000  0.5964170000000 1.0
C      1  0.4514580000000  0.5377630000000  0.4228390000000 1.0
C      1  0.5493970000000  0.4637590000000  0.4134580000000 1.0
C      1  0.5402640000000  0.4285720000000  0.5631550000000 1.0
C      1  0.5199840000000  0.4631980000000  0.4134200000000 1.0
C      1  0.5033510000000  0.4866860000000  0.4041390000000 1.0
C      1  0.5605240000000  0.4921250000000  0.4845210000000 1.0
C      1  0.4089010000000  0.5293470000000  0.5661670000000 1.0
C      1  0.4689280000000  0.5309450000000  0.5334490000000 1.0
C      1  0.4931630000000  0.5146730000000  0.5331370000000 1.0
C      1  0.4984590000000  0.5422880000000  0.4510380000000 1.0
C      1  0.5480360000000  0.4013520000000  0.4701590000000 1.0
END
