TITL C-3866671-3735-397 8.17283003336366e-07 125000 -1097.71743096541 0 0 176 (C1) n - 1
REM
REM in /home/nfs/bkarasulu/CARBON/AIRSS/Generating-Clusters/LCBOP/Only-C1/SD-CG/FIRE-CG
REM
REM
REM
REM
REM
REM ./C.cell (11c1c37f851c82e70ff6c80c92926a4b)
REM AIRSS Version 0.9.1 bugfix July 2018 build 013d7b7c2542+ Fri, 06 Jul 2018 19:26:36 +0100
REM compiler GCC version 9.2.1 20190827 (Red Hat 9.2.1-1)
REM options -cpp -mtune=generic -march=x86-64 -g -O0 -fpre-include=/usr/include/finclude/math-vector-fortran.h
REM seed 437605653 -1946121279 -250597162 1282942463 123806917 544029266 -1237525369 719283826 -325598400 -1221801349 918207313 -1594329810 2056102269 -1681767386 -893066995 -1724146336 1220164877 -1939233885 -1206680373 639273033 166162276 875287021 -1360276660 1236644520 -213545455 2009334447 -461421122 -1855631432 622310821 724399301 -1273823283 864178908 -1397105463
REM
CELL 1.54180   50.00000   50.00000   50.00000   90.00000   90.00000   90.00000
LATT -1
SFAC C  
C      1  0.4413630000000  0.5192630000000  0.5321960000000 1.0
C      1  0.4954520000000  0.6090470000000  0.3573640000000 1.0
C      1  0.4716650000000  0.5644070000000  0.4818520000000 1.0
C      1  0.5916840000000  0.5297530000000  0.5426100000000 1.0
C      1  0.3971030000000  0.4509820000000  0.5011750000000 1.0
C      1  0.5304430000000  0.5312440000000  0.5663720000000 1.0
C      1  0.5256120000000  0.5441560000000  0.5913120000000 1.0
C      1  0.6168300000000  0.4849670000000  0.4466090000000 1.0
C      1  0.5025770000000  0.3863240000000  0.4997700000000 1.0
C      1  0.5783670000000  0.5318790000000  0.4793820000000 1.0
C      1  0.5142500000000  0.4956390000000  0.5442080000000 1.0
C      1  0.5077750000000  0.3952590000000  0.5271480000000 1.0
C      1  0.4286000000000  0.5306910000000  0.5078280000000 1.0
C      1  0.4836990000000  0.4483780000000  0.3930450000000 1.0
C      1  0.4198980000000  0.5676180000000  0.5835260000000 1.0
C      1  0.5199400000000  0.5027040000000  0.5167310000000 1.0
C      1  0.6224940000000  0.5112070000000  0.4946540000000 1.0
C      1  0.5318140000000  0.5220140000000  0.4581110000000 1.0
C      1  0.4577470000000  0.5140290000000  0.4440970000000 1.0
C      1  0.4046440000000  0.5630410000000  0.4610140000000 1.0
C      1  0.5760220000000  0.4396910000000  0.4686470000000 1.0
C      1  0.5175060000000  0.4597580000000  0.4998230000000 1.0
C      1  0.4102690000000  0.4821140000000  0.5354710000000 1.0
C      1  0.4306070000000  0.4361740000000  0.4385590000000 1.0
C      1  0.5384820000000  0.3256820000000  0.4906410000000 1.0
C      1  0.5010010000000  0.4247380000000  0.5804120000000 1.0
C      1  0.4969000000000  0.4786890000000  0.4448290000000 1.0
C      1  0.6075930000000  0.5124350000000  0.4479480000000 1.0
C      1  0.5329210000000  0.4824430000000  0.5037680000000 1.0
C      1  0.6241380000000  0.4736830000000  0.4227660000000 1.0
C      1  0.4890730000000  0.4667920000000  0.5015800000000 1.0
C      1  0.5931250000000  0.5291770000000  0.4291070000000 1.0
C      1  0.4312940000000  0.4182580000000  0.4854960000000 1.0
C      1  0.5236820000000  0.5069470000000  0.6199340000000 1.0
C      1  0.5535330000000  0.5137430000000  0.5624300000000 1.0
C      1  0.5551080000000  0.4957370000000  0.5849360000000 1.0
C      1  0.4831370000000  0.4708560000000  0.6139470000000 1.0
C      1  0.5305860000000  0.4367460000000  0.5112910000000 1.0
C      1  0.4667970000000  0.5915400000000  0.5254880000000 1.0
C      1  0.5136290000000  0.4223140000000  0.5274770000000 1.0
C      1  0.4095490000000  0.5728720000000  0.5330120000000 1.0
C      1  0.5412390000000  0.5983680000000  0.5249830000000 1.0
C      1  0.5233300000000  0.6091160000000  0.3957610000000 1.0
C      1  0.4261880000000  0.4340440000000  0.5352470000000 1.0
C      1  0.4322170000000  0.4836230000000  0.4790530000000 1.0
C      1  0.4583150000000  0.4711190000000  0.5403490000000 1.0
C      1  0.4956300000000  0.5205520000000  0.3972450000000 1.0
C      1  0.5265590000000  0.5600220000000  0.4027690000000 1.0
C      1  0.5398200000000  0.4549410000000  0.4400810000000 1.0
C      1  0.4327430000000  0.5728840000000  0.4236040000000 1.0
C      1  0.5751150000000  0.5721910000000  0.5053820000000 1.0
C      1  0.5096280000000  0.5308550000000  0.4758340000000 1.0
C      1  0.4538180000000  0.4152970000000  0.5751810000000 1.0
C      1  0.4194540000000  0.5982460000000  0.5258580000000 1.0
C      1  0.5322930000000  0.3508280000000  0.4877180000000 1.0
C      1  0.4173740000000  0.4309560000000  0.5077040000000 1.0
C      1  0.6181280000000  0.4696910000000  0.4712710000000 1.0
C      1  0.4379320000000  0.5230880000000  0.5904240000000 1.0
C      1  0.4300350000000  0.4614320000000  0.5414300000000 1.0
C      1  0.4727120000000  0.3896100000000  0.4985030000000 1.0
C      1  0.4636580000000  0.3837960000000  0.5263470000000 1.0
C      1  0.4863970000000  0.5839000000000  0.3564330000000 1.0
C      1  0.5530560000000  0.5798410000000  0.5804150000000 1.0
C      1  0.4330580000000  0.5137780000000  0.4846240000000 1.0
C      1  0.5751620000000  0.5601320000000  0.4797910000000 1.0
C      1  0.5607160000000  0.4621920000000  0.4579960000000 1.0
C      1  0.6047610000000  0.5218800000000  0.4753210000000 1.0
C      1  0.5491430000000  0.4697830000000  0.5747740000000 1.0
C      1  0.4448500000000  0.6067050000000  0.5284110000000 1.0
C      1  0.5595850000000  0.4854100000000  0.4996710000000 1.0
C      1  0.4682830000000  0.4462570000000  0.6163320000000 1.0
C      1  0.4353820000000  0.4129680000000  0.5523460000000 1.0
C      1  0.4061930000000  0.5693620000000  0.5606520000000 1.0
C      1  0.5740060000000  0.4836320000000  0.5239070000000 1.0
C      1  0.4703010000000  0.4317970000000  0.4092510000000 1.0
C      1  0.4896400000000  0.5608620000000  0.3694610000000 1.0
C      1  0.5487660000000  0.5583260000000  0.5995680000000 1.0
C      1  0.4811700000000  0.5326810000000  0.6062880000000 1.0
C      1  0.3941110000000  0.4781310000000  0.5106440000000 1.0
C      1  0.4858390000000  0.3892370000000  0.5453470000000 1.0
C      1  0.4592370000000  0.4087860000000  0.4814870000000 1.0
C      1  0.4677520000000  0.5585120000000  0.6016610000000 1.0
C      1  0.4941040000000  0.4739980000000  0.3885410000000 1.0
C      1  0.5319350000000  0.5217840000000  0.4294480000000 1.0
C      1  0.5619000000000  0.4146450000000  0.4722770000000 1.0
C      1  0.6005190000000  0.4597210000000  0.5656500000000 1.0
C      1  0.5522260000000  0.5096760000000  0.6100370000000 1.0
C      1  0.5571320000000  0.4376050000000  0.5201060000000 1.0
C      1  0.4836750000000  0.6165430000000  0.4780320000000 1.0
C      1  0.3834120000000  0.5462890000000  0.5021530000000 1.0
C      1  0.5089950000000  0.5298920000000  0.6094910000000 1.0
C      1  0.4938040000000  0.4386870000000  0.5381030000000 1.0
C      1  0.5130100000000  0.6234880000000  0.3739270000000 1.0
C      1  0.5042880000000  0.5952020000000  0.5869060000000 1.0
C      1  0.5901410000000  0.5408140000000  0.5901430000000 1.0
C      1  0.5885000000000  0.5502620000000  0.5625050000000 1.0
C      1  0.4085850000000  0.5513610000000  0.5144060000000 1.0
C      1  0.4589100000000  0.5381550000000  0.5459500000000 1.0
C      1  0.4742620000000  0.4706820000000  0.5670370000000 1.0
C      1  0.4532020000000  0.4301040000000  0.5999120000000 1.0
C      1  0.4811900000000  0.4057030000000  0.5693580000000 1.0
C      1  0.4400110000000  0.6277000000000  0.4599480000000 1.0
C      1  0.5211380000000  0.4824620000000  0.3945030000000 1.0
C      1  0.4384860000000  0.3884210000000  0.5379590000000 1.0
C      1  0.4183210000000  0.4226560000000  0.4601990000000 1.0
C      1  0.4163430000000  0.5114260000000  0.5761650000000 1.0
C      1  0.4065810000000  0.5074260000000  0.4493870000000 1.0
C      1  0.5791290000000  0.4544670000000  0.5236170000000 1.0
C      1  0.5123730000000  0.4552640000000  0.4477480000000 1.0
C      1  0.6237310000000  0.4661620000000  0.5196230000000 1.0
C      1  0.5432800000000  0.4757880000000  0.3802010000000 1.0
C      1  0.6011240000000  0.4473330000000  0.4803260000000 1.0
C      1  0.4148630000000  0.4797560000000  0.4541740000000 1.0
C      1  0.4721980000000  0.4898730000000  0.4512680000000 1.0
C      1  0.4986030000000  0.4321800000000  0.4573370000000 1.0
C      1  0.5486130000000  0.4169940000000  0.4053260000000 1.0
C      1  0.5007500000000  0.5144040000000  0.4987240000000 1.0
C      1  0.5670510000000  0.5365350000000  0.6074190000000 1.0
C      1  0.5227160000000  0.4710670000000  0.5608270000000 1.0
C      1  0.4575820000000  0.4741170000000  0.4701790000000 1.0
C      1  0.4827180000000  0.5816580000000  0.5957150000000 1.0
C      1  0.4582830000000  0.6089490000000  0.4678050000000 1.0
C      1  0.3810030000000  0.4998200000000  0.4949830000000 1.0
C      1  0.5732980000000  0.5076950000000  0.5412290000000 1.0
C      1  0.5235900000000  0.6065680000000  0.5066140000000 1.0
C      1  0.4602430000000  0.4970240000000  0.5242250000000 1.0
C      1  0.5632400000000  0.4872400000000  0.4717590000000 1.0
C      1  0.4770480000000  0.4981700000000  0.3904650000000 1.0
C      1  0.5720270000000  0.5495810000000  0.4293720000000 1.0
C      1  0.4402730000000  0.5520330000000  0.5943340000000 1.0
C      1  0.6029110000000  0.4477890000000  0.5094000000000 1.0
C      1  0.4719710000000  0.5706980000000  0.5094450000000 1.0
C      1  0.3861330000000  0.5152720000000  0.4680650000000 1.0
C      1  0.5080990000000  0.6033520000000  0.4835010000000 1.0
C      1  0.4634180000000  0.5114130000000  0.5968000000000 1.0
C      1  0.5073410000000  0.4832050000000  0.6241920000000 1.0
C      1  0.4794040000000  0.4953050000000  0.5025340000000 1.0
C      1  0.5457860000000  0.5441870000000  0.4177910000000 1.0
C      1  0.4298770000000  0.5719680000000  0.4510280000000 1.0
C      1  0.4525940000000  0.5804530000000  0.4666330000000 1.0
C      1  0.4325320000000  0.5218050000000  0.4561680000000 1.0
C      1  0.5633920000000  0.5813420000000  0.5298700000000 1.0
C      1  0.5467970000000  0.4411310000000  0.4166220000000 1.0
C      1  0.4979750000000  0.5572620000000  0.4718350000000 1.0
C      1  0.5129740000000  0.5812610000000  0.4655920000000 1.0
C      1  0.5700530000000  0.5727590000000  0.5571790000000 1.0
C      1  0.3931910000000  0.5048770000000  0.5892270000000 1.0
C      1  0.4757410000000  0.4530230000000  0.5227890000000 1.0
C      1  0.3864780000000  0.5448600000000  0.4732040000000 1.0
C      1  0.5577520000000  0.5151700000000  0.4680520000000 1.0
C      1  0.5740410000000  0.4555030000000  0.5718200000000 1.0
C      1  0.5195300000000  0.6495090000000  0.3691500000000 1.0
C      1  0.4847350000000  0.5362360000000  0.5519630000000 1.0
C      1  0.5254780000000  0.3780740000000  0.4847680000000 1.0
C      1  0.4498550000000  0.4926840000000  0.3959110000000 1.0
C      1  0.5465560000000  0.3922490000000  0.4153790000000 1.0
C      1  0.5436590000000  0.3836870000000  0.4405370000000 1.0
C      1  0.5032350000000  0.5471630000000  0.3897600000000 1.0
C      1  0.3707490000000  0.5221410000000  0.5112300000000 1.0
C      1  0.5185020000000  0.5066220000000  0.4100580000000 1.0
C      1  0.4189000000000  0.5065130000000  0.5481670000000 1.0
C      1  0.6279140000000  0.4833670000000  0.4961810000000 1.0
C      1  0.5733050000000  0.5681080000000  0.4520710000000 1.0
C      1  0.5241590000000  0.5867390000000  0.4123480000000 1.0
C      1  0.5192040000000  0.4189960000000  0.5997890000000 1.0
C      1  0.5432550000000  0.3931270000000  0.4672880000000 1.0
C      1  0.4323730000000  0.4767710000000  0.4089930000000 1.0
C      1  0.5304000000000  0.5971740000000  0.5799520000000 1.0
C      1  0.4727410000000  0.4203650000000  0.4576760000000 1.0
C      1  0.5072370000000  0.5207320000000  0.5553900000000 1.0
C      1  0.4722490000000  0.4853760000000  0.5913550000000 1.0
C      1  0.5218460000000  0.5883730000000  0.4401420000000 1.0
C      1  0.6205790000000  0.4669940000000  0.5482230000000 1.0
C      1  0.4995310000000  0.4509780000000  0.5646740000000 1.0
C      1  0.4233070000000  0.4631830000000  0.4323740000000 1.0
C      1  0.4573280000000  0.4270040000000  0.4337740000000 1.0
END
