TITL C-3866673-4222-678 61194.1303992613 125000 -568.887463028009 0 0 95 (C1) n - 1
REM
REM in /home/nfs/bkarasulu/CARBON/AIRSS/Generating-Clusters/LCBOP/Only-C1/SD-CG/FIRE-CG
REM
REM
REM
REM
REM
REM ./C.cell (11c1c37f851c82e70ff6c80c92926a4b)
REM AIRSS Version 0.9.1 bugfix July 2018 build 013d7b7c2542+ Fri, 06 Jul 2018 19:26:36 +0100
REM compiler GCC version 9.2.1 20190827 (Red Hat 9.2.1-1)
REM options -cpp -mtune=generic -march=x86-64 -g -O0 -fpre-include=/usr/include/finclude/math-vector-fortran.h
REM seed 145802457 -1777628398 -1112647976 1422423510 1162171345 432611542 -1277330925 -231815003 -1727120698 1821225960 1832210822 -879982356 -1185181477 -187321718 1270360345 -1513807201 1269006764 -1241574089 -1782216283 -830864684 625699590 -780763155 -753972224 581410231 -296468617 1181994115 -1848948663 -889609186 -667771554 2064644596 743678702 651457136 1725276597
REM
CELL 1.54180   50.00000   50.00000   50.00000   90.00000   90.00000   90.00000
LATT -1
SFAC C  
C      1  0.4391700000000  0.4906350000000  0.5651770000000 1.0
C      1  0.5703500000000  0.5070960000000  0.4275610000000 1.0
C      1  0.5717430000000  0.5888840000000  0.4739030000000 1.0
C      1  0.5536260000000  0.4349680000000  0.5300240000000 1.0
C      1  0.4915730000000  0.5316280000000  0.5900180000000 1.0
C      1  0.3727940000000  0.4679610000000  0.4627330000000 1.0
C      1  0.4431730000000  0.5477730000000  0.4378800000000 1.0
C      1  0.4751960000000  0.4622840000000  0.5203310000000 1.0
C      1  0.5520140000000  0.4718520000000  0.4946790000000 1.0
C      1  0.5902770000000  0.5261000000000  0.5027370000000 1.0
C      1  0.4210640000000  0.5224290000000  0.4749640000000 1.0
C      1  0.5305510000000  0.4179600000000  0.5359210000000 1.0
C      1  0.5122010000000  0.4147640000000  0.5143570000000 1.0
C      1  0.4821080000000  0.5095870000000  0.4638700000000 1.0
C      1  0.4668070000000  0.5075270000000  0.5220910000000 1.0
C      1  0.5115450000000  0.4931620000000  0.5542870000000 1.0
C      1  0.4453910000000  0.5203190000000  0.5677870000000 1.0
C      1  0.5277870000000  0.4448760000000  0.4371570000000 1.0
C      1  0.4800760000000  0.5537220000000  0.5498010000000 1.0
C      1  0.5091960000000  0.4728780000000  0.5774290000000 1.0
C      1  0.5725620000000  0.5497130000000  0.5072340000000 1.0
C      1  0.5243870000000  0.5613860000000  0.5273050000000 1.0
C      1  0.5214370000000  0.4741770000000  0.5323840000000 1.0
C      1  0.5561420000000  0.4560220000000  0.4722160000000 1.0
C      1  0.5906370000000  0.5168700000000  0.4751040000000 1.0
C      1  0.4565850000000  0.4824280000000  0.5137750000000 1.0
C      1  0.4182700000000  0.5789840000000  0.5293540000000 1.0
C      1  0.5590440000000  0.4812150000000  0.4284690000000 1.0
C      1  0.5879540000000  0.4926300000000  0.4613440000000 1.0
C      1  0.4677330000000  0.4652560000000  0.4494260000000 1.0
C      1  0.4710210000000  0.5354430000000  0.5706840000000 1.0
C      1  0.5094490000000  0.4991520000000  0.4743000000000 1.0
C      1  0.5021010000000  0.4681940000000  0.5117090000000 1.0
C      1  0.4162120000000  0.5607150000000  0.5488840000000 1.0
C      1  0.5298740000000  0.5161540000000  0.5626090000000 1.0
C      1  0.4871730000000  0.5285980000000  0.4416590000000 1.0
C      1  0.4279230000000  0.5838470000000  0.5046230000000 1.0
C      1  0.4558940000000  0.4685720000000  0.5725600000000 1.0
C      1  0.5025020000000  0.4717880000000  0.4834420000000 1.0
C      1  0.4697230000000  0.5512370000000  0.4488330000000 1.0
C      1  0.4239940000000  0.5384030000000  0.5615510000000 1.0
C      1  0.5744850000000  0.5617910000000  0.4801080000000 1.0
C      1  0.4872070000000  0.5052120000000  0.5415000000000 1.0
C      1  0.5506950000000  0.5241270000000  0.5442100000000 1.0
C      1  0.4735890000000  0.4392630000000  0.5369680000000 1.0
C      1  0.3914660000000  0.4939510000000  0.5525520000000 1.0
C      1  0.4977110000000  0.4462770000000  0.5759620000000 1.0
C      1  0.4602560000000  0.5303450000000  0.5075690000000 1.0
C      1  0.4154430000000  0.4806740000000  0.5509790000000 1.0
C      1  0.4613750000000  0.4913190000000  0.4579610000000 1.0
C      1  0.5261390000000  0.5883940000000  0.4644430000000 1.0
C      1  0.5159170000000  0.4218980000000  0.4843150000000 1.0
C      1  0.5477810000000  0.4974610000000  0.5052570000000 1.0
C      1  0.4228940000000  0.5329510000000  0.4485440000000 1.0
C      1  0.3917550000000  0.4829220000000  0.4725340000000 1.0
C      1  0.5805960000000  0.5406100000000  0.4605150000000 1.0
C      1  0.4674810000000  0.4170780000000  0.4961960000000 1.0
C      1  0.4236030000000  0.4367410000000  0.5181930000000 1.0
C      1  0.5333130000000  0.4695150000000  0.4218890000000 1.0
C      1  0.5626020000000  0.5028920000000  0.5294070000000 1.0
C      1  0.4870660000000  0.4264930000000  0.4763750000000 1.0
C      1  0.5495690000000  0.6039350000000  0.4652940000000 1.0
C      1  0.4809240000000  0.5510320000000  0.5017910000000 1.0
C      1  0.5108360000000  0.4868360000000  0.4118910000000 1.0
C      1  0.5812930000000  0.4373780000000  0.5253070000000 1.0
C      1  0.5350450000000  0.4368680000000  0.4649730000000 1.0
C      1  0.5213900000000  0.4301370000000  0.5669480000000 1.0
C      1  0.5219010000000  0.5631700000000  0.4722900000000 1.0
C      1  0.4956550000000  0.5581660000000  0.5257320000000 1.0
C      1  0.4146720000000  0.4956540000000  0.4818020000000 1.0
C      1  0.4695510000000  0.4613020000000  0.4215800000000 1.0
C      1  0.4166890000000  0.4558130000000  0.5362980000000 1.0
C      1  0.5441180000000  0.4596960000000  0.5423320000000 1.0
C      1  0.4834000000000  0.4168620000000  0.5212180000000 1.0
C      1  0.4688100000000  0.5634700000000  0.4767370000000 1.0
C      1  0.5085430000000  0.5124710000000  0.4268030000000 1.0
C      1  0.4722930000000  0.4463680000000  0.5644230000000 1.0
C      1  0.5419400000000  0.4522070000000  0.5696860000000 1.0
C      1  0.5183480000000  0.5295320000000  0.5850240000000 1.0
C      1  0.5729300000000  0.5345020000000  0.4336450000000 1.0
C      1  0.4871390000000  0.4730590000000  0.4046960000000 1.0
C      1  0.4405340000000  0.5661480000000  0.4868240000000 1.0
C      1  0.4856800000000  0.4535080000000  0.4676580000000 1.0
C      1  0.4400720000000  0.4234400000000  0.5010200000000 1.0
C      1  0.5253960000000  0.5055900000000  0.4495240000000 1.0
C      1  0.5940770000000  0.4611480000000  0.5297220000000 1.0
C      1  0.5684280000000  0.5539960000000  0.4151100000000 1.0
C      1  0.5270160000000  0.5137270000000  0.4935700000000 1.0
C      1  0.5719890000000  0.4705470000000  0.4532140000000 1.0
C      1  0.5852400000000  0.4864050000000  0.5344910000000 1.0
C      1  0.5506140000000  0.5488310000000  0.5281500000000 1.0
C      1  0.4335310000000  0.4822320000000  0.4979110000000 1.0
C      1  0.5506410000000  0.6303030000000  0.4588230000000 1.0
C      1  0.4355680000000  0.5376700000000  0.4939740000000 1.0
C      1  0.5275320000000  0.5408930000000  0.4858930000000 1.0
END
