TITL C-3866669-3764-58 0.00291625666221167 125000 -65.1647527501641 0 0 12 (C2v) n - 1
REM
REM in /home/nfs/bkarasulu/CARBON/AIRSS/Generating-Clusters/LCBOP/Only-C1/SD-CG/HFTN-CG/FIRE-CG
REM
REM
REM
REM
REM
REM ./C.cell (11c1c37f851c82e70ff6c80c92926a4b)
REM AIRSS Version 0.9.1 bugfix July 2018 build 013d7b7c2542+ Fri, 06 Jul 2018 19:26:36 +0100
REM compiler GCC version 9.2.1 20190827 (Red Hat 9.2.1-1)
REM options -cpp -mtune=generic -march=x86-64 -g -O0 -fpre-include=/usr/include/finclude/math-vector-fortran.h
REM seed -649483369 1024221833 424451832 775318699 -159421527 304016097 1100637085 1891257781 -442519970 -454238059 1843616222 -458752369 560021931 -923438512 276429049 710743094 676606087 1372464408 -1180580348 -1986634541 1284958802 -458875812 -652912231 310346327 -1424808666 -1719694995 1599778210 -1094493179 -1763752198 -139789286 1579148397 -734150760 -1058546465
REM
CELL 1.54180   50.00000   50.00000   50.00000   90.00000   90.00000   90.00000
LATT -1
SFAC C  
C      1  0.4521020000000  0.4683650000000  0.4535440000000 1.0
C      1  0.6050820000000  0.5636280000000  0.5446080000000 1.0
C      1  0.4175860000000  0.4551870000000  0.5155170000000 1.0
C      1  0.4551330000000  0.4728330000000  0.4809540000000 1.0
C      1  0.5841210000000  0.5509360000000  0.5357090000000 1.0
C      1  0.5628080000000  0.5380310000000  0.5266620000000 1.0
C      1  0.5415020000000  0.5251300000000  0.5176170000000 1.0
C      1  0.4357040000000  0.4637000000000  0.4988300000000 1.0
C      1  0.5201950000000  0.5122280000000  0.5085730000000 1.0
C      1  0.4492880000000  0.4642040000000  0.4279710000000 1.0
C      1  0.4775910000000  0.4864310000000  0.4904870000000 1.0
C      1  0.4988880000000  0.4993270000000  0.4995280000000 1.0
END
