TITL C-3866674-3872-297 4.29691884928579 125000 -188.320374859101 0 0 32 (C1) n - 1
REM
REM in /home/nfs/bkarasulu/CARBON/AIRSS/Generating-Clusters/LCBOP/Only-C1/SD-CG/FIRE-CG
REM
REM
REM
REM
REM
REM ./C.cell (11c1c37f851c82e70ff6c80c92926a4b)
REM AIRSS Version 0.9.1 bugfix July 2018 build 013d7b7c2542+ Fri, 06 Jul 2018 19:26:36 +0100
REM compiler GCC version 9.2.1 20190827 (Red Hat 9.2.1-1)
REM options -cpp -mtune=generic -march=x86-64 -g -O0 -fpre-include=/usr/include/finclude/math-vector-fortran.h
REM seed -347048392 210892907 -1976623362 1644951308 707215158 1890157024 430311066 -1768435471 -789180347 -1411996215 1026990698 -2061343197 2017131394 1299677391 -943006932 2147458197 1465070843 -759259010 1243923499 15659205 -1932071530 -1091827993 2037127658 1856194612 50969950 1408614998 193803968 -1646902740 -921708097 -670937019 2028915164 -1472720012 1478019546
REM
CELL 1.54180   50.00000   50.00000   50.00000   90.00000   90.00000   90.00000
LATT -1
SFAC C  
C      1  0.5046140000000  0.4193660000000  0.5909060000000 1.0
C      1  0.5846460000000  0.5436660000000  0.4796510000000 1.0
C      1  0.4309690000000  0.5166940000000  0.5026700000000 1.0
C      1  0.5682490000000  0.5554160000000  0.4624440000000 1.0
C      1  0.5153650000000  0.5831310000000  0.4179540000000 1.0
C      1  0.4854160000000  0.5327390000000  0.4634320000000 1.0
C      1  0.5101330000000  0.6001230000000  0.3983110000000 1.0
C      1  0.5607030000000  0.4593040000000  0.5637570000000 1.0
C      1  0.5790080000000  0.4746800000000  0.5522930000000 1.0
C      1  0.5116800000000  0.4384230000000  0.5726260000000 1.0
C      1  0.4260590000000  0.5054500000000  0.5265730000000 1.0
C      1  0.5004360000000  0.5496210000000  0.4496110000000 1.0
C      1  0.4370110000000  0.4853710000000  0.4667680000000 1.0
C      1  0.4462020000000  0.5082100000000  0.4804530000000 1.0
C      1  0.4341410000000  0.4142590000000  0.5325550000000 1.0
C      1  0.5945070000000  0.5283230000000  0.4988970000000 1.0
C      1  0.4741520000000  0.5138260000000  0.4804290000000 1.0
C      1  0.4779090000000  0.4634610000000  0.5363750000000 1.0
C      1  0.5914810000000  0.4922560000000  0.5368500000000 1.0
C      1  0.4330390000000  0.4421810000000  0.4929310000000 1.0
C      1  0.5208690000000  0.5652280000000  0.4386470000000 1.0
C      1  0.5968530000000  0.5106660000000  0.5185400000000 1.0
C      1  0.4387650000000  0.4381380000000  0.5201770000000 1.0
C      1  0.4925380000000  0.4495800000000  0.5555680000000 1.0
C      1  0.4895520000000  0.4990470000000  0.4987390000000 1.0
C      1  0.4903880000000  0.4810830000000  0.5184000000000 1.0
C      1  0.5468630000000  0.5627310000000  0.4486060000000 1.0
C      1  0.4333340000000  0.4829070000000  0.5391340000000 1.0
C      1  0.4496180000000  0.4604370000000  0.5343000000000 1.0
C      1  0.4323280000000  0.4597130000000  0.4728040000000 1.0
C      1  0.5381890000000  0.4471250000000  0.5706180000000 1.0
C      1  0.5049840000000  0.6168430000000  0.3789830000000 1.0
END
