TITL C-3866673-4222-160 134903.369460426 125000 -843.852439888081 0 0 139 (C1) n - 1
REM
REM in /home/nfs/bkarasulu/CARBON/AIRSS/Generating-Clusters/LCBOP/Only-C1/SD-CG/HFTN-CG/FIRE-CG
REM
REM
REM
REM
REM
REM ./C.cell (11c1c37f851c82e70ff6c80c92926a4b)
REM AIRSS Version 0.9.1 bugfix July 2018 build 013d7b7c2542+ Fri, 06 Jul 2018 19:26:36 +0100
REM compiler GCC version 9.2.1 20190827 (Red Hat 9.2.1-1)
REM options -cpp -mtune=generic -march=x86-64 -g -O0 -fpre-include=/usr/include/finclude/math-vector-fortran.h
REM seed 799928307 -973355414 2142896592 -857806281 -1095024038 -1445702779 -2138058633 2028397759 1099770136 -1469051124 -1825104470 -1460956231 -282491738 -1468439618 805264072 -852218540 1831355576 -1960103288 527882420 -2003387275 1309809335 -1143324163 -1368924699 185743408 1530614857 1208575135 240481050 597850124 1723487975 517807068 -88982336 -472881687 797657003
REM
CELL 1.54180   50.00000   50.00000   50.00000   90.00000   90.00000   90.00000
LATT -1
SFAC C  
C      1  0.4453270000000  0.4695500000000  0.4630240000000 1.0
C      1  0.4494370000000  0.5576150000000  0.4107650000000 1.0
C      1  0.4848720000000  0.5484530000000  0.5019520000000 1.0
C      1  0.5157810000000  0.4029640000000  0.5599910000000 1.0
C      1  0.4173320000000  0.4564280000000  0.5016940000000 1.0
C      1  0.4791580000000  0.4139790000000  0.5136100000000 1.0
C      1  0.4797130000000  0.4820300000000  0.5706130000000 1.0
C      1  0.5955830000000  0.5165350000000  0.5361640000000 1.0
C      1  0.4794390000000  0.4297910000000  0.5965540000000 1.0
C      1  0.5536920000000  0.4839200000000  0.4799300000000 1.0
C      1  0.4337490000000  0.5036140000000  0.5734320000000 1.0
C      1  0.5013010000000  0.5236550000000  0.5478390000000 1.0
C      1  0.5111530000000  0.5035450000000  0.5029660000000 1.0
C      1  0.4996880000000  0.5501420000000  0.5560540000000 1.0
C      1  0.5151850000000  0.5376350000000  0.3795830000000 1.0
C      1  0.5741160000000  0.5119750000000  0.5184620000000 1.0
C      1  0.4563620000000  0.3997440000000  0.5238990000000 1.0
C      1  0.4561020000000  0.4508480000000  0.5340810000000 1.0
C      1  0.4495440000000  0.5828130000000  0.5299350000000 1.0
C      1  0.3994110000000  0.4774080000000  0.4951800000000 1.0
C      1  0.6038590000000  0.5115310000000  0.4006040000000 1.0
C      1  0.5348100000000  0.4578820000000  0.6098910000000 1.0
C      1  0.5080730000000  0.5331090000000  0.4948120000000 1.0
C      1  0.5574330000000  0.5858490000000  0.4512500000000 1.0
C      1  0.4603630000000  0.3884860000000  0.4487920000000 1.0
C      1  0.4691210000000  0.5185020000000  0.4442800000000 1.0
C      1  0.5808960000000  0.4156810000000  0.4857690000000 1.0
C      1  0.4493580000000  0.5200830000000  0.4642300000000 1.0
C      1  0.5044010000000  0.4634810000000  0.4780790000000 1.0
C      1  0.4348810000000  0.4960990000000  0.4695730000000 1.0
C      1  0.4699050000000  0.4690700000000  0.4471010000000 1.0
C      1  0.5495060000000  0.5120830000000  0.5318800000000 1.0
C      1  0.5269560000000  0.5821480000000  0.5337030000000 1.0
C      1  0.5570480000000  0.4274120000000  0.5486430000000 1.0
C      1  0.4342940000000  0.4132290000000  0.5111930000000 1.0
C      1  0.5393040000000  0.5510070000000  0.3858490000000 1.0
C      1  0.4871450000000  0.5962470000000  0.4489010000000 1.0
C      1  0.5600780000000  0.5498510000000  0.3679980000000 1.0
C      1  0.5208560000000  0.4719150000000  0.6298430000000 1.0
C      1  0.4679840000000  0.4822810000000  0.5986500000000 1.0
C      1  0.5224430000000  0.5360540000000  0.6004060000000 1.0
C      1  0.4923400000000  0.5844440000000  0.4223250000000 1.0
C      1  0.5638470000000  0.5810910000000  0.4802000000000 1.0
C      1  0.5370670000000  0.5144170000000  0.6120140000000 1.0
C      1  0.4734100000000  0.4592450000000  0.5552690000000 1.0
C      1  0.5841400000000  0.5474210000000  0.4353970000000 1.0
C      1  0.5235910000000  0.4988630000000  0.6318320000000 1.0
C      1  0.4922030000000  0.4528330000000  0.4548510000000 1.0
C      1  0.4363980000000  0.5576280000000  0.5262310000000 1.0
C      1  0.6077680000000  0.4134070000000  0.4893670000000 1.0
C      1  0.5031320000000  0.4299870000000  0.4424480000000 1.0
C      1  0.4219560000000  0.5173950000000  0.4091560000000 1.0
C      1  0.4767350000000  0.4556860000000  0.6099260000000 1.0
C      1  0.4927120000000  0.5348130000000  0.6000340000000 1.0
C      1  0.4690150000000  0.5836590000000  0.4668780000000 1.0
C      1  0.5180350000000  0.5489080000000  0.4733570000000 1.0
C      1  0.4972670000000  0.4230530000000  0.4167000000000 1.0
C      1  0.4463270000000  0.5251180000000  0.5904630000000 1.0
C      1  0.4816390000000  0.5524180000000  0.5781660000000 1.0
C      1  0.4409080000000  0.4197840000000  0.4824550000000 1.0
C      1  0.4061840000000  0.5548280000000  0.4324080000000 1.0
C      1  0.4537780000000  0.5475590000000  0.5734360000000 1.0
C      1  0.4827780000000  0.4913340000000  0.5101170000000 1.0
C      1  0.4633000000000  0.4044830000000  0.4713600000000 1.0
C      1  0.5294280000000  0.4937570000000  0.5260290000000 1.0
C      1  0.4447690000000  0.5436620000000  0.4800090000000 1.0
C      1  0.5567110000000  0.4309960000000  0.5770540000000 1.0
C      1  0.5493550000000  0.4198600000000  0.4508640000000 1.0
C      1  0.5427560000000  0.5829150000000  0.5013830000000 1.0
C      1  0.4999250000000  0.5945910000000  0.5294770000000 1.0
C      1  0.5617670000000  0.4007830000000  0.5003370000000 1.0
C      1  0.4426120000000  0.5402570000000  0.5474970000000 1.0
C      1  0.5242820000000  0.4850910000000  0.4807390000000 1.0
C      1  0.4339160000000  0.4476950000000  0.4782180000000 1.0
C      1  0.4058750000000  0.5020490000000  0.4790570000000 1.0
C      1  0.5126320000000  0.5387000000000  0.4476060000000 1.0
C      1  0.5340320000000  0.5991800000000  0.4412300000000 1.0
C      1  0.4267280000000  0.5714400000000  0.4216500000000 1.0
C      1  0.4417850000000  0.5110670000000  0.5453530000000 1.0
C      1  0.4908340000000  0.5271620000000  0.3759180000000 1.0
C      1  0.5961610000000  0.5320480000000  0.4155290000000 1.0
C      1  0.4853970000000  0.5407780000000  0.4377040000000 1.0
C      1  0.4594930000000  0.5001530000000  0.5250250000000 1.0
C      1  0.4972310000000  0.5007300000000  0.5605620000000 1.0
C      1  0.5354170000000  0.5555400000000  0.5822990000000 1.0
C      1  0.4666260000000  0.5607950000000  0.4835830000000 1.0
C      1  0.5599040000000  0.5007150000000  0.6001090000000 1.0
C      1  0.5742820000000  0.4517050000000  0.5877040000000 1.0
C      1  0.4175240000000  0.4321300000000  0.5537610000000 1.0
C      1  0.4862640000000  0.4639780000000  0.5001420000000 1.0
C      1  0.5862750000000  0.5638040000000  0.4817780000000 1.0
C      1  0.4262080000000  0.5448710000000  0.5018090000000 1.0
C      1  0.4274030000000  0.4404410000000  0.5265390000000 1.0
C      1  0.5308190000000  0.4164930000000  0.5353010000000 1.0
C      1  0.5216270000000  0.5857780000000  0.4174400000000 1.0
C      1  0.5950540000000  0.5171610000000  0.5631780000000 1.0
C      1  0.5153170000000  0.4057880000000  0.4840950000000 1.0
C      1  0.4440610000000  0.5319580000000  0.3980030000000 1.0
C      1  0.5659220000000  0.4604420000000  0.4698520000000 1.0
C      1  0.5689410000000  0.4328060000000  0.4663840000000 1.0
C      1  0.4732940000000  0.5926500000000  0.5392690000000 1.0
C      1  0.6087860000000  0.4889580000000  0.3885090000000 1.0
C      1  0.4558250000000  0.3727120000000  0.4285500000000 1.0
C      1  0.5420310000000  0.5664980000000  0.4094860000000 1.0
C      1  0.5866600000000  0.4606040000000  0.5271920000000 1.0
C      1  0.4794750000000  0.4933980000000  0.4353340000000 1.0
C      1  0.5596190000000  0.4720500000000  0.6016350000000 1.0
C      1  0.5175510000000  0.5839210000000  0.4836530000000 1.0
C      1  0.5308950000000  0.4350980000000  0.5922350000000 1.0
C      1  0.4246210000000  0.5991560000000  0.4213300000000 1.0
C      1  0.4762870000000  0.5611530000000  0.4200760000000 1.0
C      1  0.5803650000000  0.5131020000000  0.5852550000000 1.0
C      1  0.4872430000000  0.4043130000000  0.4883250000000 1.0
C      1  0.5353770000000  0.4658070000000  0.5303210000000 1.0
C      1  0.4544470000000  0.4183480000000  0.5883930000000 1.0
C      1  0.3941820000000  0.5107770000000  0.4520600000000 1.0
C      1  0.4751350000000  0.4424710000000  0.5138440000000 1.0
C      1  0.4709240000000  0.5139080000000  0.6050800000000 1.0
C      1  0.5615420000000  0.4529730000000  0.5343020000000 1.0
C      1  0.4312610000000  0.4220250000000  0.5749920000000 1.0
C      1  0.5633860000000  0.5659500000000  0.4299940000000 1.0
C      1  0.5893690000000  0.5168120000000  0.4730300000000 1.0
C      1  0.5165030000000  0.4442070000000  0.5350020000000 1.0
C      1  0.5250180000000  0.5643780000000  0.5564910000000 1.0
C      1  0.4976420000000  0.4447600000000  0.5560120000000 1.0
C      1  0.5225510000000  0.4156150000000  0.4578500000000 1.0
C      1  0.4991790000000  0.5984770000000  0.5018010000000 1.0
C      1  0.5046560000000  0.4259710000000  0.5788240000000 1.0
C      1  0.5133070000000  0.6004400000000  0.4598940000000 1.0
C      1  0.5071180000000  0.4952470000000  0.4273070000000 1.0
C      1  0.4381310000000  0.4807370000000  0.5904040000000 1.0
C      1  0.5904500000000  0.5428070000000  0.4630160000000 1.0
C      1  0.4054870000000  0.5258290000000  0.4981650000000 1.0
C      1  0.4045740000000  0.5263950000000  0.4302930000000 1.0
C      1  0.5724550000000  0.5034840000000  0.4909770000000 1.0
C      1  0.4240750000000  0.6251880000000  0.4223920000000 1.0
C      1  0.5239580000000  0.5152520000000  0.4356800000000 1.0
C      1  0.4648080000000  0.5230680000000  0.3811570000000 1.0
C      1  0.5342880000000  0.4051250000000  0.5070850000000 1.0
END
