TITL C-3866673-4222-153 1.92030549941159 125000 -268.428248175817 0 0 46 (C1) n - 1
REM
REM in /home/nfs/bkarasulu/CARBON/AIRSS/Generating-Clusters/LCBOP/Only-C1/SD-CG/HFTN-CG/FIRE-CG
REM
REM
REM
REM
REM
REM ./C.cell (11c1c37f851c82e70ff6c80c92926a4b)
REM AIRSS Version 0.9.1 bugfix July 2018 build 013d7b7c2542+ Fri, 06 Jul 2018 19:26:36 +0100
REM compiler GCC version 9.2.1 20190827 (Red Hat 9.2.1-1)
REM options -cpp -mtune=generic -march=x86-64 -g -O0 -fpre-include=/usr/include/finclude/math-vector-fortran.h
REM seed 1883516496 -732702646 1101301018 1836579446 -692927812 -1999014241 -244365217 -644483604 302916155 1029492472 1002179126 529343191 -721813284 695906980 -682806382 321449492 -1030625050 1618103383 -383566792 1103979166 1816802649 2113833488 -1675228806 -713207247 1552983389 1814636104 455047333 2032304767 -1315582399 -1620516442 -2144547724 437658900 -1706852330
REM
CELL 1.54180   50.00000   50.00000   50.00000   90.00000   90.00000   90.00000
LATT -1
SFAC C  
C      1  0.4351480000000  0.5188550000000  0.4764520000000 1.0
C      1  0.4938580000000  0.3691530000000  0.5700150000000 1.0
C      1  0.4772680000000  0.6097720000000  0.4235660000000 1.0
C      1  0.5366260000000  0.3814240000000  0.5397930000000 1.0
C      1  0.6094930000000  0.5608920000000  0.5545570000000 1.0
C      1  0.5228970000000  0.5004580000000  0.5381180000000 1.0
C      1  0.4885610000000  0.5610030000000  0.4679800000000 1.0
C      1  0.4601420000000  0.4364800000000  0.5634580000000 1.0
C      1  0.4342240000000  0.5352120000000  0.4553280000000 1.0
C      1  0.5135130000000  0.3506300000000  0.5666820000000 1.0
C      1  0.5002240000000  0.5723180000000  0.4041160000000 1.0
C      1  0.4735540000000  0.4136240000000  0.5632280000000 1.0
C      1  0.5887540000000  0.5455920000000  0.5506280000000 1.0
C      1  0.4488080000000  0.5535020000000  0.4423310000000 1.0
C      1  0.5168770000000  0.4018200000000  0.5421960000000 1.0
C      1  0.4437110000000  0.4889500000000  0.5141180000000 1.0
C      1  0.4829570000000  0.5020920000000  0.5658320000000 1.0
C      1  0.5464050000000  0.5147620000000  0.5426240000000 1.0
C      1  0.4823250000000  0.5675030000000  0.5596020000000 1.0
C      1  0.5158480000000  0.5613090000000  0.3857790000000 1.0
C      1  0.5351780000000  0.3568530000000  0.5514000000000 1.0
C      1  0.5676660000000  0.5300390000000  0.5466330000000 1.0
C      1  0.4950190000000  0.5804710000000  0.4872820000000 1.0
C      1  0.4837330000000  0.5831920000000  0.4238980000000 1.0
C      1  0.4581890000000  0.4839190000000  0.6032000000000 1.0
C      1  0.4654000000000  0.4832700000000  0.5768880000000 1.0
C      1  0.4916690000000  0.4529300000000  0.4675710000000 1.0
C      1  0.4877550000000  0.5593400000000  0.5340690000000 1.0
C      1  0.5314700000000  0.5502270000000  0.3674660000000 1.0
C      1  0.5627170000000  0.5280570000000  0.3308360000000 1.0
C      1  0.4886030000000  0.5346560000000  0.4783880000000 1.0
C      1  0.5235700000000  0.4746270000000  0.5274880000000 1.0
C      1  0.5159560000000  0.4504950000000  0.5156640000000 1.0
C      1  0.4441600000000  0.4724790000000  0.5349120000000 1.0
C      1  0.5193120000000  0.4263580000000  0.5293030000000 1.0
C      1  0.4552060000000  0.4635530000000  0.5590220000000 1.0
C      1  0.4865820000000  0.5315810000000  0.5268910000000 1.0
C      1  0.4976730000000  0.5120330000000  0.5442420000000 1.0
C      1  0.5780860000000  0.5171530000000  0.3128210000000 1.0
C      1  0.5470920000000  0.5391440000000  0.3491530000000 1.0
C      1  0.4513660000000  0.5101390000000  0.4977370000000 1.0
C      1  0.5041970000000  0.4506810000000  0.4903130000000 1.0
C      1  0.4738000000000  0.5663380000000  0.4443160000000 1.0
C      1  0.4939670000000  0.3952750000000  0.5586690000000 1.0
C      1  0.4762610000000  0.5237130000000  0.5013890000000 1.0
C      1  0.4941830000000  0.5781250000000  0.5140470000000 1.0
END
