TITL C-3866676-3738-1 -91.8486223254706 125000 -892.907281252645 0 0 146 (C1) n - 1
REM
REM in /home/nfs/bkarasulu/CARBON/AIRSS/Generating-Clusters/LCBOP/Only-C1/SD-CG/HFTN-CG/FIRE-CG
REM
REM
REM
REM
REM
REM ./C.cell (11c1c37f851c82e70ff6c80c92926a4b)
REM AIRSS Version 0.9.1 bugfix July 2018 build 013d7b7c2542+ Fri, 06 Jul 2018 19:26:36 +0100
REM compiler GCC version 9.2.1 20190827 (Red Hat 9.2.1-1)
REM options -cpp -mtune=generic -march=x86-64 -g -O0 -fpre-include=/usr/include/finclude/math-vector-fortran.h
REM seed -617399706 1394915582 132901460 1228644559 -953006553 1387338312 -496139948 10622822 1659265281 -1201144059 1447473533 -1155405065 1448115268 1744825721 -1656536819 -1258552199 1216239818 847436813 2060301919 -968144240 -922024901 971792345 -1719722760 1671610765 -2031588904 3120570 -756680467 165343455 58745053 1512686259 -1585358487 446743536 -1989310739
REM
CELL 1.54180   50.00000   50.00000   50.00000   90.00000   90.00000   90.00000
LATT -1
SFAC C  
C      1  0.5850290000000  0.4724560000000  0.5527670000000 1.0
C      1  0.3831040000000  0.4593990000000  0.5468450000000 1.0
C      1  0.4534270000000  0.4369230000000  0.4631160000000 1.0
C      1  0.5073220000000  0.4801850000000  0.5410020000000 1.0
C      1  0.4641480000000  0.4156700000000  0.5514950000000 1.0
C      1  0.5980440000000  0.4302390000000  0.5334220000000 1.0
C      1  0.5679170000000  0.4940730000000  0.5470810000000 1.0
C      1  0.5374400000000  0.6353440000000  0.6816020000000 1.0
C      1  0.5276850000000  0.6110280000000  0.6360320000000 1.0
C      1  0.5831010000000  0.4796410000000  0.4174220000000 1.0
C      1  0.3992850000000  0.4570150000000  0.4746280000000 1.0
C      1  0.5621750000000  0.5031870000000  0.4565240000000 1.0
C      1  0.5111050000000  0.3994330000000  0.5252220000000 1.0
C      1  0.4953600000000  0.5520930000000  0.3960670000000 1.0
C      1  0.5411000000000  0.4840770000000  0.4434270000000 1.0
C      1  0.5756130000000  0.5228560000000  0.4405760000000 1.0
C      1  0.4267100000000  0.5517380000000  0.4906760000000 1.0
C      1  0.5182770000000  0.6032250000000  0.4841570000000 1.0
C      1  0.4292040000000  0.5233290000000  0.4890190000000 1.0
C      1  0.5215290000000  0.4678410000000  0.4642860000000 1.0
C      1  0.6186750000000  0.4710460000000  0.5175770000000 1.0
C      1  0.4356630000000  0.5627690000000  0.5170430000000 1.0
C      1  0.4841290000000  0.4658340000000  0.5505320000000 1.0
C      1  0.4772370000000  0.4701400000000  0.4905300000000 1.0
C      1  0.4255370000000  0.4636250000000  0.5112200000000 1.0
C      1  0.5796620000000  0.4979330000000  0.3956460000000 1.0
C      1  0.4651210000000  0.5212470000000  0.5234120000000 1.0
C      1  0.4568430000000  0.5836940000000  0.5769830000000 1.0
C      1  0.4681930000000  0.6003120000000  0.5017350000000 1.0
C      1  0.5531830000000  0.4782010000000  0.6115100000000 1.0
C      1  0.5425920000000  0.4514680000000  0.4056820000000 1.0
C      1  0.4912170000000  0.6081650000000  0.4904960000000 1.0
C      1  0.5229720000000  0.5502270000000  0.4043810000000 1.0
C      1  0.5561030000000  0.5181850000000  0.5080130000000 1.0
C      1  0.5459730000000  0.5811580000000  0.5274840000000 1.0
C      1  0.5287730000000  0.5779440000000  0.5514510000000 1.0
C      1  0.4312560000000  0.5235290000000  0.5540270000000 1.0
C      1  0.5560030000000  0.4018310000000  0.5449730000000 1.0
C      1  0.5313050000000  0.3876310000000  0.4748310000000 1.0
C      1  0.5774790000000  0.5485260000000  0.4331880000000 1.0
C      1  0.4873460000000  0.5403200000000  0.5239580000000 1.0
C      1  0.4872120000000  0.5438170000000  0.3713240000000 1.0
C      1  0.5197990000000  0.4480600000000  0.3918210000000 1.0
C      1  0.3982820000000  0.4250730000000  0.5169870000000 1.0
C      1  0.4846650000000  0.5892550000000  0.5765740000000 1.0
C      1  0.4801340000000  0.4334420000000  0.5013670000000 1.0
C      1  0.4578740000000  0.3935640000000  0.4831580000000 1.0
C      1  0.5242500000000  0.5056690000000  0.4266140000000 1.0
C      1  0.5575740000000  0.4670170000000  0.4241000000000 1.0
C      1  0.4002410000000  0.4859790000000  0.4811200000000 1.0
C      1  0.4769970000000  0.5638630000000  0.4149610000000 1.0
C      1  0.4136260000000  0.4905650000000  0.3987070000000 1.0
C      1  0.4697920000000  0.4795800000000  0.4425030000000 1.0
C      1  0.3946060000000  0.4333910000000  0.5441500000000 1.0
C      1  0.6123760000000  0.5223420000000  0.4742770000000 1.0
C      1  0.5888330000000  0.5611570000000  0.5037110000000 1.0
C      1  0.5148330000000  0.5245480000000  0.4482700000000 1.0
C      1  0.5511240000000  0.5194560000000  0.5834850000000 1.0
C      1  0.4598330000000  0.4786210000000  0.5419120000000 1.0
C      1  0.4307200000000  0.4347540000000  0.4469690000000 1.0
C      1  0.5590570000000  0.5445880000000  0.5712250000000 1.0
C      1  0.5363910000000  0.5244830000000  0.4052710000000 1.0
C      1  0.5315180000000  0.5322330000000  0.4698010000000 1.0
C      1  0.5529370000000  0.5148770000000  0.4800100000000 1.0
C      1  0.6133650000000  0.5012530000000  0.4569080000000 1.0
C      1  0.4519420000000  0.5525930000000  0.4221110000000 1.0
C      1  0.6036940000000  0.4850580000000  0.4370250000000 1.0
C      1  0.5505460000000  0.4375600000000  0.5062700000000 1.0
C      1  0.5482910000000  0.4318940000000  0.5887000000000 1.0
C      1  0.3985440000000  0.4110990000000  0.5869350000000 1.0
C      1  0.5615530000000  0.4559740000000  0.5957630000000 1.0
C      1  0.4364290000000  0.5704580000000  0.5654800000000 1.0
C      1  0.5326630000000  0.5337210000000  0.5151920000000 1.0
C      1  0.4683160000000  0.3906200000000  0.5369670000000 1.0
C      1  0.4359630000000  0.3787840000000  0.4774360000000 1.0
C      1  0.4145320000000  0.5858070000000  0.4571360000000 1.0
C      1  0.4104920000000  0.4216940000000  0.5647120000000 1.0
C      1  0.5436570000000  0.6257600000000  0.4498820000000 1.0
C      1  0.5729580000000  0.5167740000000  0.5307510000000 1.0
C      1  0.4249840000000  0.5131690000000  0.4417160000000 1.0
C      1  0.5342860000000  0.5713720000000  0.4207480000000 1.0
C      1  0.5215950000000  0.5458060000000  0.4921070000000 1.0
C      1  0.4751750000000  0.4573330000000  0.4609760000000 1.0
C      1  0.5384450000000  0.3923360000000  0.5242290000000 1.0
C      1  0.4814350000000  0.5675880000000  0.5344230000000 1.0
C      1  0.5592230000000  0.5152400000000  0.3912750000000 1.0
C      1  0.4049410000000  0.4848430000000  0.5107430000000 1.0
C      1  0.4979700000000  0.6002250000000  0.5985320000000 1.0
C      1  0.5457520000000  0.3845430000000  0.4977260000000 1.0
C      1  0.5023450000000  0.4280520000000  0.5234790000000 1.0
C      1  0.4850320000000  0.4363470000000  0.5479590000000 1.0
C      1  0.5710380000000  0.5650600000000  0.5261650000000 1.0
C      1  0.4888160000000  0.3835780000000  0.5172560000000 1.0
C      1  0.4303240000000  0.5515680000000  0.5446400000000 1.0
C      1  0.4991650000000  0.5796480000000  0.5534050000000 1.0
C      1  0.4682690000000  0.4976960000000  0.4827860000000 1.0
C      1  0.4720690000000  0.4440850000000  0.4092080000000 1.0
C      1  0.5360680000000  0.5953880000000  0.5049260000000 1.0
C      1  0.4599020000000  0.5794790000000  0.5186030000000 1.0
C      1  0.4870100000000  0.5276350000000  0.4522700000000 1.0
C      1  0.5166980000000  0.5880990000000  0.4362370000000 1.0
C      1  0.5084520000000  0.4758140000000  0.4906740000000 1.0
C      1  0.5036830000000  0.4454050000000  0.4562420000000 1.0
C      1  0.4928050000000  0.4489040000000  0.3904950000000 1.0
C      1  0.5526310000000  0.5053220000000  0.6079810000000 1.0
C      1  0.5414100000000  0.5820130000000  0.5989380000000 1.0
C      1  0.5726940000000  0.5426900000000  0.5451260000000 1.0
C      1  0.4131360000000  0.5144430000000  0.5731840000000 1.0
C      1  0.4244030000000  0.5608260000000  0.4628480000000 1.0
C      1  0.4940030000000  0.5487450000000  0.4947580000000 1.0
C      1  0.5185370000000  0.5040360000000  0.5502460000000 1.0
C      1  0.5824150000000  0.4090280000000  0.5379290000000 1.0
C      1  0.6009880000000  0.4582580000000  0.5339660000000 1.0
C      1  0.4537190000000  0.5142100000000  0.4989230000000 1.0
C      1  0.5128080000000  0.5272870000000  0.5346930000000 1.0
C      1  0.5022460000000  0.4928590000000  0.4106470000000 1.0
C      1  0.5469190000000  0.4125050000000  0.5698800000000 1.0
C      1  0.5326020000000  0.6232850000000  0.6590010000000 1.0
C      1  0.4532170000000  0.5070020000000  0.5448680000000 1.0
C      1  0.4101420000000  0.4423750000000  0.4982350000000 1.0
C      1  0.4061100000000  0.4452020000000  0.4501690000000 1.0
C      1  0.5269720000000  0.4441820000000  0.5180650000000 1.0
C      1  0.5043120000000  0.3948130000000  0.4682840000000 1.0
C      1  0.4791690000000  0.4207640000000  0.4261330000000 1.0
C      1  0.5442000000000  0.5014060000000  0.5623010000000 1.0
C      1  0.5833920000000  0.4619960000000  0.5788160000000 1.0
C      1  0.5225210000000  0.5981820000000  0.6119610000000 1.0
C      1  0.4309840000000  0.4920410000000  0.4200210000000 1.0
C      1  0.4801320000000  0.5482130000000  0.4705840000000 1.0
C      1  0.5187580000000  0.4709360000000  0.5164980000000 1.0
C      1  0.4325560000000  0.5423730000000  0.4405430000000 1.0
C      1  0.3865860000000  0.4820070000000  0.5320400000000 1.0
C      1  0.4843300000000  0.3841810000000  0.4882100000000 1.0
C      1  0.3980020000000  0.5076180000000  0.5932760000000 1.0
C      1  0.5433980000000  0.5682070000000  0.5747170000000 1.0
C      1  0.6033740000000  0.5439200000000  0.4883080000000 1.0
C      1  0.4891460000000  0.5844960000000  0.4303760000000 1.0
C      1  0.4602660000000  0.4216630000000  0.4860670000000 1.0
C      1  0.5264260000000  0.6054980000000  0.4567510000000 1.0
C      1  0.4540780000000  0.4736350000000  0.4207320000000 1.0
C      1  0.4730370000000  0.5039430000000  0.4556080000000 1.0
C      1  0.4156080000000  0.5068160000000  0.4689380000000 1.0
C      1  0.4984800000000  0.4172440000000  0.4487800000000 1.0
C      1  0.4520410000000  0.4676240000000  0.5168150000000 1.0
C      1  0.4385920000000  0.4209430000000  0.5619550000000 1.0
C      1  0.5617240000000  0.5690760000000  0.4263890000000 1.0
END
