TITL C-3866672-3872-258 -1436.73921004528 125000 -1106.59069405514 0 0 178 (C1) n - 1
REM
REM in /home/nfs/bkarasulu/CARBON/AIRSS/Generating-Clusters/LCBOP/Only-C1/SD-CG/HFTN-CG/FIRE-CG
REM
REM
REM
REM
REM
REM ./C.cell (11c1c37f851c82e70ff6c80c92926a4b)
REM AIRSS Version 0.9.1 bugfix July 2018 build 013d7b7c2542+ Fri, 06 Jul 2018 19:26:36 +0100
REM compiler GCC version 9.2.1 20190827 (Red Hat 9.2.1-1)
REM options -cpp -mtune=generic -march=x86-64 -g -O0 -fpre-include=/usr/include/finclude/math-vector-fortran.h
REM seed -1186134629 -1876845098 -1734203764 -945856662 -996296686 -1319506186 1799080034 -81528695 -1156648573 560059050 1254411707 -1714805137 1137182459 -1966658684 -915031817 1689745311 -1528382289 -194730835 592295039 1438646961 -352682511 -1100439461 -189863820 2142257711 1781134276 1768691432 1063663080 -665120228 11295219 1067168993 -2089579882 679751268 1638344315
REM
CELL 1.54180   50.00000   50.00000   50.00000   90.00000   90.00000   90.00000
LATT -1
SFAC C  
C      1  0.5561680000000  0.5440950000000  0.5962540000000 1.0
C      1  0.5211900000000  0.4299350000000  0.6141380000000 1.0
C      1  0.5887370000000  0.4120500000000  0.5261850000000 1.0
C      1  0.4561540000000  0.5456020000000  0.5780250000000 1.0
C      1  0.5575190000000  0.5068530000000  0.4161100000000 1.0
C      1  0.5210210000000  0.4307070000000  0.4633450000000 1.0
C      1  0.4575950000000  0.5315860000000  0.4060530000000 1.0
C      1  0.3912970000000  0.4908900000000  0.4558510000000 1.0
C      1  0.4627630000000  0.4068310000000  0.4883540000000 1.0
C      1  0.5619580000000  0.5255510000000  0.4799240000000 1.0
C      1  0.5328340000000  0.4398380000000  0.5186670000000 1.0
C      1  0.5800770000000  0.4931230000000  0.5120850000000 1.0
C      1  0.5383440000000  0.3744250000000  0.4823380000000 1.0
C      1  0.5142320000000  0.6021850000000  0.4531240000000 1.0
C      1  0.5167750000000  0.4832580000000  0.4829780000000 1.0
C      1  0.5792350000000  0.4441310000000  0.5939290000000 1.0
C      1  0.4856710000000  0.5967660000000  0.4510640000000 1.0
C      1  0.4342410000000  0.5003840000000  0.4629570000000 1.0
C      1  0.5046410000000  0.5537840000000  0.5990950000000 1.0
C      1  0.4168660000000  0.5332510000000  0.5281550000000 1.0
C      1  0.4653200000000  0.4846010000000  0.6331840000000 1.0
C      1  0.5808140000000  0.4668570000000  0.5227310000000 1.0
C      1  0.4710810000000  0.5137700000000  0.5475530000000 1.0
C      1  0.5327060000000  0.5693460000000  0.4931890000000 1.0
C      1  0.4487400000000  0.5210950000000  0.3269720000000 1.0
C      1  0.4717490000000  0.5991140000000  0.4792080000000 1.0
C      1  0.4813180000000  0.5196660000000  0.4176170000000 1.0
C      1  0.4988500000000  0.4132980000000  0.4558780000000 1.0
C      1  0.5181320000000  0.6127210000000  0.4806380000000 1.0
C      1  0.5190230000000  0.4403970000000  0.5666590000000 1.0
C      1  0.5097770000000  0.4734720000000  0.3520390000000 1.0
C      1  0.3845750000000  0.5062360000000  0.5066730000000 1.0
C      1  0.4409410000000  0.5135480000000  0.4876150000000 1.0
C      1  0.3884250000000  0.4612540000000  0.4942060000000 1.0
C      1  0.6074670000000  0.4696430000000  0.5670420000000 1.0
C      1  0.5725110000000  0.4950700000000  0.5898930000000 1.0
C      1  0.5489560000000  0.6039430000000  0.4188230000000 1.0
C      1  0.4769130000000  0.6147200000000  0.5396360000000 1.0
C      1  0.4463130000000  0.4939290000000  0.5074630000000 1.0
C      1  0.4985600000000  0.5432820000000  0.5303970000000 1.0
C      1  0.4889340000000  0.4234360000000  0.4084920000000 1.0
C      1  0.5045940000000  0.4787300000000  0.4578170000000 1.0
C      1  0.5323100000000  0.5706290000000  0.5631170000000 1.0
C      1  0.4952060000000  0.3794010000000  0.5658430000000 1.0
C      1  0.5541890000000  0.4580470000000  0.5298840000000 1.0
C      1  0.4155280000000  0.4159460000000  0.5413250000000 1.0
C      1  0.4500100000000  0.6060390000000  0.5377640000000 1.0
C      1  0.5267940000000  0.4681300000000  0.5693440000000 1.0
C      1  0.5789790000000  0.4227990000000  0.5770650000000 1.0
C      1  0.4942660000000  0.4481950000000  0.4933980000000 1.0
C      1  0.6478090000000  0.4241950000000  0.4743840000000 1.0
C      1  0.5732130000000  0.5074150000000  0.4594370000000 1.0
C      1  0.6213710000000  0.5216300000000  0.4804040000000 1.0
C      1  0.4224830000000  0.5097040000000  0.5712710000000 1.0
C      1  0.4551480000000  0.3803800000000  0.5393840000000 1.0
C      1  0.4914550000000  0.6200860000000  0.4915410000000 1.0
C      1  0.5159550000000  0.4224320000000  0.5883980000000 1.0
C      1  0.5680110000000  0.4794920000000  0.4652620000000 1.0
C      1  0.4472340000000  0.4456730000000  0.5053690000000 1.0
C      1  0.4516740000000  0.4730270000000  0.5524980000000 1.0
C      1  0.4328550000000  0.3953360000000  0.5418180000000 1.0
C      1  0.5413440000000  0.5521150000000  0.5434280000000 1.0
C      1  0.4530050000000  0.4775080000000  0.4641290000000 1.0
C      1  0.5020640000000  0.5453060000000  0.4676770000000 1.0
C      1  0.6340730000000  0.4978130000000  0.4737880000000 1.0
C      1  0.5941630000000  0.4213570000000  0.5014840000000 1.0
C      1  0.5614230000000  0.5168550000000  0.6049540000000 1.0
C      1  0.4784480000000  0.5744170000000  0.4970200000000 1.0
C      1  0.5340210000000  0.6034880000000  0.5272030000000 1.0
C      1  0.6297550000000  0.4445860000000  0.4764440000000 1.0
C      1  0.4136280000000  0.4530380000000  0.4268600000000 1.0
C      1  0.5967330000000  0.5120460000000  0.5241370000000 1.0
C      1  0.4893880000000  0.4931600000000  0.6256100000000 1.0
C      1  0.5840260000000  0.4567110000000  0.4674800000000 1.0
C      1  0.4832340000000  0.4324350000000  0.5330590000000 1.0
C      1  0.4768710000000  0.5125710000000  0.4443520000000 1.0
C      1  0.4279860000000  0.5381410000000  0.5801790000000 1.0
C      1  0.5581090000000  0.4024410000000  0.4418750000000 1.0
C      1  0.4025000000000  0.5727320000000  0.4849970000000 1.0
C      1  0.4916540000000  0.6127290000000  0.5857320000000 1.0
C      1  0.5243490000000  0.5347180000000  0.5300210000000 1.0
C      1  0.4262690000000  0.5931380000000  0.5281730000000 1.0
C      1  0.4159530000000  0.4232480000000  0.4740140000000 1.0
C      1  0.5163730000000  0.4949650000000  0.3388430000000 1.0
C      1  0.5337910000000  0.4454990000000  0.4408280000000 1.0
C      1  0.5484230000000  0.4764460000000  0.5526070000000 1.0
C      1  0.4425240000000  0.4143840000000  0.4682400000000 1.0
C      1  0.3981660000000  0.4626320000000  0.4483420000000 1.0
C      1  0.5216660000000  0.5950240000000  0.5517270000000 1.0
C      1  0.5213800000000  0.5456370000000  0.4065450000000 1.0
C      1  0.4829000000000  0.3743910000000  0.5410240000000 1.0
C      1  0.5038340000000  0.5628010000000  0.4902320000000 1.0
C      1  0.4109530000000  0.4481940000000  0.5983180000000 1.0
C      1  0.3943870000000  0.4623040000000  0.5226810000000 1.0
C      1  0.5787070000000  0.5547340000000  0.5817690000000 1.0
C      1  0.4296180000000  0.4681330000000  0.5988520000000 1.0
C      1  0.4961980000000  0.4353600000000  0.3859650000000 1.0
C      1  0.4028550000000  0.4391620000000  0.5363040000000 1.0
C      1  0.4500310000000  0.5250340000000  0.3527100000000 1.0
C      1  0.4868320000000  0.3979420000000  0.4765130000000 1.0
C      1  0.6019810000000  0.4395230000000  0.4810840000000 1.0
C      1  0.4725480000000  0.5861140000000  0.4288050000000 1.0
C      1  0.6072300000000  0.5652150000000  0.4814690000000 1.0
C      1  0.4112560000000  0.5637680000000  0.4586230000000 1.0
C      1  0.4804270000000  0.4191850000000  0.4346830000000 1.0
C      1  0.4780060000000  0.5322220000000  0.4642940000000 1.0
C      1  0.3984640000000  0.4455290000000  0.4724800000000 1.0
C      1  0.4964500000000  0.6069080000000  0.5593370000000 1.0
C      1  0.6375390000000  0.4714490000000  0.4737300000000 1.0
C      1  0.4320670000000  0.5834600000000  0.4522680000000 1.0
C      1  0.4758110000000  0.4590590000000  0.5425160000000 1.0
C      1  0.4347740000000  0.4364320000000  0.4252690000000 1.0
C      1  0.4957040000000  0.4801140000000  0.5328140000000 1.0
C      1  0.4524600000000  0.4961610000000  0.5342790000000 1.0
C      1  0.6024210000000  0.4627410000000  0.5411510000000 1.0
C      1  0.3849990000000  0.5562470000000  0.4987140000000 1.0
C      1  0.5452680000000  0.4822490000000  0.4827380000000 1.0
C      1  0.5250460000000  0.5553750000000  0.3807140000000 1.0
C      1  0.4644210000000  0.4237960000000  0.5121120000000 1.0
C      1  0.4116510000000  0.5601450000000  0.5695180000000 1.0
C      1  0.4119750000000  0.5788080000000  0.5492160000000 1.0
C      1  0.5066090000000  0.3966310000000  0.5825720000000 1.0
C      1  0.5231790000000  0.4730080000000  0.4357810000000 1.0
C      1  0.6073840000000  0.5568790000000  0.5095410000000 1.0
C      1  0.6120870000000  0.5432150000000  0.4622180000000 1.0
C      1  0.5308670000000  0.5895190000000  0.4334060000000 1.0
C      1  0.5887340000000  0.5469210000000  0.5566070000000 1.0
C      1  0.5467860000000  0.5492610000000  0.4758610000000 1.0
C      1  0.5550370000000  0.5051380000000  0.5013280000000 1.0
C      1  0.3938970000000  0.4904120000000  0.5306900000000 1.0
C      1  0.4220080000000  0.5908360000000  0.4988010000000 1.0
C      1  0.5984930000000  0.5638410000000  0.5355250000000 1.0
C      1  0.5001480000000  0.3682690000000  0.5193000000000 1.0
C      1  0.5089960000000  0.4892640000000  0.5772180000000 1.0
C      1  0.4394940000000  0.5466660000000  0.4232410000000 1.0
C      1  0.5531200000000  0.4269160000000  0.4309130000000 1.0
C      1  0.4096840000000  0.5099060000000  0.5456520000000 1.0
C      1  0.5046130000000  0.4953440000000  0.6039220000000 1.0
C      1  0.5845380000000  0.5193070000000  0.5490640000000 1.0
C      1  0.4526020000000  0.4217780000000  0.4417260000000 1.0
C      1  0.5831510000000  0.4123330000000  0.5525560000000 1.0
C      1  0.4860900000000  0.6292970000000  0.5172550000000 1.0
C      1  0.5303910000000  0.5109040000000  0.5168620000000 1.0
C      1  0.5271980000000  0.5647210000000  0.3564850000000 1.0
C      1  0.4439880000000  0.5467570000000  0.5281320000000 1.0
C      1  0.4521740000000  0.5286920000000  0.3788600000000 1.0
C      1  0.4356540000000  0.4832170000000  0.5755840000000 1.0
C      1  0.4160370000000  0.5389410000000  0.4416630000000 1.0
C      1  0.3825130000000  0.4888730000000  0.4839890000000 1.0
C      1  0.5664040000000  0.4988350000000  0.5613400000000 1.0
C      1  0.4430710000000  0.4745970000000  0.6225390000000 1.0
C      1  0.5282150000000  0.5608880000000  0.4298620000000 1.0
C      1  0.4498600000000  0.4696660000000  0.4921140000000 1.0
C      1  0.5778540000000  0.5172990000000  0.4334410000000 1.0
C      1  0.3942640000000  0.5327970000000  0.5097700000000 1.0
C      1  0.5097420000000  0.5191370000000  0.4109940000000 1.0
C      1  0.4779180000000  0.4856740000000  0.4530390000000 1.0
C      1  0.5095440000000  0.4909900000000  0.5102610000000 1.0
C      1  0.5889140000000  0.4705770000000  0.5893120000000 1.0
C      1  0.5515640000000  0.3848830000000  0.4613270000000 1.0
C      1  0.6129060000000  0.5280170000000  0.5074130000000 1.0
C      1  0.5031680000000  0.4528050000000  0.3672670000000 1.0
C      1  0.5309750000000  0.5577270000000  0.5892660000000 1.0
C      1  0.5342570000000  0.5972550000000  0.4994220000000 1.0
C      1  0.4577690000000  0.5350790000000  0.4839980000000 1.0
C      1  0.5296780000000  0.4975490000000  0.4186750000000 1.0
C      1  0.4115690000000  0.5111310000000  0.4496550000000 1.0
C      1  0.5271210000000  0.5465140000000  0.4540990000000 1.0
C      1  0.4581540000000  0.5549940000000  0.5039730000000 1.0
C      1  0.4476440000000  0.5738640000000  0.4304500000000 1.0
C      1  0.4943100000000  0.4993940000000  0.5552330000000 1.0
C      1  0.5990680000000  0.5366810000000  0.4372990000000 1.0
C      1  0.4780870000000  0.5512320000000  0.5947120000000 1.0
C      1  0.5205640000000  0.4385220000000  0.4916890000000 1.0
C      1  0.5126520000000  0.4316720000000  0.5394050000000 1.0
C      1  0.4614480000000  0.5396160000000  0.5503610000000 1.0
C      1  0.5207560000000  0.3688970000000  0.5019690000000 1.0
C      1  0.4414160000000  0.5972360000000  0.4765770000000 1.0
END
