TITL C-3866674-3872-288 1.01393959268391 125000 -296.531978622 0 0 50 (C1) n - 1
REM
REM in /home/nfs/bkarasulu/CARBON/AIRSS/Generating-Clusters/LCBOP/Only-C1/SD-CG/FIRE-CG
REM
REM
REM
REM
REM
REM ./C.cell (11c1c37f851c82e70ff6c80c92926a4b)
REM AIRSS Version 0.9.1 bugfix July 2018 build 013d7b7c2542+ Fri, 06 Jul 2018 19:26:36 +0100
REM compiler GCC version 9.2.1 20190827 (Red Hat 9.2.1-1)
REM options -cpp -mtune=generic -march=x86-64 -g -O0 -fpre-include=/usr/include/finclude/math-vector-fortran.h
REM seed 794992057 -1229887153 -1488383539 487240651 -704277112 1758066200 -191047497 -843925738 2082453026 -538750645 -1932829995 1957145116 642636767 1655192776 -199825573 453916526 -338280710 -1915630329 -671565584 -1617781661 350284507 -1441428515 -1612293577 1738432280 -1173586212 -853332101 -1303085505 2059291674 -394635773 1272579652 -40935360 -1569469873 -680687747
REM
CELL 1.54180   50.00000   50.00000   50.00000   90.00000   90.00000   90.00000
LATT -1
SFAC C  
C      1  0.5391190000000  0.5105170000000  0.4317470000000 1.0
C      1  0.5374000000000  0.4814740000000  0.5693010000000 1.0
C      1  0.4660800000000  0.5201080000000  0.3726610000000 1.0
C      1  0.5340150000000  0.4486280000000  0.5217980000000 1.0
C      1  0.5541210000000  0.4862940000000  0.5467500000000 1.0
C      1  0.5504850000000  0.4713350000000  0.5223290000000 1.0
C      1  0.4707390000000  0.5252440000000  0.4372460000000 1.0
C      1  0.3213150000000  0.6309860000000  0.5019590000000 1.0
C      1  0.5051950000000  0.4386660000000  0.6056450000000 1.0
C      1  0.4839240000000  0.4787740000000  0.5629000000000 1.0
C      1  0.5592380000000  0.4656690000000  0.4741600000000 1.0
C      1  0.5649580000000  0.5243870000000  0.4737730000000 1.0
C      1  0.5108820000000  0.4360640000000  0.5258440000000 1.0
C      1  0.4033260000000  0.5654810000000  0.4905820000000 1.0
C      1  0.4886440000000  0.4362510000000  0.5407200000000 1.0
C      1  0.5777880000000  0.5189520000000  0.5210320000000 1.0
C      1  0.4808700000000  0.4502890000000  0.5638030000000 1.0
C      1  0.5182830000000  0.4270590000000  0.4251090000000 1.0
C      1  0.4595770000000  0.5055920000000  0.5305870000000 1.0
C      1  0.4978620000000  0.4329790000000  0.4090700000000 1.0
C      1  0.5530030000000  0.5266700000000  0.4500170000000 1.0
C      1  0.5692430000000  0.5086010000000  0.4963840000000 1.0
C      1  0.4759080000000  0.4765370000000  0.3917850000000 1.0
C      1  0.4829380000000  0.4514920000000  0.3971540000000 1.0
C      1  0.4545000000000  0.5170660000000  0.5072400000000 1.0
C      1  0.4445830000000  0.5033040000000  0.5761820000000 1.0
C      1  0.3621570000000  0.5983650000000  0.4962930000000 1.0
C      1  0.3415670000000  0.6148110000000  0.4991490000000 1.0
C      1  0.4239000000000  0.5490370000000  0.4877640000000 1.0
C      1  0.4763140000000  0.5044810000000  0.3933840000000 1.0
C      1  0.5916160000000  0.5333550000000  0.5907330000000 1.0
C      1  0.4565560000000  0.5350230000000  0.3535300000000 1.0
C      1  0.5495580000000  0.4611040000000  0.4482960000000 1.0
C      1  0.5292220000000  0.4503970000000  0.6058890000000 1.0
C      1  0.5466510000000  0.4834730000000  0.4315100000000 1.0
C      1  0.4624000000000  0.4960220000000  0.5567380000000 1.0
C      1  0.5605050000000  0.4813040000000  0.4973720000000 1.0
C      1  0.5152240000000  0.5183230000000  0.4196870000000 1.0
C      1  0.5725230000000  0.4708370000000  0.6015950000000 1.0
C      1  0.5379810000000  0.4370320000000  0.4400540000000 1.0
C      1  0.5100980000000  0.4881400000000  0.5672990000000 1.0
C      1  0.4455820000000  0.5316150000000  0.4850910000000 1.0
C      1  0.6006610000000  0.5456510000000  0.6118660000000 1.0
C      1  0.4581940000000  0.5288590000000  0.4603040000000 1.0
C      1  0.4874510000000  0.5168190000000  0.4164740000000 1.0
C      1  0.5469240000000  0.4677240000000  0.5925220000000 1.0
C      1  0.3827420000000  0.5819230000000  0.4934370000000 1.0
C      1  0.4841070000000  0.4381300000000  0.5890100000000 1.0
C      1  0.5822110000000  0.5203930000000  0.5696260000000 1.0
C      1  0.5718640000000  0.5087640000000  0.5465980000000 1.0
END
