TITL C-3866675-3766-743 -0.247942867681014 125000 -1196.62499576505 0 0 194 (C1) n - 1
REM
REM in /home/nfs/bkarasulu/CARBON/AIRSS/Generating-Clusters/LCBOP/Only-C1/SD-CG/FIRE-CG
REM
REM
REM
REM
REM
REM ./C.cell (11c1c37f851c82e70ff6c80c92926a4b)
REM AIRSS Version 0.9.1 bugfix July 2018 build 013d7b7c2542+ Fri, 06 Jul 2018 19:26:36 +0100
REM compiler GCC version 9.2.1 20190827 (Red Hat 9.2.1-1)
REM options -cpp -mtune=generic -march=x86-64 -g -O0 -fpre-include=/usr/include/finclude/math-vector-fortran.h
REM seed -553951045 135405644 783972828 -567228748 1196036565 1752432952 1574066829 -1137494409 876575930 -1596214470 1092449616 2001267552 -600055463 -20359314 1156288379 164845300 -1983700847 1005877575 545036179 1759506616 -918011462 -1542422530 165156581 -1931494983 -1815814600 -945547833 1992491240 849093059 -1822123599 -1732852609 -1351685594 262635023 1673356717
REM
CELL 1.54180   50.00000   50.00000   50.00000   90.00000   90.00000   90.00000
LATT -1
SFAC C  
C      1  0.5282350000000  0.6092470000000  0.5822540000000 1.0
C      1  0.5677920000000  0.4514630000000  0.5007740000000 1.0
C      1  0.5007130000000  0.4106870000000  0.4398920000000 1.0
C      1  0.4338890000000  0.4052680000000  0.5578220000000 1.0
C      1  0.5480650000000  0.5829170000000  0.4385670000000 1.0
C      1  0.4704200000000  0.4213580000000  0.4755240000000 1.0
C      1  0.4759400000000  0.5932170000000  0.5301480000000 1.0
C      1  0.3748950000000  0.5351200000000  0.4798240000000 1.0
C      1  0.4961170000000  0.5942200000000  0.4797780000000 1.0
C      1  0.6221010000000  0.5627900000000  0.4547670000000 1.0
C      1  0.5502980000000  0.3944060000000  0.5017980000000 1.0
C      1  0.4631940000000  0.4613550000000  0.5251970000000 1.0
C      1  0.5326840000000  0.5480810000000  0.6204190000000 1.0
C      1  0.4203080000000  0.4732520000000  0.4115950000000 1.0
C      1  0.5019030000000  0.5198310000000  0.3607950000000 1.0
C      1  0.5702360000000  0.4652630000000  0.4360110000000 1.0
C      1  0.5772600000000  0.4058490000000  0.5444210000000 1.0
C      1  0.5765040000000  0.5365200000000  0.4578930000000 1.0
C      1  0.5463640000000  0.4138840000000  0.6095950000000 1.0
C      1  0.4780350000000  0.4502360000000  0.3809080000000 1.0
C      1  0.5971690000000  0.4972490000000  0.3510180000000 1.0
C      1  0.5381510000000  0.5157850000000  0.4385890000000 1.0
C      1  0.5744630000000  0.5356690000000  0.5405040000000 1.0
C      1  0.5254330000000  0.4315980000000  0.5149760000000 1.0
C      1  0.4487240000000  0.5679080000000  0.4031980000000 1.0
C      1  0.5469420000000  0.4785970000000  0.6397500000000 1.0
C      1  0.4536510000000  0.6077360000000  0.3752100000000 1.0
C      1  0.4632270000000  0.4397070000000  0.6028430000000 1.0
C      1  0.5223590000000  0.5225050000000  0.6313000000000 1.0
C      1  0.4637320000000  0.3668910000000  0.5561340000000 1.0
C      1  0.5323660000000  0.5493810000000  0.4034170000000 1.0
C      1  0.5526660000000  0.4183560000000  0.4517680000000 1.0
C      1  0.3779880000000  0.4717270000000  0.4346170000000 1.0
C      1  0.5353820000000  0.4604060000000  0.5899820000000 1.0
C      1  0.4436950000000  0.4137540000000  0.4722770000000 1.0
C      1  0.6114820000000  0.6112410000000  0.4471270000000 1.0
C      1  0.6159520000000  0.4994000000000  0.3698530000000 1.0
C      1  0.4560530000000  0.3581020000000  0.5302040000000 1.0
C      1  0.4872630000000  0.4301200000000  0.5907940000000 1.0
C      1  0.3904780000000  0.5507810000000  0.4953130000000 1.0
C      1  0.5374190000000  0.5691270000000  0.4612820000000 1.0
C      1  0.4977600000000  0.6420410000000  0.4706230000000 1.0
C      1  0.4551080000000  0.5321700000000  0.6138520000000 1.0
C      1  0.5108420000000  0.3974150000000  0.5601290000000 1.0
C      1  0.4755160000000  0.5724260000000  0.6009560000000 1.0
C      1  0.5339150000000  0.4940520000000  0.4838120000000 1.0
C      1  0.4777620000000  0.4481870000000  0.4754960000000 1.0
C      1  0.5323800000000  0.4587180000000  0.3961230000000 1.0
C      1  0.5496580000000  0.4986270000000  0.5334790000000 1.0
C      1  0.4766220000000  0.5879400000000  0.5012670000000 1.0
C      1  0.5487240000000  0.4521850000000  0.6431130000000 1.0
C      1  0.4222750000000  0.5640960000000  0.4123840000000 1.0
C      1  0.4192140000000  0.5452350000000  0.4328440000000 1.0
C      1  0.5162180000000  0.5627470000000  0.3839280000000 1.0
C      1  0.5243860000000  0.5249300000000  0.4158640000000 1.0
C      1  0.5400390000000  0.4496580000000  0.4988790000000 1.0
C      1  0.4853600000000  0.4059850000000  0.5732940000000 1.0
C      1  0.5564430000000  0.3897050000000  0.5307220000000 1.0
C      1  0.5253680000000  0.4674400000000  0.4831050000000 1.0
C      1  0.3994240000000  0.4563790000000  0.4948990000000 1.0
C      1  0.4769890000000  0.4381170000000  0.5272990000000 1.0
C      1  0.5729850000000  0.4394140000000  0.4477010000000 1.0
C      1  0.5938640000000  0.4509620000000  0.4901840000000 1.0
C      1  0.5579300000000  0.4000820000000  0.4742400000000 1.0
C      1  0.4221380000000  0.5847920000000  0.5491850000000 1.0
C      1  0.4167920000000  0.5118760000000  0.5628280000000 1.0
C      1  0.5660830000000  0.5613850000000  0.4995310000000 1.0
C      1  0.5507210000000  0.5665010000000  0.4159440000000 1.0
C      1  0.5715250000000  0.4210120000000  0.5690210000000 1.0
C      1  0.6182350000000  0.4982780000000  0.3964050000000 1.0
C      1  0.4554100000000  0.5479240000000  0.5390560000000 1.0
C      1  0.5029040000000  0.4967400000000  0.3804290000000 1.0
C      1  0.4140260000000  0.5527960000000  0.5079130000000 1.0
C      1  0.5083240000000  0.6056350000000  0.4128470000000 1.0
C      1  0.4656340000000  0.5450970000000  0.4071710000000 1.0
C      1  0.4879340000000  0.5529320000000  0.4601820000000 1.0
C      1  0.3754600000000  0.5220020000000  0.5455830000000 1.0
C      1  0.5169150000000  0.4674680000000  0.5462400000000 1.0
C      1  0.4186110000000  0.4273380000000  0.5669540000000 1.0
C      1  0.4214340000000  0.3905000000000  0.5364840000000 1.0
C      1  0.4045480000000  0.5609680000000  0.5558700000000 1.0
C      1  0.4787650000000  0.4156150000000  0.4202230000000 1.0
C      1  0.4930900000000  0.5778620000000  0.6223410000000 1.0
C      1  0.4205410000000  0.5395730000000  0.5666330000000 1.0
C      1  0.4323680000000  0.4209080000000  0.4471790000000 1.0
C      1  0.4940550000000  0.3665120000000  0.4966310000000 1.0
C      1  0.6257830000000  0.5890240000000  0.4513220000000 1.0
C      1  0.5132200000000  0.6078390000000  0.5601100000000 1.0
C      1  0.5622400000000  0.4687450000000  0.5796930000000 1.0
C      1  0.5252740000000  0.4942760000000  0.5463860000000 1.0
C      1  0.4667660000000  0.4868950000000  0.6077600000000 1.0
C      1  0.4079570000000  0.4620030000000  0.5211210000000 1.0
C      1  0.5013300000000  0.5878110000000  0.5441600000000 1.0
C      1  0.5663880000000  0.5151650000000  0.4415110000000 1.0
C      1  0.3831200000000  0.5111070000000  0.4678220000000 1.0
C      1  0.5803330000000  0.4917510000000  0.4327670000000 1.0
C      1  0.6242610000000  0.4933240000000  0.5414550000000 1.0
C      1  0.5859280000000  0.6181530000000  0.4433300000000 1.0
C      1  0.4571000000000  0.5019960000000  0.4325170000000 1.0
C      1  0.3932430000000  0.4999980000000  0.5511160000000 1.0
C      1  0.5336670000000  0.5946300000000  0.6040640000000 1.0
C      1  0.6024890000000  0.5391900000000  0.5398640000000 1.0
C      1  0.5254190000000  0.5099360000000  0.4626640000000 1.0
C      1  0.5603370000000  0.5120730000000  0.6031150000000 1.0
C      1  0.5006100000000  0.5113560000000  0.4072570000000 1.0
C      1  0.4728110000000  0.4875500000000  0.5315590000000 1.0
C      1  0.4101030000000  0.5052580000000  0.4738550000000 1.0
C      1  0.5673200000000  0.5104820000000  0.5525020000000 1.0
C      1  0.4748900000000  0.5194210000000  0.4171080000000 1.0
C      1  0.5006340000000  0.5276420000000  0.5168750000000 1.0
C      1  0.4839100000000  0.5869410000000  0.6464110000000 1.0
C      1  0.4554280000000  0.5951290000000  0.3999770000000 1.0
C      1  0.5954210000000  0.4383760000000  0.4652150000000 1.0
C      1  0.5040890000000  0.3912480000000  0.4882390000000 1.0
C      1  0.5997790000000  0.4213190000000  0.5347630000000 1.0
C      1  0.4368270000000  0.5490370000000  0.4547360000000 1.0
C      1  0.4854420000000  0.5032730000000  0.5090690000000 1.0
C      1  0.5711140000000  0.4925940000000  0.3480240000000 1.0
C      1  0.6015170000000  0.4483520000000  0.5472880000000 1.0
C      1  0.5617300000000  0.6071890000000  0.4406450000000 1.0
C      1  0.5311740000000  0.3805350000000  0.5461220000000 1.0
C      1  0.5161470000000  0.5627540000000  0.5440830000000 1.0
C      1  0.5549130000000  0.5467240000000  0.5210600000000 1.0
C      1  0.4315310000000  0.4978570000000  0.4192530000000 1.0
C      1  0.4591940000000  0.5511340000000  0.5929300000000 1.0
C      1  0.4480250000000  0.5946110000000  0.5425660000000 1.0
C      1  0.5183500000000  0.5152100000000  0.5651180000000 1.0
C      1  0.5282420000000  0.4203570000000  0.4351600000000 1.0
C      1  0.4757420000000  0.3534800000000  0.5109850000000 1.0
C      1  0.4816180000000  0.4763330000000  0.3764080000000 1.0
C      1  0.4477930000000  0.5472920000000  0.5670660000000 1.0
C      1  0.3707710000000  0.4928490000000  0.4500650000000 1.0
C      1  0.6036300000000  0.5436990000000  0.4569810000000 1.0
C      1  0.4110510000000  0.4547740000000  0.5687010000000 1.0
C      1  0.4739770000000  0.5010110000000  0.4826600000000 1.0
C      1  0.5208800000000  0.5735720000000  0.6178270000000 1.0
C      1  0.4301650000000  0.4705920000000  0.5829130000000 1.0
C      1  0.4495240000000  0.4644730000000  0.6033060000000 1.0
C      1  0.5231670000000  0.4056070000000  0.5034620000000 1.0
C      1  0.4138200000000  0.5194640000000  0.4232250000000 1.0
C      1  0.4917610000000  0.4046760000000  0.4667900000000 1.0
C      1  0.4830440000000  0.4285070000000  0.3955580000000 1.0
C      1  0.3567810000000  0.5677290000000  0.5455600000000 1.0
C      1  0.4895750000000  0.6117540000000  0.4333260000000 1.0
C      1  0.4375170000000  0.4937700000000  0.5672980000000 1.0
C      1  0.4605420000000  0.5550310000000  0.4686140000000 1.0
C      1  0.4803350000000  0.4926970000000  0.5831080000000 1.0
C      1  0.4951670000000  0.5157850000000  0.6360130000000 1.0
C      1  0.4294590000000  0.4853220000000  0.4701220000000 1.0
C      1  0.4358710000000  0.4591370000000  0.5221580000000 1.0
C      1  0.5264060000000  0.4213510000000  0.5630450000000 1.0
C      1  0.4695250000000  0.5100550000000  0.6244250000000 1.0
C      1  0.6213820000000  0.5199870000000  0.5415260000000 1.0
C      1  0.6141430000000  0.4636700000000  0.5045850000000 1.0
C      1  0.5093270000000  0.5706730000000  0.4679180000000 1.0
C      1  0.5806570000000  0.4491360000000  0.5680100000000 1.0
C      1  0.5482280000000  0.4276460000000  0.6325010000000 1.0
C      1  0.6045400000000  0.4950530000000  0.4189850000000 1.0
C      1  0.5108960000000  0.4477360000000  0.5939440000000 1.0
C      1  0.4577970000000  0.5670910000000  0.4942240000000 1.0
C      1  0.4412260000000  0.5552550000000  0.5145880000000 1.0
C      1  0.4810300000000  0.5396550000000  0.5340280000000 1.0
C      1  0.5565530000000  0.5407470000000  0.6053120000000 1.0
C      1  0.5225950000000  0.4401780000000  0.5420940000000 1.0
C      1  0.5061290000000  0.5464270000000  0.3633580000000 1.0
C      1  0.6150940000000  0.4684130000000  0.5325100000000 1.0
C      1  0.5287980000000  0.4808330000000  0.3788440000000 1.0
C      1  0.5311020000000  0.4377310000000  0.4126190000000 1.0
C      1  0.4556990000000  0.4948570000000  0.4614030000000 1.0
C      1  0.5430720000000  0.5022100000000  0.6253600000000 1.0
C      1  0.5473210000000  0.4171470000000  0.5817690000000 1.0
C      1  0.4306000000000  0.3685780000000  0.5233620000000 1.0
C      1  0.5501900000000  0.5004520000000  0.5056320000000 1.0
C      1  0.3974150000000  0.4705320000000  0.5467260000000 1.0
C      1  0.4022630000000  0.4582310000000  0.4275460000000 1.0
C      1  0.4544460000000  0.6300720000000  0.3276400000000 1.0
C      1  0.5669560000000  0.4977790000000  0.5790070000000 1.0
C      1  0.5110080000000  0.5896080000000  0.3911620000000 1.0
C      1  0.4538790000000  0.6190480000000  0.3512570000000 1.0
C      1  0.5046910000000  0.5045250000000  0.5863200000000 1.0
C      1  0.5007640000000  0.4609900000000  0.4724420000000 1.0
C      1  0.4633200000000  0.6092160000000  0.4232450000000 1.0
C      1  0.5190460000000  0.5438020000000  0.5653860000000 1.0
C      1  0.4649970000000  0.4944160000000  0.5590420000000 1.0
C      1  0.4944320000000  0.6164430000000  0.4614110000000 1.0
C      1  0.4603770000000  0.3939910000000  0.5654350000000 1.0
C      1  0.4150700000000  0.4434770000000  0.4484330000000 1.0
C      1  0.3782200000000  0.5510010000000  0.5485640000000 1.0
C      1  0.5584810000000  0.5535100000000  0.4734680000000 1.0
C      1  0.4168420000000  0.4593710000000  0.4722690000000 1.0
C      1  0.5252310000000  0.5456920000000  0.5212980000000 1.0
C      1  0.5476010000000  0.4869980000000  0.3590280000000 1.0
C      1  0.5817940000000  0.5833180000000  0.5038860000000 1.0
C      1  0.4507690000000  0.4140510000000  0.4266750000000 1.0
END
