TITL C-3866674-3872-373 -0.0571603702041965 125000 -282.50679841542 0 0 48 (C1) n - 1
REM
REM in /home/nfs/bkarasulu/CARBON/AIRSS/Generating-Clusters/LCBOP/Only-C1/SD-CG/FIRE-CG
REM
REM
REM
REM
REM
REM ./C.cell (11c1c37f851c82e70ff6c80c92926a4b)
REM AIRSS Version 0.9.1 bugfix July 2018 build 013d7b7c2542+ Fri, 06 Jul 2018 19:26:36 +0100
REM compiler GCC version 9.2.1 20190827 (Red Hat 9.2.1-1)
REM options -cpp -mtune=generic -march=x86-64 -g -O0 -fpre-include=/usr/include/finclude/math-vector-fortran.h
REM seed 424444996 1433679032 2145633904 1526577422 -2033082827 507936921 143440820 -1163435142 1099848009 1311535268 1127379626 -642705963 -99936510 -438729551 1083978392 -825781323 -1130162737 -527951273 471127983 -1281174397 -1156803793 -961750681 1599967669 603839441 710375300 -1069295083 1620733142 1557617076 -949900038 203151940 354259660 1442707603 -203132459
REM
CELL 1.54180   50.00000   50.00000   50.00000   90.00000   90.00000   90.00000
LATT -1
SFAC C  
C      1  0.5390850000000  0.5433390000000  0.5669860000000 1.0
C      1  0.4342400000000  0.5349140000000  0.4444680000000 1.0
C      1  0.5716570000000  0.4846230000000  0.5409900000000 1.0
C      1  0.5461980000000  0.5160270000000  0.5680100000000 1.0
C      1  0.5713590000000  0.5082380000000  0.5565600000000 1.0
C      1  0.5712310000000  0.5579800000000  0.5125210000000 1.0
C      1  0.5391810000000  0.5644310000000  0.5504090000000 1.0
C      1  0.5359480000000  0.4640380000000  0.4448340000000 1.0
C      1  0.5920660000000  0.5096670000000  0.4676820000000 1.0
C      1  0.5057820000000  0.5238150000000  0.5075350000000 1.0
C      1  0.5639900000000  0.4820440000000  0.5153040000000 1.0
C      1  0.5510600000000  0.5713030000000  0.5272420000000 1.0
C      1  0.5711400000000  0.5187090000000  0.4835880000000 1.0
C      1  0.5535240000000  0.5011100000000  0.4974660000000 1.0
C      1  0.4676860000000  0.4662410000000  0.4986240000000 1.0
C      1  0.5250460000000  0.5505070000000  0.4550520000000 1.0
C      1  0.4833350000000  0.5293860000000  0.5207970000000 1.0
C      1  0.4577780000000  0.5241940000000  0.4476640000000 1.0
C      1  0.3927080000000  0.4892780000000  0.4771690000000 1.0
C      1  0.3958320000000  0.4761390000000  0.4525240000000 1.0
C      1  0.4890030000000  0.4880110000000  0.4584330000000 1.0
C      1  0.4192850000000  0.4185330000000  0.5257770000000 1.0
C      1  0.5586770000000  0.4523830000000  0.4396300000000 1.0
C      1  0.5268130000000  0.5092850000000  0.5001630000000 1.0
C      1  0.4659040000000  0.5175850000000  0.5394810000000 1.0
C      1  0.5912280000000  0.5461800000000  0.5288770000000 1.0
C      1  0.3753210000000  0.4735500000000  0.4347560000000 1.0
C      1  0.4470160000000  0.4640700000000  0.4546530000000 1.0
C      1  0.4840260000000  0.5153810000000  0.4516960000000 1.0
C      1  0.4419160000000  0.4657650000000  0.5111970000000 1.0
C      1  0.5049000000000  0.5340530000000  0.4492720000000 1.0
C      1  0.4306260000000  0.4415770000000  0.5192900000000 1.0
C      1  0.4788220000000  0.5042110000000  0.5607760000000 1.0
C      1  0.5900320000000  0.5280830000000  0.5488480000000 1.0
C      1  0.4080380000000  0.3958520000000  0.5319970000000 1.0
C      1  0.6117120000000  0.5009830000000  0.4529290000000 1.0
C      1  0.5013320000000  0.4682470000000  0.5390680000000 1.0
C      1  0.5131800000000  0.4760050000000  0.4511760000000 1.0
C      1  0.4687410000000  0.4720570000000  0.4706720000000 1.0
C      1  0.5018490000000  0.4877190000000  0.5595080000000 1.0
C      1  0.5469840000000  0.5572950000000  0.4687380000000 1.0
C      1  0.4898650000000  0.4625240000000  0.5155200000000 1.0
C      1  0.4402860000000  0.5097750000000  0.5313400000000 1.0
C      1  0.5654960000000  0.5466500000000  0.4870030000000 1.0
C      1  0.4214770000000  0.4658810000000  0.4473660000000 1.0
C      1  0.4049300000000  0.4949970000000  0.5001700000000 1.0
C      1  0.5257000000000  0.4969790000000  0.5709490000000 1.0
C      1  0.4279960000000  0.4903870000000  0.5152920000000 1.0
END
