TITL C-3866671-3735-347 674.40179145398 125000 -829.80533905489 0 0 137 (C1) n - 1
REM
REM in /home/nfs/bkarasulu/CARBON/AIRSS/Generating-Clusters/LCBOP/Only-C1/SD-CG/FIRE-CG
REM
REM
REM
REM
REM
REM ./C.cell (11c1c37f851c82e70ff6c80c92926a4b)
REM AIRSS Version 0.9.1 bugfix July 2018 build 013d7b7c2542+ Fri, 06 Jul 2018 19:26:36 +0100
REM compiler GCC version 9.2.1 20190827 (Red Hat 9.2.1-1)
REM options -cpp -mtune=generic -march=x86-64 -g -O0 -fpre-include=/usr/include/finclude/math-vector-fortran.h
REM seed 1296655911 -393057267 676586539 233244047 -1954711389 -327531328 482596703 -1565728318 -457671050 -1023947476 1506148440 -919972198 -1701080562 -355534397 281210689 -1679426668 -439100087 -997069301 -1193987936 1122507537 1561473026 990205344 391066356 -1862119784 -1416778862 -167837496 609283932 -1332204423 2004986691 -1198065908 -1897628842 1676835952 -2036005602
REM
CELL 1.54180   50.00000   50.00000   50.00000   90.00000   90.00000   90.00000
LATT -1
SFAC C  
C      1  0.5419900000000  0.4673020000000  0.5852310000000 1.0
C      1  0.4406000000000  0.5103110000000  0.4172720000000 1.0
C      1  0.5089590000000  0.5325270000000  0.5189820000000 1.0
C      1  0.6071840000000  0.4328250000000  0.5370820000000 1.0
C      1  0.5398570000000  0.5145300000000  0.6060480000000 1.0
C      1  0.4349700000000  0.4189470000000  0.5001370000000 1.0
C      1  0.4917650000000  0.5516310000000  0.5734610000000 1.0
C      1  0.3949720000000  0.4896940000000  0.4510740000000 1.0
C      1  0.5214490000000  0.5591600000000  0.4119220000000 1.0
C      1  0.4270390000000  0.5505200000000  0.5523420000000 1.0
C      1  0.5557660000000  0.5298440000000  0.5420120000000 1.0
C      1  0.5689940000000  0.4720500000000  0.4905880000000 1.0
C      1  0.4592060000000  0.4773130000000  0.5016950000000 1.0
C      1  0.4084430000000  0.4767200000000  0.4289430000000 1.0
C      1  0.5483280000000  0.4736470000000  0.5372630000000 1.0
C      1  0.4927760000000  0.4479490000000  0.4861680000000 1.0
C      1  0.5039270000000  0.5915920000000  0.4438280000000 1.0
C      1  0.5551580000000  0.5555540000000  0.5815210000000 1.0
C      1  0.5163850000000  0.5985120000000  0.5202050000000 1.0
C      1  0.4772020000000  0.5555280000000  0.6209060000000 1.0
C      1  0.5245320000000  0.5206250000000  0.5421430000000 1.0
C      1  0.5105880000000  0.6035370000000  0.4921800000000 1.0
C      1  0.4811560000000  0.5299650000000  0.3998110000000 1.0
C      1  0.5728570000000  0.5701030000000  0.4682910000000 1.0
C      1  0.5423530000000  0.4793740000000  0.4111240000000 1.0
C      1  0.5629050000000  0.5550840000000  0.5543400000000 1.0
C      1  0.5880590000000  0.5581150000000  0.4891920000000 1.0
C      1  0.4589570000000  0.5240980000000  0.4557300000000 1.0
C      1  0.4692660000000  0.5519030000000  0.5004310000000 1.0
C      1  0.5723150000000  0.4506270000000  0.4473430000000 1.0
C      1  0.5963750000000  0.5299850000000  0.4898500000000 1.0
C      1  0.6058950000000  0.4870770000000  0.4629090000000 1.0
C      1  0.4838590000000  0.4088310000000  0.5217750000000 1.0
C      1  0.4933230000000  0.4617040000000  0.4407310000000 1.0
C      1  0.4085960000000  0.5273610000000  0.5543440000000 1.0
C      1  0.5493940000000  0.5746170000000  0.4522250000000 1.0
C      1  0.4795460000000  0.5687960000000  0.5536780000000 1.0
C      1  0.5346690000000  0.4744510000000  0.4573910000000 1.0
C      1  0.5263290000000  0.5923140000000  0.4622890000000 1.0
C      1  0.4805060000000  0.5825160000000  0.4560690000000 1.0
C      1  0.3909150000000  0.5071030000000  0.4764340000000 1.0
C      1  0.5710720000000  0.5190440000000  0.4507540000000 1.0
C      1  0.3924860000000  0.5172920000000  0.5310370000000 1.0
C      1  0.4437780000000  0.4755350000000  0.4553030000000 1.0
C      1  0.4318090000000  0.5166180000000  0.4925860000000 1.0
C      1  0.5597160000000  0.4735690000000  0.5636650000000 1.0
C      1  0.4532770000000  0.4381580000000  0.5788050000000 1.0
C      1  0.4676050000000  0.4501720000000  0.4986940000000 1.0
C      1  0.4770310000000  0.4428680000000  0.5641990000000 1.0
C      1  0.4086990000000  0.4777410000000  0.5089370000000 1.0
C      1  0.4338570000000  0.4890460000000  0.5006740000000 1.0
C      1  0.5044710000000  0.5100380000000  0.4593990000000 1.0
C      1  0.4842730000000  0.6151310000000  0.4894300000000 1.0
C      1  0.4998580000000  0.4758370000000  0.5267630000000 1.0
C      1  0.5453940000000  0.5549350000000  0.4285610000000 1.0
C      1  0.5425700000000  0.4877970000000  0.6052680000000 1.0
C      1  0.5645680000000  0.4123350000000  0.4790710000000 1.0
C      1  0.5788180000000  0.5719590000000  0.5387260000000 1.0
C      1  0.4175290000000  0.5809600000000  0.4858290000000 1.0
C      1  0.4963220000000  0.3944270000000  0.4997690000000 1.0
C      1  0.5243270000000  0.4899080000000  0.5367570000000 1.0
C      1  0.5087290000000  0.5837090000000  0.4172810000000 1.0
C      1  0.4607230000000  0.4249870000000  0.5117150000000 1.0
C      1  0.5030910000000  0.4312250000000  0.5669400000000 1.0
C      1  0.5365360000000  0.4172110000000  0.4407690000000 1.0
C      1  0.4444400000000  0.5022150000000  0.4449690000000 1.0
C      1  0.5676280000000  0.4641640000000  0.5175020000000 1.0
C      1  0.5955500000000  0.5141830000000  0.4651640000000 1.0
C      1  0.4811970000000  0.5183030000000  0.4715270000000 1.0
C      1  0.5354790000000  0.5364740000000  0.5891580000000 1.0
C      1  0.5402310000000  0.4134250000000  0.4942330000000 1.0
C      1  0.5870600000000  0.3994370000000  0.4874180000000 1.0
C      1  0.4970670000000  0.5861160000000  0.5380270000000 1.0
C      1  0.4399390000000  0.5892490000000  0.5010150000000 1.0
C      1  0.4101900000000  0.5295040000000  0.4785020000000 1.0
C      1  0.4314550000000  0.4681350000000  0.4126630000000 1.0
C      1  0.4281640000000  0.4023890000000  0.4545470000000 1.0
C      1  0.5475500000000  0.5078940000000  0.4070950000000 1.0
C      1  0.5327580000000  0.4355190000000  0.5103400000000 1.0
C      1  0.4958570000000  0.4395510000000  0.4589160000000 1.0
C      1  0.5875690000000  0.4464660000000  0.5266600000000 1.0
C      1  0.4578410000000  0.5241740000000  0.5881250000000 1.0
C      1  0.4517800000000  0.5676110000000  0.5157910000000 1.0
C      1  0.4077670000000  0.5573210000000  0.4772100000000 1.0
C      1  0.3892360000000  0.4994980000000  0.5067180000000 1.0
C      1  0.4610920000000  0.5194970000000  0.5603180000000 1.0
C      1  0.5482120000000  0.4868580000000  0.4789350000000 1.0
C      1  0.5888990000000  0.5720240000000  0.5138620000000 1.0
C      1  0.5787990000000  0.5126920000000  0.5389800000000 1.0
C      1  0.4754030000000  0.4770640000000  0.6107250000000 1.0
C      1  0.5870050000000  0.4657210000000  0.4683620000000 1.0
C      1  0.5165750000000  0.4021010000000  0.4815670000000 1.0
C      1  0.4377510000000  0.4552540000000  0.5931960000000 1.0
C      1  0.4649230000000  0.4759640000000  0.4030530000000 1.0
C      1  0.5811220000000  0.4930550000000  0.5602450000000 1.0
C      1  0.5390750000000  0.6095930000000  0.5309950000000 1.0
C      1  0.5176140000000  0.3867860000000  0.5516500000000 1.0
C      1  0.4526590000000  0.4762460000000  0.5441280000000 1.0
C      1  0.5114250000000  0.4539180000000  0.5074900000000 1.0
C      1  0.4977370000000  0.4630210000000  0.6042200000000 1.0
C      1  0.4376370000000  0.4496780000000  0.4610330000000 1.0
C      1  0.5515850000000  0.4671160000000  0.4351540000000 1.0
C      1  0.4664650000000  0.5504380000000  0.4139230000000 1.0
C      1  0.5122840000000  0.4159400000000  0.4561610000000 1.0
C      1  0.5016230000000  0.4095010000000  0.5467580000000 1.0
C      1  0.5246570000000  0.5506100000000  0.4792140000000 1.0
C      1  0.5589860000000  0.5280320000000  0.4261990000000 1.0
C      1  0.4475250000000  0.4799000000000  0.6035380000000 1.0
C      1  0.5092500000000  0.5370240000000  0.3973450000000 1.0
C      1  0.4810820000000  0.4945110000000  0.5107910000000 1.0
C      1  0.4754530000000  0.5443680000000  0.5962450000000 1.0
C      1  0.4755230000000  0.5655900000000  0.4761070000000 1.0
C      1  0.4640550000000  0.5054320000000  0.4005260000000 1.0
C      1  0.4579590000000  0.6105160000000  0.4947180000000 1.0
C      1  0.5619800000000  0.4241240000000  0.4529170000000 1.0
C      1  0.5338950000000  0.3667230000000  0.5550380000000 1.0
C      1  0.6318790000000  0.4820450000000  0.4561200000000 1.0
C      1  0.4517300000000  0.5637640000000  0.5437520000000 1.0
C      1  0.4129660000000  0.5114730000000  0.5790870000000 1.0
C      1  0.4368280000000  0.5057570000000  0.5955170000000 1.0
C      1  0.5227100000000  0.5529650000000  0.5056330000000 1.0
C      1  0.5171800000000  0.4508870000000  0.5855030000000 1.0
C      1  0.5290220000000  0.5191250000000  0.3884930000000 1.0
C      1  0.4029380000000  0.4519150000000  0.5173500000000 1.0
C      1  0.4123320000000  0.4269200000000  0.5148410000000 1.0
C      1  0.4900790000000  0.4649600000000  0.4124110000000 1.0
C      1  0.5165720000000  0.4692830000000  0.4006340000000 1.0
C      1  0.5086100000000  0.4832800000000  0.4519500000000 1.0
C      1  0.5943920000000  0.5169870000000  0.5154930000000 1.0
C      1  0.4777040000000  0.4640100000000  0.5462050000000 1.0
C      1  0.4333850000000  0.4233250000000  0.4713970000000 1.0
C      1  0.5505540000000  0.5133300000000  0.4699350000000 1.0
C      1  0.5147250000000  0.5344510000000  0.5688320000000 1.0
C      1  0.5264750000000  0.5264600000000  0.4659740000000 1.0
C      1  0.4572230000000  0.5471730000000  0.4391730000000 1.0
C      1  0.4486230000000  0.5023330000000  0.5446400000000 1.0
C      1  0.4831650000000  0.5237830000000  0.5021950000000 1.0
END
