TITL C-3866674-3872-91 -0.00626895504286945 125000 -314.731209170901 0 0 53 (C1) n - 1
REM
REM in /home/nfs/bkarasulu/CARBON/AIRSS/Generating-Clusters/LCBOP/Only-C1/SD-CG/HFTN-CG/FIRE-CG
REM
REM
REM
REM
REM
REM ./C.cell (11c1c37f851c82e70ff6c80c92926a4b)
REM AIRSS Version 0.9.1 bugfix July 2018 build 013d7b7c2542+ Fri, 06 Jul 2018 19:26:36 +0100
REM compiler GCC version 9.2.1 20190827 (Red Hat 9.2.1-1)
REM options -cpp -mtune=generic -march=x86-64 -g -O0 -fpre-include=/usr/include/finclude/math-vector-fortran.h
REM seed 2134000693 -1654111983 -1500360705 1180744224 -1786070738 254069478 -766348369 779570580 92124434 900157293 1468439690 532130028 732850475 -1185922925 -1415346428 616351991 -304626770 -821149892 1268812413 971573527 1484509317 -362980624 2129632377 -709571469 -304023357 -898654674 -832691170 909037790 1062612529 1264293550 -1387270261 1779928530 -696432931
REM
CELL 1.54180   50.00000   50.00000   50.00000   90.00000   90.00000   90.00000
LATT -1
SFAC C  
C      1  0.4959550000000  0.4961280000000  0.5375130000000 1.0
C      1  0.4184320000000  0.4223930000000  0.5138350000000 1.0
C      1  0.4329210000000  0.4735140000000  0.4896950000000 1.0
C      1  0.5056780000000  0.5642600000000  0.4762740000000 1.0
C      1  0.4511520000000  0.4572910000000  0.5046910000000 1.0
C      1  0.5572140000000  0.4982570000000  0.4464070000000 1.0
C      1  0.5366120000000  0.4801130000000  0.4432230000000 1.0
C      1  0.4456630000000  0.4519500000000  0.4446430000000 1.0
C      1  0.4942380000000  0.4694710000000  0.5257640000000 1.0
C      1  0.4813490000000  0.5119000000000  0.4516780000000 1.0
C      1  0.5283780000000  0.5359200000000  0.5367280000000 1.0
C      1  0.5003440000000  0.4472250000000  0.5432910000000 1.0
C      1  0.4697780000000  0.5717830000000  0.5368480000000 1.0
C      1  0.5098780000000  0.5490350000000  0.5200450000000 1.0
C      1  0.5553790000000  0.5439800000000  0.5304680000000 1.0
C      1  0.5433800000000  0.4449420000000  0.4974780000000 1.0
C      1  0.4895520000000  0.4577220000000  0.4733420000000 1.0
C      1  0.5199880000000  0.5099170000000  0.5470900000000 1.0
C      1  0.4796360000000  0.4619210000000  0.5010820000000 1.0
C      1  0.5109030000000  0.5676780000000  0.4493320000000 1.0
C      1  0.4535840000000  0.4311650000000  0.5455850000000 1.0
C      1  0.5132350000000  0.5414530000000  0.4921840000000 1.0
C      1  0.4720390000000  0.4475890000000  0.4536280000000 1.0
C      1  0.5420290000000  0.4313080000000  0.5204880000000 1.0
C      1  0.5373780000000  0.4965570000000  0.5654700000000 1.0
C      1  0.4232350000000  0.4967070000000  0.5018380000000 1.0
C      1  0.5184650000000  0.5145680000000  0.4867290000000 1.0
C      1  0.4837700000000  0.6081670000000  0.4869290000000 1.0
C      1  0.4515640000000  0.5528590000000  0.5422660000000 1.0
C      1  0.4781390000000  0.4351590000000  0.5554950000000 1.0
C      1  0.4610930000000  0.5214160000000  0.4383280000000 1.0
C      1  0.4294180000000  0.4662030000000  0.4628130000000 1.0
C      1  0.5730660000000  0.4894530000000  0.5303920000000 1.0
C      1  0.4366420000000  0.4432250000000  0.4204810000000 1.0
C      1  0.5170040000000  0.5676130000000  0.4235530000000 1.0
C      1  0.5024990000000  0.5020180000000  0.4664510000000 1.0
C      1  0.5141450000000  0.4735210000000  0.4641030000000 1.0
C      1  0.5744900000000  0.5210200000000  0.4905440000000 1.0
C      1  0.5230080000000  0.5661660000000  0.3982260000000 1.0
C      1  0.4491730000000  0.5254860000000  0.5365580000000 1.0
C      1  0.4930670000000  0.5836210000000  0.4938920000000 1.0
C      1  0.5305120000000  0.4925330000000  0.5915530000000 1.0
C      1  0.4713300000000  0.5091030000000  0.5420290000000 1.0
C      1  0.5323870000000  0.4685630000000  0.4879060000000 1.0
C      1  0.5717990000000  0.5435110000000  0.5083460000000 1.0
C      1  0.5369560000000  0.4948490000000  0.4982000000000 1.0
C      1  0.5620020000000  0.4880090000000  0.5548000000000 1.0
C      1  0.5634850000000  0.4995230000000  0.5061680000000 1.0
C      1  0.4404710000000  0.4367080000000  0.5213840000000 1.0
C      1  0.4289230000000  0.5151750000000  0.5202220000000 1.0
C      1  0.5713550000000  0.5153910000000  0.4625590000000 1.0
C      1  0.5248970000000  0.4340000000000  0.5409310000000 1.0
C      1  0.4924120000000  0.5719640000000  0.5205250000000 1.0
END
