TITL C-3866676-3738-132 -5.77176272905933e-07 125000 -810.116258165679 0 0 132 (C1) n - 1
REM
REM in /home/nfs/bkarasulu/CARBON/AIRSS/Generating-Clusters/LCBOP/Only-C1/SD-CG/HFTN-CG/FIRE-CG
REM
REM
REM
REM
REM
REM ./C.cell (11c1c37f851c82e70ff6c80c92926a4b)
REM AIRSS Version 0.9.1 bugfix July 2018 build 013d7b7c2542+ Fri, 06 Jul 2018 19:26:36 +0100
REM compiler GCC version 9.2.1 20190827 (Red Hat 9.2.1-1)
REM options -cpp -mtune=generic -march=x86-64 -g -O0 -fpre-include=/usr/include/finclude/math-vector-fortran.h
REM seed 1681991814 -649480719 1211984226 -102899718 -2060321561 892228182 1690475057 -222960053 -1205610453 1940685162 -599112941 1518693619 -1133005620 1285812089 891657467 -2038970349 376368015 -1027526994 960753527 1410671561 -1955212571 -396298091 -1470580913 2140691405 -1721522629 -120793094 1014478543 246825928 1589674265 -1557239339 -103124676 -825396543 -2115866683
REM
CELL 1.54180   50.00000   50.00000   50.00000   90.00000   90.00000   90.00000
LATT -1
SFAC C  
C      1  0.5119020000000  0.4454600000000  0.3888060000000 1.0
C      1  0.5336430000000  0.4552070000000  0.5521870000000 1.0
C      1  0.4635450000000  0.4272970000000  0.5114230000000 1.0
C      1  0.4849080000000  0.5003210000000  0.4207650000000 1.0
C      1  0.4745310000000  0.4753110000000  0.5167380000000 1.0
C      1  0.5094560000000  0.5921390000000  0.4872520000000 1.0
C      1  0.5665160000000  0.5155670000000  0.5794360000000 1.0
C      1  0.5058870000000  0.4310920000000  0.4105000000000 1.0
C      1  0.5578000000000  0.4611310000000  0.4327140000000 1.0
C      1  0.5374070000000  0.4228360000000  0.4937310000000 1.0
C      1  0.4975960000000  0.5155330000000  0.4873880000000 1.0
C      1  0.5411320000000  0.4823680000000  0.4220200000000 1.0
C      1  0.5093600000000  0.4253000000000  0.4852880000000 1.0
C      1  0.4202840000000  0.4435310000000  0.5821800000000 1.0
C      1  0.4298950000000  0.4309100000000  0.4661570000000 1.0
C      1  0.5256870000000  0.5234220000000  0.6480830000000 1.0
C      1  0.5771850000000  0.4739570000000  0.5515940000000 1.0
C      1  0.4637870000000  0.3927860000000  0.4597910000000 1.0
C      1  0.4382980000000  0.4048240000000  0.4606910000000 1.0
C      1  0.4337540000000  0.5126810000000  0.4126650000000 1.0
C      1  0.4854080000000  0.4134890000000  0.4983290000000 1.0
C      1  0.4161850000000  0.5310550000000  0.4633200000000 1.0
C      1  0.4344410000000  0.4524370000000  0.4477570000000 1.0
C      1  0.4457680000000  0.5273000000000  0.4575230000000 1.0
C      1  0.4911410000000  0.5716040000000  0.5712620000000 1.0
C      1  0.5235060000000  0.5506970000000  0.5207390000000 1.0
C      1  0.5614940000000  0.5880010000000  0.5092630000000 1.0
C      1  0.5011760000000  0.5035120000000  0.5840320000000 1.0
C      1  0.5851290000000  0.5324080000000  0.4376240000000 1.0
C      1  0.5527740000000  0.4791410000000  0.4766660000000 1.0
C      1  0.6008730000000  0.5166600000000  0.5087260000000 1.0
C      1  0.4866300000000  0.4901560000000  0.5389640000000 1.0
C      1  0.5489310000000  0.4724830000000  0.6044600000000 1.0
C      1  0.4716110000000  0.5429360000000  0.4039300000000 1.0
C      1  0.5995590000000  0.5255970000000  0.4592980000000 1.0
C      1  0.4809520000000  0.5021890000000  0.5645150000000 1.0
C      1  0.5395580000000  0.5612360000000  0.5745450000000 1.0
C      1  0.4057370000000  0.4746130000000  0.4145430000000 1.0
C      1  0.4713310000000  0.5400160000000  0.4548000000000 1.0
C      1  0.4912990000000  0.5685970000000  0.5994570000000 1.0
C      1  0.4656720000000  0.4341950000000  0.5697480000000 1.0
C      1  0.5820300000000  0.4404530000000  0.5026240000000 1.0
C      1  0.5003410000000  0.5379320000000  0.5285000000000 1.0
C      1  0.5356400000000  0.5494710000000  0.4345200000000 1.0
C      1  0.5458990000000  0.4156410000000  0.5215300000000 1.0
C      1  0.4955170000000  0.4295800000000  0.5711060000000 1.0
C      1  0.5008240000000  0.5418130000000  0.4028690000000 1.0
C      1  0.3999750000000  0.4624320000000  0.4865670000000 1.0
C      1  0.4825970000000  0.5824160000000  0.4954540000000 1.0
C      1  0.5118650000000  0.5948190000000  0.4585060000000 1.0
C      1  0.5074050000000  0.4047370000000  0.5575440000000 1.0
C      1  0.4133220000000  0.5883170000000  0.4661440000000 1.0
C      1  0.5275920000000  0.4911890000000  0.3978930000000 1.0
C      1  0.5457950000000  0.5036610000000  0.4645500000000 1.0
C      1  0.5180600000000  0.5745570000000  0.5599420000000 1.0
C      1  0.5086460000000  0.5856780000000  0.4327450000000 1.0
C      1  0.5165720000000  0.5291100000000  0.6229580000000 1.0
C      1  0.4195890000000  0.4411590000000  0.4913060000000 1.0
C      1  0.5018690000000  0.4391830000000  0.4601780000000 1.0
C      1  0.5233840000000  0.5769380000000  0.5317500000000 1.0
C      1  0.5158140000000  0.5614930000000  0.4179840000000 1.0
C      1  0.4461560000000  0.5094960000000  0.4975790000000 1.0
C      1  0.4666180000000  0.5630410000000  0.5585360000000 1.0
C      1  0.5722950000000  0.4293750000000  0.5279300000000 1.0
C      1  0.5623580000000  0.5433910000000  0.4286380000000 1.0
C      1  0.4906250000000  0.4658910000000  0.4634910000000 1.0
C      1  0.4228250000000  0.5026930000000  0.5117580000000 1.0
C      1  0.5307510000000  0.4744300000000  0.4932960000000 1.0
C      1  0.4340810000000  0.5019600000000  0.5786590000000 1.0
C      1  0.4616570000000  0.5646580000000  0.4989790000000 1.0
C      1  0.5479840000000  0.5002850000000  0.5965490000000 1.0
C      1  0.5840980000000  0.5019050000000  0.5581970000000 1.0
C      1  0.4405710000000  0.5821960000000  0.4218750000000 1.0
C      1  0.4203920000000  0.5336750000000  0.5446120000000 1.0
C      1  0.5269840000000  0.4946220000000  0.4440180000000 1.0
C      1  0.4377450000000  0.4407690000000  0.5139370000000 1.0
C      1  0.4779620000000  0.4695130000000  0.4898210000000 1.0
C      1  0.5996140000000  0.4627230000000  0.5018600000000 1.0
C      1  0.4974460000000  0.4237680000000  0.4361700000000 1.0
C      1  0.5013290000000  0.5521560000000  0.6179410000000 1.0
C      1  0.4980240000000  0.4871930000000  0.4440840000000 1.0
C      1  0.4491790000000  0.5010800000000  0.4704570000000 1.0
C      1  0.4810160000000  0.4008390000000  0.4389420000000 1.0
C      1  0.5124340000000  0.4944050000000  0.4996090000000 1.0
C      1  0.5243710000000  0.5424300000000  0.4596070000000 1.0
C      1  0.5491360000000  0.4772080000000  0.5448690000000 1.0
C      1  0.4097570000000  0.5015870000000  0.4232430000000 1.0
C      1  0.5521960000000  0.4402020000000  0.5699620000000 1.0
C      1  0.4211040000000  0.4847570000000  0.5345670000000 1.0
C      1  0.4022710000000  0.5076640000000  0.4514430000000 1.0
C      1  0.5119890000000  0.4972620000000  0.5280830000000 1.0
C      1  0.4844400000000  0.5279520000000  0.5091550000000 1.0
C      1  0.5382680000000  0.5003450000000  0.5361960000000 1.0
C      1  0.4083870000000  0.5439280000000  0.4893480000000 1.0
C      1  0.5620390000000  0.4352800000000  0.4810810000000 1.0
C      1  0.5836180000000  0.5228120000000  0.5332830000000 1.0
C      1  0.4352290000000  0.4780630000000  0.4613130000000 1.0
C      1  0.4573150000000  0.5165660000000  0.5704760000000 1.0
C      1  0.5782330000000  0.5504550000000  0.5471920000000 1.0
C      1  0.5607390000000  0.4562290000000  0.4610850000000 1.0
C      1  0.5425580000000  0.5294110000000  0.4773240000000 1.0
C      1  0.5769610000000  0.4435500000000  0.5537120000000 1.0
C      1  0.5405390000000  0.4463530000000  0.5955870000000 1.0
C      1  0.5427370000000  0.5360390000000  0.5051760000000 1.0
C      1  0.4583790000000  0.5358900000000  0.5036480000000 1.0
C      1  0.4616050000000  0.5166050000000  0.4121020000000 1.0
C      1  0.5317330000000  0.5923580000000  0.5082630000000 1.0
C      1  0.6017990000000  0.5349210000000  0.4860320000000 1.0
C      1  0.4400590000000  0.4455210000000  0.5630320000000 1.0
C      1  0.5724480000000  0.5749970000000  0.5333640000000 1.0
C      1  0.5128890000000  0.4358570000000  0.5966800000000 1.0
C      1  0.4765810000000  0.3897590000000  0.4849700000000 1.0
C      1  0.5278700000000  0.4028030000000  0.5395290000000 1.0
C      1  0.4480400000000  0.5412880000000  0.5566630000000 1.0
C      1  0.4061040000000  0.4836000000000  0.4678560000000 1.0
C      1  0.5219580000000  0.5117360000000  0.6010400000000 1.0
C      1  0.4560220000000  0.5659840000000  0.4072690000000 1.0
C      1  0.4261280000000  0.5905850000000  0.4427420000000 1.0
C      1  0.4114680000000  0.5299570000000  0.5158290000000 1.0
C      1  0.5976520000000  0.5628780000000  0.4876860000000 1.0
C      1  0.4976200000000  0.5333590000000  0.4645540000000 1.0
C      1  0.4323980000000  0.4574270000000  0.5373720000000 1.0
C      1  0.5622020000000  0.5440070000000  0.5713960000000 1.0
C      1  0.4054020000000  0.5719620000000  0.4860400000000 1.0
C      1  0.5065450000000  0.4504910000000  0.5524660000000 1.0
C      1  0.4209180000000  0.4535580000000  0.4228150000000 1.0
C      1  0.5206450000000  0.4696860000000  0.3809280000000 1.0
C      1  0.5554780000000  0.5179020000000  0.5224990000000 1.0
C      1  0.5795970000000  0.5830190000000  0.4881160000000 1.0
C      1  0.5075910000000  0.5121130000000  0.4030530000000 1.0
C      1  0.4162200000000  0.5042410000000  0.5564530000000 1.0
C      1  0.6061310000000  0.4887610000000  0.5043860000000 1.0
END
