TITL C-3866676-3738-89 0.000186923542143514 125000 -1136.95608487818 0 0 186 (C1) n - 1
REM
REM in /home/nfs/bkarasulu/CARBON/AIRSS/Generating-Clusters/LCBOP/Only-C1/SD-CG/HFTN-CG/FIRE-CG
REM
REM
REM
REM
REM
REM ./C.cell (11c1c37f851c82e70ff6c80c92926a4b)
REM AIRSS Version 0.9.1 bugfix July 2018 build 013d7b7c2542+ Fri, 06 Jul 2018 19:26:36 +0100
REM compiler GCC version 9.2.1 20190827 (Red Hat 9.2.1-1)
REM options -cpp -mtune=generic -march=x86-64 -g -O0 -fpre-include=/usr/include/finclude/math-vector-fortran.h
REM seed -189316100 -1699945943 78161100 -1869141886 -300136287 -123201391 -1029068088 1312310940 1808544599 1240605973 -582311113 726437501 861491941 -12828026 1102327524 1505252468 1005097941 1246192169 -930095789 1277437789 -1767387241 63139930 336414779 -459549330 401927716 -1844700395 1163532702 -58134468 607532646 -1385764837 -1706372270 1538461595 -1099139516
REM
CELL 1.54180   50.00000   50.00000   50.00000   90.00000   90.00000   90.00000
LATT -1
SFAC C  
C      1  0.5075670000000  0.5990140000000  0.5484190000000 1.0
C      1  0.6332500000000  0.5013380000000  0.4864570000000 1.0
C      1  0.5770940000000  0.5294940000000  0.4259550000000 1.0
C      1  0.5175780000000  0.5503470000000  0.5277520000000 1.0
C      1  0.4066040000000  0.5036950000000  0.5758090000000 1.0
C      1  0.5072990000000  0.5005490000000  0.5973400000000 1.0
C      1  0.5737910000000  0.5872760000000  0.5252060000000 1.0
C      1  0.6148040000000  0.4535510000000  0.5418090000000 1.0
C      1  0.5035030000000  0.4577530000000  0.5430980000000 1.0
C      1  0.4102670000000  0.4797560000000  0.5479650000000 1.0
C      1  0.5648260000000  0.3954910000000  0.5759740000000 1.0
C      1  0.4915120000000  0.4447180000000  0.4948000000000 1.0
C      1  0.5734940000000  0.5814870000000  0.5537520000000 1.0
C      1  0.4342840000000  0.5838430000000  0.4429750000000 1.0
C      1  0.5837190000000  0.5320530000000  0.5482270000000 1.0
C      1  0.4433890000000  0.4555640000000  0.4569370000000 1.0
C      1  0.5597330000000  0.5644300000000  0.5728900000000 1.0
C      1  0.4676890000000  0.6132970000000  0.4942500000000 1.0
C      1  0.5600390000000  0.4467880000000  0.5760590000000 1.0
C      1  0.5894100000000  0.5860320000000  0.4998340000000 1.0
C      1  0.4516550000000  0.5013250000000  0.4103290000000 1.0
C      1  0.5232150000000  0.5136790000000  0.3981100000000 1.0
C      1  0.5228610000000  0.4787230000000  0.6071110000000 1.0
C      1  0.4450280000000  0.5181530000000  0.4853820000000 1.0
C      1  0.4963730000000  0.6181230000000  0.4911350000000 1.0
C      1  0.5000590000000  0.5006100000000  0.5196310000000 1.0
C      1  0.5502560000000  0.5884330000000  0.4358260000000 1.0
C      1  0.4932750000000  0.4903700000000  0.4745360000000 1.0
C      1  0.4438210000000  0.5704240000000  0.4840500000000 1.0
C      1  0.4226010000000  0.5023720000000  0.6207170000000 1.0
C      1  0.4183590000000  0.5228050000000  0.5271550000000 1.0
C      1  0.4853710000000  0.4686540000000  0.3825430000000 1.0
C      1  0.4325110000000  0.4402260000000  0.4132850000000 1.0
C      1  0.5976720000000  0.5590560000000  0.4916300000000 1.0
C      1  0.3985680000000  0.5690230000000  0.5448760000000 1.0
C      1  0.4494070000000  0.6209430000000  0.4728800000000 1.0
C      1  0.5758270000000  0.4814600000000  0.4104870000000 1.0
C      1  0.5146050000000  0.6232310000000  0.5357070000000 1.0
C      1  0.4757140000000  0.4285270000000  0.5115820000000 1.0
C      1  0.4202500000000  0.5335080000000  0.4362800000000 1.0
C      1  0.4736070000000  0.3830890000000  0.4757650000000 1.0
C      1  0.3878030000000  0.4873200000000  0.5328360000000 1.0
C      1  0.4792980000000  0.5717760000000  0.5166520000000 1.0
C      1  0.5928710000000  0.5703440000000  0.4449990000000 1.0
C      1  0.4880130000000  0.5483400000000  0.5740880000000 1.0
C      1  0.3892640000000  0.5487610000000  0.5629000000000 1.0
C      1  0.5753430000000  0.3931560000000  0.5088620000000 1.0
C      1  0.5663440000000  0.5070730000000  0.6140590000000 1.0
C      1  0.4753160000000  0.4421490000000  0.3869130000000 1.0
C      1  0.5080360000000  0.6335440000000  0.5117740000000 1.0
C      1  0.5507590000000  0.4085050000000  0.4394880000000 1.0
C      1  0.4547010000000  0.4356910000000  0.4364110000000 1.0
C      1  0.5032980000000  0.5756800000000  0.5323770000000 1.0
C      1  0.3875590000000  0.5505490000000  0.4726060000000 1.0
C      1  0.5345860000000  0.4620360000000  0.3835220000000 1.0
C      1  0.3579740000000  0.4981800000000  0.4330340000000 1.0
C      1  0.5069470000000  0.5828850000000  0.4562670000000 1.0
C      1  0.4967510000000  0.5509380000000  0.4059820000000 1.0
C      1  0.4620860000000  0.5469660000000  0.5874640000000 1.0
C      1  0.4954400000000  0.3978900000000  0.4068080000000 1.0
C      1  0.4617670000000  0.5943420000000  0.5166320000000 1.0
C      1  0.5386280000000  0.5453950000000  0.5642630000000 1.0
C      1  0.5435150000000  0.5531150000000  0.5188880000000 1.0
C      1  0.5885310000000  0.5278570000000  0.5749280000000 1.0
C      1  0.4963050000000  0.5288120000000  0.5274660000000 1.0
C      1  0.5110400000000  0.4705840000000  0.3701800000000 1.0
C      1  0.4528270000000  0.4984080000000  0.5601290000000 1.0
C      1  0.4705920000000  0.5300970000000  0.4835430000000 1.0
C      1  0.4204990000000  0.3961550000000  0.4744100000000 1.0
C      1  0.5120830000000  0.4967630000000  0.4952370000000 1.0
C      1  0.5049710000000  0.3494510000000  0.4894320000000 1.0
C      1  0.5745930000000  0.5921130000000  0.4500310000000 1.0
C      1  0.4665660000000  0.5268170000000  0.6090620000000 1.0
C      1  0.4497690000000  0.4228850000000  0.4983580000000 1.0
C      1  0.5662520000000  0.5377070000000  0.5277370000000 1.0
C      1  0.5660880000000  0.4257660000000  0.4770920000000 1.0
C      1  0.4722160000000  0.3827450000000  0.4012350000000 1.0
C      1  0.5307600000000  0.4568580000000  0.5382860000000 1.0
C      1  0.5581200000000  0.4644730000000  0.3962610000000 1.0
C      1  0.5104860000000  0.5266260000000  0.4450360000000 1.0
C      1  0.5422400000000  0.4587050000000  0.5127740000000 1.0
C      1  0.3946520000000  0.5339830000000  0.4503740000000 1.0
C      1  0.4109540000000  0.5328810000000  0.5741370000000 1.0
C      1  0.4328810000000  0.4934230000000  0.4815130000000 1.0
C      1  0.6081360000000  0.4280770000000  0.5353740000000 1.0
C      1  0.6072050000000  0.4804950000000  0.5366630000000 1.0
C      1  0.5353870000000  0.4562150000000  0.4515360000000 1.0
C      1  0.4185520000000  0.4061860000000  0.4471140000000 1.0
C      1  0.3749480000000  0.5162800000000  0.4409940000000 1.0
C      1  0.4321610000000  0.4710220000000  0.5006750000000 1.0
C      1  0.4527650000000  0.3842710000000  0.4197700000000 1.0
C      1  0.4813530000000  0.5754050000000  0.4451960000000 1.0
C      1  0.5488280000000  0.5149420000000  0.3907220000000 1.0
C      1  0.5296850000000  0.5546230000000  0.6087080000000 1.0
C      1  0.5739930000000  0.4770620000000  0.4762630000000 1.0
C      1  0.5792900000000  0.4840630000000  0.5292480000000 1.0
C      1  0.6432800000000  0.5081690000000  0.5540290000000 1.0
C      1  0.4872430000000  0.4788300000000  0.5331560000000 1.0
C      1  0.5349530000000  0.5426350000000  0.4509510000000 1.0
C      1  0.4512350000000  0.4874780000000  0.5867040000000 1.0
C      1  0.4454300000000  0.4597090000000  0.5921100000000 1.0
C      1  0.4397660000000  0.4477570000000  0.4848260000000 1.0
C      1  0.5183330000000  0.3791050000000  0.4538870000000 1.0
C      1  0.5485290000000  0.4653230000000  0.5587790000000 1.0
C      1  0.6264440000000  0.5163270000000  0.5091730000000 1.0
C      1  0.3917610000000  0.5127290000000  0.5218320000000 1.0
C      1  0.4350090000000  0.4844720000000  0.4535130000000 1.0
C      1  0.4453860000000  0.4128780000000  0.5437040000000 1.0
C      1  0.5922890000000  0.4733570000000  0.4315650000000 1.0
C      1  0.4093840000000  0.4258410000000  0.4268230000000 1.0
C      1  0.5108650000000  0.3856660000000  0.4271510000000 1.0
C      1  0.4926730000000  0.5254060000000  0.5573220000000 1.0
C      1  0.6155300000000  0.5419730000000  0.5049390000000 1.0
C      1  0.5301200000000  0.5706720000000  0.4448800000000 1.0
C      1  0.4908630000000  0.4262770000000  0.4059140000000 1.0
C      1  0.4396650000000  0.5188960000000  0.5438700000000 1.0
C      1  0.4094050000000  0.4003780000000  0.5013500000000 1.0
C      1  0.5475780000000  0.4798680000000  0.4647660000000 1.0
C      1  0.5938200000000  0.5529100000000  0.4220850000000 1.0
C      1  0.4466240000000  0.4401390000000  0.3887110000000 1.0
C      1  0.5805140000000  0.4377900000000  0.4984590000000 1.0
C      1  0.5596570000000  0.5557880000000  0.6022070000000 1.0
C      1  0.4929610000000  0.4622400000000  0.4724090000000 1.0
C      1  0.4027210000000  0.4960440000000  0.6029170000000 1.0
C      1  0.5853080000000  0.5509180000000  0.4669840000000 1.0
C      1  0.4774450000000  0.5669380000000  0.4174150000000 1.0
C      1  0.5706020000000  0.5093940000000  0.4075170000000 1.0
C      1  0.5005360000000  0.6008820000000  0.5748210000000 1.0
C      1  0.6257440000000  0.5020360000000  0.5339360000000 1.0
C      1  0.4293140000000  0.5600550000000  0.4261850000000 1.0
C      1  0.5610240000000  0.3965560000000  0.4832840000000 1.0
C      1  0.4356720000000  0.5521330000000  0.5742470000000 1.0
C      1  0.4598000000000  0.4789950000000  0.5400980000000 1.0
C      1  0.5581120000000  0.4918640000000  0.5506540000000 1.0
C      1  0.5635320000000  0.5349670000000  0.4523910000000 1.0
C      1  0.5131020000000  0.4530000000000  0.6000200000000 1.0
C      1  0.4859140000000  0.4384830000000  0.4320430000000 1.0
C      1  0.5128360000000  0.4802260000000  0.3445710000000 1.0
C      1  0.5147550000000  0.5998730000000  0.4783640000000 1.0
C      1  0.4237570000000  0.5861440000000  0.4923140000000 1.0
C      1  0.4271750000000  0.5738210000000  0.5534180000000 1.0
C      1  0.4989280000000  0.3706110000000  0.4730340000000 1.0
C      1  0.3879830000000  0.5736450000000  0.5183960000000 1.0
C      1  0.5641990000000  0.4212980000000  0.5826550000000 1.0
C      1  0.4014890000000  0.5938790000000  0.5046190000000 1.0
C      1  0.4945610000000  0.5202430000000  0.6148820000000 1.0
C      1  0.6214450000000  0.4856200000000  0.4685640000000 1.0
C      1  0.4726130000000  0.4228050000000  0.5403850000000 1.0
C      1  0.4474230000000  0.4046540000000  0.4384660000000 1.0
C      1  0.4484150000000  0.5051350000000  0.6093140000000 1.0
C      1  0.3786690000000  0.5532760000000  0.4998290000000 1.0
C      1  0.4347620000000  0.5063700000000  0.4331080000000 1.0
C      1  0.5485330000000  0.4868380000000  0.6162100000000 1.0
C      1  0.5710880000000  0.4657580000000  0.5045730000000 1.0
C      1  0.4340570000000  0.6115170000000  0.4516110000000 1.0
C      1  0.5706220000000  0.5983940000000  0.4782210000000 1.0
C      1  0.4918560000000  0.4400860000000  0.5859810000000 1.0
C      1  0.4667520000000  0.4426100000000  0.5980640000000 1.0
C      1  0.4503130000000  0.3978640000000  0.4810430000000 1.0
C      1  0.4890140000000  0.5173270000000  0.4635550000000 1.0
C      1  0.5395970000000  0.5145160000000  0.5606050000000 1.0
C      1  0.5966100000000  0.4774170000000  0.4590500000000 1.0
C      1  0.4776220000000  0.5436880000000  0.5078650000000 1.0
C      1  0.5657740000000  0.3775490000000  0.5562090000000 1.0
C      1  0.5156370000000  0.5549210000000  0.5822590000000 1.0
C      1  0.5904060000000  0.4177210000000  0.5161760000000 1.0
C      1  0.4569890000000  0.5738220000000  0.4595170000000 1.0
C      1  0.5450250000000  0.3876940000000  0.4600200000000 1.0
C      1  0.5131020000000  0.5392110000000  0.6261630000000 1.0
C      1  0.4289390000000  0.4128150000000  0.5196140000000 1.0
C      1  0.5361010000000  0.4991470000000  0.4820160000000 1.0
C      1  0.5071350000000  0.5271140000000  0.4162190000000 1.0
C      1  0.5120460000000  0.5076530000000  0.5698510000000 1.0
C      1  0.4510680000000  0.5617100000000  0.4077720000000 1.0
C      1  0.4334760000000  0.4720850000000  0.5296400000000 1.0
C      1  0.4431120000000  0.5923430000000  0.5383810000000 1.0
C      1  0.5423700000000  0.5956950000000  0.4891430000000 1.0
C      1  0.4906440000000  0.4369200000000  0.5574320000000 1.0
C      1  0.5750800000000  0.5305080000000  0.6005870000000 1.0
C      1  0.5479200000000  0.5807200000000  0.5134800000000 1.0
C      1  0.5057120000000  0.4516520000000  0.4491220000000 1.0
C      1  0.4698130000000  0.4896580000000  0.3940800000000 1.0
C      1  0.4203090000000  0.4488190000000  0.5914940000000 1.0
C      1  0.5692620000000  0.3755320000000  0.5297350000000 1.0
C      1  0.3718300000000  0.5288800000000  0.5115700000000 1.0
C      1  0.5531190000000  0.4337420000000  0.4523600000000 1.0
END
