TITL C-3866669-3764-179 0.00455720625029646 125000 -1090.07280315129 0 0 180 (C1) n - 1
REM
REM in /home/nfs/bkarasulu/CARBON/AIRSS/Generating-Clusters/LCBOP/Only-C1/SD-CG/HFTN-CG/FIRE-CG
REM
REM
REM
REM
REM
REM ./C.cell (11c1c37f851c82e70ff6c80c92926a4b)
REM AIRSS Version 0.9.1 bugfix July 2018 build 013d7b7c2542+ Fri, 06 Jul 2018 19:26:36 +0100
REM compiler GCC version 9.2.1 20190827 (Red Hat 9.2.1-1)
REM options -cpp -mtune=generic -march=x86-64 -g -O0 -fpre-include=/usr/include/finclude/math-vector-fortran.h
REM seed -844851357 -412023891 1445280512 1774248058 1275939831 -183972280 720611423 708204666 876378110 -1893810165 1349185269 898777145 -2129075692 -449377997 -79058627 222212489 -1304093611 -1973219522 2017977773 -221535188 -927632345 1683079105 965012999 -584360856 395466950 1572609462 -62843604 1562163369 -694986051 1502796969 -1557441225 363973806 274263708
REM
CELL 1.54180   50.00000   50.00000   50.00000   90.00000   90.00000   90.00000
LATT -1
SFAC C  
C      1  0.6226530000000  0.5185050000000  0.4755690000000 1.0
C      1  0.5970260000000  0.4532940000000  0.4936090000000 1.0
C      1  0.6245240000000  0.4782950000000  0.5225070000000 1.0
C      1  0.5103210000000  0.4705810000000  0.5626300000000 1.0
C      1  0.3963950000000  0.5447790000000  0.4030560000000 1.0
C      1  0.5745010000000  0.5975520000000  0.5364400000000 1.0
C      1  0.5375500000000  0.6000130000000  0.5826110000000 1.0
C      1  0.4541650000000  0.4422690000000  0.5988110000000 1.0
C      1  0.4861680000000  0.4874280000000  0.6029590000000 1.0
C      1  0.5011830000000  0.6178220000000  0.4908190000000 1.0
C      1  0.5244410000000  0.4862800000000  0.4091390000000 1.0
C      1  0.3704340000000  0.5077550000000  0.4756170000000 1.0
C      1  0.5930930000000  0.4333510000000  0.5135210000000 1.0
C      1  0.5039690000000  0.4486920000000  0.5447790000000 1.0
C      1  0.6080780000000  0.5654020000000  0.4733640000000 1.0
C      1  0.5295210000000  0.3572170000000  0.5017620000000 1.0
C      1  0.4356350000000  0.6097420000000  0.4557350000000 1.0
C      1  0.3677840000000  0.4582480000000  0.4757500000000 1.0
C      1  0.4777870000000  0.5745250000000  0.5511490000000 1.0
C      1  0.4304740000000  0.4528390000000  0.5011640000000 1.0
C      1  0.5496830000000  0.5756490000000  0.5750610000000 1.0
C      1  0.5102850000000  0.5882340000000  0.4510320000000 1.0
C      1  0.5044700000000  0.5634910000000  0.5490030000000 1.0
C      1  0.4834580000000  0.3702240000000  0.5271930000000 1.0
C      1  0.4422740000000  0.5617170000000  0.5167380000000 1.0
C      1  0.5208140000000  0.4502420000000  0.4836280000000 1.0
C      1  0.5409790000000  0.4701100000000  0.3920100000000 1.0
C      1  0.5745340000000  0.4277610000000  0.5322190000000 1.0
C      1  0.5493780000000  0.4539420000000  0.4433570000000 1.0
C      1  0.5500760000000  0.4638600000000  0.4997320000000 1.0
C      1  0.5663860000000  0.4720420000000  0.4577060000000 1.0
C      1  0.5680090000000  0.4763540000000  0.5685490000000 1.0
C      1  0.4855220000000  0.4898920000000  0.4409710000000 1.0
C      1  0.5094090000000  0.3573780000000  0.4832670000000 1.0
C      1  0.5184000000000  0.5470630000000  0.3906170000000 1.0
C      1  0.5500920000000  0.4314300000000  0.5455980000000 1.0
C      1  0.4604250000000  0.4263390000000  0.5282920000000 1.0
C      1  0.4042850000000  0.4568240000000  0.5120470000000 1.0
C      1  0.5026860000000  0.3773420000000  0.4637930000000 1.0
C      1  0.5000740000000  0.5387230000000  0.5649740000000 1.0
C      1  0.4605670000000  0.5426060000000  0.3987580000000 1.0
C      1  0.3699320000000  0.5086290000000  0.5043030000000 1.0
C      1  0.3973300000000  0.5600750000000  0.4956220000000 1.0
C      1  0.5569280000000  0.5755110000000  0.5448560000000 1.0
C      1  0.3898680000000  0.5250640000000  0.4633490000000 1.0
C      1  0.4181890000000  0.5140610000000  0.4604050000000 1.0
C      1  0.5770040000000  0.4796200000000  0.5427790000000 1.0
C      1  0.4959910000000  0.4089380000000  0.4001430000000 1.0
C      1  0.5016940000000  0.4647500000000  0.5899970000000 1.0
C      1  0.4641720000000  0.4733850000000  0.5402060000000 1.0
C      1  0.5176320000000  0.5382660000000  0.5879050000000 1.0
C      1  0.4921880000000  0.5355660000000  0.4706960000000 1.0
C      1  0.5474820000000  0.6114600000000  0.4720950000000 1.0
C      1  0.4500850000000  0.5641520000000  0.5910730000000 1.0
C      1  0.5703600000000  0.4365790000000  0.4317660000000 1.0
C      1  0.4944550000000  0.4609790000000  0.4429410000000 1.0
C      1  0.5145830000000  0.4130600000000  0.5143270000000 1.0
C      1  0.4245090000000  0.5000290000000  0.3944290000000 1.0
C      1  0.4580220000000  0.5386250000000  0.6043710000000 1.0
C      1  0.5912760000000  0.6170510000000  0.5323260000000 1.0
C      1  0.4520280000000  0.5579670000000  0.4635870000000 1.0
C      1  0.4649260000000  0.5700890000000  0.4411300000000 1.0
C      1  0.5376080000000  0.5165440000000  0.4526470000000 1.0
C      1  0.5728370000000  0.4630470000000  0.4828600000000 1.0
C      1  0.5057520000000  0.5529810000000  0.4905090000000 1.0
C      1  0.5701700000000  0.5338510000000  0.4242360000000 1.0
C      1  0.5210860000000  0.3997550000000  0.4671250000000 1.0
C      1  0.4509030000000  0.4319750000000  0.5014620000000 1.0
C      1  0.3824640000000  0.4486040000000  0.4961230000000 1.0
C      1  0.4610930000000  0.5518890000000  0.5394370000000 1.0
C      1  0.4459410000000  0.4826360000000  0.5620370000000 1.0
C      1  0.5211280000000  0.5034390000000  0.5019450000000 1.0
C      1  0.4847390000000  0.5705840000000  0.4969520000000 1.0
C      1  0.4127350000000  0.5958060000000  0.4523730000000 1.0
C      1  0.4379460000000  0.5910270000000  0.5268130000000 1.0
C      1  0.6025160000000  0.5317080000000  0.5906020000000 1.0
C      1  0.5474420000000  0.5436480000000  0.4436260000000 1.0
C      1  0.4356400000000  0.4699100000000  0.4578890000000 1.0
C      1  0.4279010000000  0.5041170000000  0.4884260000000 1.0
C      1  0.5296730000000  0.5076830000000  0.6561660000000 1.0
C      1  0.6242880000000  0.4918030000000  0.4768870000000 1.0
C      1  0.4899870000000  0.4574480000000  0.4894170000000 1.0
C      1  0.5682640000000  0.5478460000000  0.5382350000000 1.0
C      1  0.4420490000000  0.4770810000000  0.4864820000000 1.0
C      1  0.5728220000000  0.6037700000000  0.4697890000000 1.0
C      1  0.4704440000000  0.5801510000000  0.5782130000000 1.0
C      1  0.4266030000000  0.4915920000000  0.4422510000000 1.0
C      1  0.5208720000000  0.6066300000000  0.5367560000000 1.0
C      1  0.4580810000000  0.5635090000000  0.4150360000000 1.0
C      1  0.4177160000000  0.4815610000000  0.5529530000000 1.0
C      1  0.5124950000000  0.4260130000000  0.3877610000000 1.0
C      1  0.5027150000000  0.5253090000000  0.3888270000000 1.0
C      1  0.4534350000000  0.6105620000000  0.5110270000000 1.0
C      1  0.4591220000000  0.5089870000000  0.5695230000000 1.0
C      1  0.5459830000000  0.3908420000000  0.4554640000000 1.0
C      1  0.4359310000000  0.5369680000000  0.4563220000000 1.0
C      1  0.4002260000000  0.5664730000000  0.5887750000000 1.0
C      1  0.3924510000000  0.5637690000000  0.4213700000000 1.0
C      1  0.6189140000000  0.4715870000000  0.4956280000000 1.0
C      1  0.6077220000000  0.5388220000000  0.5653290000000 1.0
C      1  0.5476390000000  0.4303580000000  0.5740300000000 1.0
C      1  0.5270330000000  0.5764450000000  0.5322010000000 1.0
C      1  0.4263310000000  0.4826880000000  0.3726860000000 1.0
C      1  0.5201320000000  0.4198440000000  0.4873290000000 1.0
C      1  0.3630840000000  0.4826100000000  0.4651160000000 1.0
C      1  0.5823270000000  0.4538000000000  0.4112320000000 1.0
C      1  0.4721320000000  0.6164260000000  0.4888250000000 1.0
C      1  0.4071620000000  0.5221630000000  0.3939760000000 1.0
C      1  0.5283220000000  0.5671720000000  0.4373670000000 1.0
C      1  0.5813680000000  0.4177360000000  0.4511710000000 1.0
C      1  0.4711530000000  0.4791370000000  0.4946360000000 1.0
C      1  0.5460660000000  0.5091100000000  0.5181250000000 1.0
C      1  0.5670690000000  0.3885830000000  0.4976370000000 1.0
C      1  0.5012550000000  0.4336710000000  0.5923580000000 1.0
C      1  0.5644510000000  0.5200410000000  0.6249430000000 1.0
C      1  0.5975880000000  0.5442070000000  0.5395520000000 1.0
C      1  0.6048430000000  0.4827580000000  0.5401300000000 1.0
C      1  0.4009180000000  0.4787780000000  0.5307550000000 1.0
C      1  0.5371840000000  0.5181180000000  0.6320610000000 1.0
C      1  0.5688530000000  0.4776540000000  0.4009810000000 1.0
C      1  0.4739550000000  0.4233140000000  0.5917340000000 1.0
C      1  0.4776650000000  0.5201480000000  0.4003210000000 1.0
C      1  0.5017120000000  0.4989130000000  0.5234300000000 1.0
C      1  0.5479630000000  0.3745290000000  0.5159560000000 1.0
C      1  0.6123260000000  0.5435530000000  0.5158520000000 1.0
C      1  0.5588720000000  0.4820760000000  0.5201110000000 1.0
C      1  0.5237620000000  0.4317840000000  0.5335560000000 1.0
C      1  0.4549960000000  0.4064750000000  0.5475920000000 1.0
C      1  0.5384570000000  0.5111320000000  0.5482850000000 1.0
C      1  0.4579040000000  0.5641620000000  0.4911020000000 1.0
C      1  0.3965340000000  0.5728020000000  0.4477460000000 1.0
C      1  0.4760800000000  0.4475980000000  0.5392010000000 1.0
C      1  0.5391830000000  0.5013030000000  0.4279980000000 1.0
C      1  0.5118690000000  0.6226350000000  0.5161610000000 1.0
C      1  0.5662190000000  0.5051970000000  0.4155690000000 1.0
C      1  0.5239310000000  0.4160160000000  0.5827310000000 1.0
C      1  0.5198790000000  0.6068770000000  0.4710220000000 1.0
C      1  0.5295460000000  0.5565610000000  0.5073650000000 1.0
C      1  0.5243680000000  0.5660170000000  0.4086570000000 1.0
C      1  0.5218350000000  0.5040040000000  0.4731780000000 1.0
C      1  0.4880880000000  0.3900590000000  0.4175870000000 1.0
C      1  0.5220450000000  0.4548120000000  0.4527320000000 1.0
C      1  0.4718200000000  0.3479320000000  0.5341240000000 1.0
C      1  0.4294470000000  0.4662190000000  0.3527310000000 1.0
C      1  0.4159580000000  0.5183430000000  0.5102930000000 1.0
C      1  0.5298470000000  0.4459470000000  0.3832140000000 1.0
C      1  0.5934980000000  0.5871150000000  0.4686490000000 1.0
C      1  0.4754640000000  0.4901650000000  0.5200510000000 1.0
C      1  0.5270850000000  0.3904950000000  0.5667930000000 1.0
C      1  0.5691540000000  0.3987930000000  0.4699750000000 1.0
C      1  0.4749400000000  0.4398860000000  0.4510010000000 1.0
C      1  0.5406150000000  0.3799980000000  0.5444210000000 1.0
C      1  0.5524490000000  0.5384520000000  0.5131190000000 1.0
C      1  0.6154330000000  0.5426670000000  0.4879180000000 1.0
C      1  0.4725480000000  0.5292240000000  0.5545000000000 1.0
C      1  0.4649560000000  0.4042080000000  0.5727670000000 1.0
C      1  0.4635430000000  0.6106370000000  0.4620440000000 1.0
C      1  0.4711780000000  0.4359360000000  0.4797160000000 1.0
C      1  0.4992900000000  0.3713200000000  0.4355360000000 1.0
C      1  0.4401620000000  0.4956330000000  0.4178450000000 1.0
C      1  0.5148610000000  0.4950900000000  0.5494170000000 1.0
C      1  0.5433710000000  0.5480280000000  0.5802440000000 1.0
C      1  0.3930680000000  0.5038920000000  0.5197750000000 1.0
C      1  0.4813480000000  0.5920320000000  0.4474280000000 1.0
C      1  0.3903240000000  0.5539700000000  0.4686850000000 1.0
C      1  0.3771220000000  0.5586710000000  0.5979620000000 1.0
C      1  0.4251190000000  0.5734700000000  0.5783250000000 1.0
C      1  0.4689580000000  0.4997840000000  0.4187160000000 1.0
C      1  0.5542410000000  0.5313200000000  0.5599540000000 1.0
C      1  0.5235540000000  0.3595580000000  0.4257230000000 1.0
C      1  0.4951350000000  0.5086570000000  0.4617940000000 1.0
C      1  0.5247910000000  0.6150210000000  0.5638020000000 1.0
C      1  0.4451650000000  0.4638860000000  0.5858890000000 1.0
C      1  0.4970250000000  0.3921990000000  0.5207470000000 1.0
C      1  0.5463700000000  0.3712220000000  0.4349880000000 1.0
C      1  0.4673930000000  0.5106470000000  0.5975290000000 1.0
C      1  0.4170080000000  0.5467930000000  0.5115460000000 1.0
C      1  0.5867650000000  0.5249090000000  0.6110990000000 1.0
C      1  0.4272040000000  0.5897950000000  0.5540150000000 1.0
C      1  0.5178350000000  0.5272250000000  0.6135580000000 1.0
END
