TITL C-3866672-3872-572 -6.68484820922699e-07 125000 -1060.93553961723 0 0 175 (C1) n - 1
REM
REM in /home/nfs/bkarasulu/CARBON/AIRSS/Generating-Clusters/LCBOP/Only-C1/SD-CG/FIRE-CG
REM
REM
REM
REM
REM
REM ./C.cell (11c1c37f851c82e70ff6c80c92926a4b)
REM AIRSS Version 0.9.1 bugfix July 2018 build 013d7b7c2542+ Fri, 06 Jul 2018 19:26:36 +0100
REM compiler GCC version 9.2.1 20190827 (Red Hat 9.2.1-1)
REM options -cpp -mtune=generic -march=x86-64 -g -O0 -fpre-include=/usr/include/finclude/math-vector-fortran.h
REM seed 570795395 -355358038 2029542135 1908053277 657667558 744753402 1921576718 -825508816 -2019935625 1548351031 -1956177186 300319031 -565763726 451025815 1764002706 -144455077 1984745710 -1587866232 2055413532 -1844266362 -1400726505 3406013 170641575 -720643791 -1177511939 73656004 1984350796 -1755133311 1145539382 -497627577 1082014775 -875209450 2012084817
REM
CELL 1.54180   50.00000   50.00000   50.00000   90.00000   90.00000   90.00000
LATT -1
SFAC C  
C      1  0.5309810000000  0.4984940000000  0.5908320000000 1.0
C      1  0.5467640000000  0.5750660000000  0.4037200000000 1.0
C      1  0.4912760000000  0.4131630000000  0.5288050000000 1.0
C      1  0.4056460000000  0.5615250000000  0.5095280000000 1.0
C      1  0.4914040000000  0.5087630000000  0.4375920000000 1.0
C      1  0.5346700000000  0.5757340000000  0.4285030000000 1.0
C      1  0.4691520000000  0.5150170000000  0.3507410000000 1.0
C      1  0.5069170000000  0.4603120000000  0.3878220000000 1.0
C      1  0.6055260000000  0.4409700000000  0.4331790000000 1.0
C      1  0.4271520000000  0.5677230000000  0.4673440000000 1.0
C      1  0.6112000000000  0.4609980000000  0.4159770000000 1.0
C      1  0.5878750000000  0.5143470000000  0.6002260000000 1.0
C      1  0.5745630000000  0.4926310000000  0.6127090000000 1.0
C      1  0.4730210000000  0.6159140000000  0.5025850000000 1.0
C      1  0.5728190000000  0.5270860000000  0.5792710000000 1.0
C      1  0.5167910000000  0.5743920000000  0.5002170000000 1.0
C      1  0.4939410000000  0.4736440000000  0.5003590000000 1.0
C      1  0.4920560000000  0.3394640000000  0.5166490000000 1.0
C      1  0.5182350000000  0.4233220000000  0.5706530000000 1.0
C      1  0.4087120000000  0.5049020000000  0.4130130000000 1.0
C      1  0.5506320000000  0.4144610000000  0.4641110000000 1.0
C      1  0.4307100000000  0.5635660000000  0.4958530000000 1.0
C      1  0.5092400000000  0.4404000000000  0.6162310000000 1.0
C      1  0.5465020000000  0.5595310000000  0.4493940000000 1.0
C      1  0.3963540000000  0.5459860000000  0.4369530000000 1.0
C      1  0.4283890000000  0.4972170000000  0.5775930000000 1.0
C      1  0.5732960000000  0.5104730000000  0.5042790000000 1.0
C      1  0.6078880000000  0.5319300000000  0.4333780000000 1.0
C      1  0.4992240000000  0.4237310000000  0.4755570000000 1.0
C      1  0.6037750000000  0.4735210000000  0.5234180000000 1.0
C      1  0.5826650000000  0.4069180000000  0.4982660000000 1.0
C      1  0.5795250000000  0.5530570000000  0.5691030000000 1.0
C      1  0.4914890000000  0.4715870000000  0.3672160000000 1.0
C      1  0.5419390000000  0.5075530000000  0.5440020000000 1.0
C      1  0.4414620000000  0.4967950000000  0.4450900000000 1.0
C      1  0.5970270000000  0.4153090000000  0.5429380000000 1.0
C      1  0.4615590000000  0.5172780000000  0.6081560000000 1.0
C      1  0.6133240000000  0.5214430000000  0.6069770000000 1.0
C      1  0.4868460000000  0.4324670000000  0.4511290000000 1.0
C      1  0.5511420000000  0.4518760000000  0.5952870000000 1.0
C      1  0.5496300000000  0.5126430000000  0.5708900000000 1.0
C      1  0.4525240000000  0.4703760000000  0.4512810000000 1.0
C      1  0.4507090000000  0.3674340000000  0.5307930000000 1.0
C      1  0.3879000000000  0.4763760000000  0.4523710000000 1.0
C      1  0.4488650000000  0.6089980000000  0.4875160000000 1.0
C      1  0.4295600000000  0.4550170000000  0.5147890000000 1.0
C      1  0.4892480000000  0.3995390000000  0.4151020000000 1.0
C      1  0.5183310000000  0.3410890000000  0.5124920000000 1.0
C      1  0.4630610000000  0.5374470000000  0.3638860000000 1.0
C      1  0.5749170000000  0.6145750000000  0.5002400000000 1.0
C      1  0.6038450000000  0.4504830000000  0.5056580000000 1.0
C      1  0.5508910000000  0.4794120000000  0.6042940000000 1.0
C      1  0.5427340000000  0.5589530000000  0.5007630000000 1.0
C      1  0.3455500000000  0.5130750000000  0.5727140000000 1.0
C      1  0.5948850000000  0.4841550000000  0.4722670000000 1.0
C      1  0.4790890000000  0.4602440000000  0.4440820000000 1.0
C      1  0.5478060000000  0.5605420000000  0.5317970000000 1.0
C      1  0.4324540000000  0.4255360000000  0.4547890000000 1.0
C      1  0.5744160000000  0.4414860000000  0.5835200000000 1.0
C      1  0.5017260000000  0.5721700000000  0.4772620000000 1.0
C      1  0.5993680000000  0.5505240000000  0.5032570000000 1.0
C      1  0.6025640000000  0.5486870000000  0.4535950000000 1.0
C      1  0.3758130000000  0.5632120000000  0.4422990000000 1.0
C      1  0.5129320000000  0.3790340000000  0.5548790000000 1.0
C      1  0.4906970000000  0.4859490000000  0.6305540000000 1.0
C      1  0.4888890000000  0.4679200000000  0.5692840000000 1.0
C      1  0.3960550000000  0.5403150000000  0.5252360000000 1.0
C      1  0.4790660000000  0.5530300000000  0.4766900000000 1.0
C      1  0.5124660000000  0.5202960000000  0.6032180000000 1.0
C      1  0.5142700000000  0.5096270000000  0.5409960000000 1.0
C      1  0.3784510000000  0.5432870000000  0.5488500000000 1.0
C      1  0.5553300000000  0.6231880000000  0.4840580000000 1.0
C      1  0.5452990000000  0.4699970000000  0.4193000000000 1.0
C      1  0.5687410000000  0.4797680000000  0.4074350000000 1.0
C      1  0.4247480000000  0.6019420000000  0.5347440000000 1.0
C      1  0.4644030000000  0.5347530000000  0.5294790000000 1.0
C      1  0.4231520000000  0.4811520000000  0.5568490000000 1.0
C      1  0.5472600000000  0.5317820000000  0.4433680000000 1.0
C      1  0.4770940000000  0.5713300000000  0.3980930000000 1.0
C      1  0.4185450000000  0.5430030000000  0.4549870000000 1.0
C      1  0.4564910000000  0.5276930000000  0.4108500000000 1.0
C      1  0.5176960000000  0.4783690000000  0.4091910000000 1.0
C      1  0.4799580000000  0.4512630000000  0.5076970000000 1.0
C      1  0.5962880000000  0.4845080000000  0.4110170000000 1.0
C      1  0.5431880000000  0.3538540000000  0.5108780000000 1.0
C      1  0.4394470000000  0.5125990000000  0.4913810000000 1.0
C      1  0.3630720000000  0.5187010000000  0.5528340000000 1.0
C      1  0.4256870000000  0.5447900000000  0.5882940000000 1.0
C      1  0.4844870000000  0.5865940000000  0.4217120000000 1.0
C      1  0.4808550000000  0.6145820000000  0.5288970000000 1.0
C      1  0.4745070000000  0.5611830000000  0.5217720000000 1.0
C      1  0.3939150000000  0.4306280000000  0.5692680000000 1.0
C      1  0.4197600000000  0.4590830000000  0.4877420000000 1.0
C      1  0.4747630000000  0.4113990000000  0.4357000000000 1.0
C      1  0.4651620000000  0.5814640000000  0.4427230000000 1.0
C      1  0.3709790000000  0.5015770000000  0.5311110000000 1.0
C      1  0.4714090000000  0.5338330000000  0.5567220000000 1.0
C      1  0.5905670000000  0.5715880000000  0.5861330000000 1.0
C      1  0.4629990000000  0.5184080000000  0.5059720000000 1.0
C      1  0.5886790000000  0.5567780000000  0.4768340000000 1.0
C      1  0.5993660000000  0.5227400000000  0.5105270000000 1.0
C      1  0.5174880000000  0.6153980000000  0.4481320000000 1.0
C      1  0.3961040000000  0.5300820000000  0.4137110000000 1.0
C      1  0.4453150000000  0.5915280000000  0.4620090000000 1.0
C      1  0.5439550000000  0.4606910000000  0.4467500000000 1.0
C      1  0.4848330000000  0.5258110000000  0.4881510000000 1.0
C      1  0.5056290000000  0.4088710000000  0.3961810000000 1.0
C      1  0.5783400000000  0.4766900000000  0.5362900000000 1.0
C      1  0.4361610000000  0.4513030000000  0.4655990000000 1.0
C      1  0.4708140000000  0.5531360000000  0.4489640000000 1.0
C      1  0.4283670000000  0.6098410000000  0.5087910000000 1.0
C      1  0.5108710000000  0.5147580000000  0.4874740000000 1.0
C      1  0.5893380000000  0.4413350000000  0.4562690000000 1.0
C      1  0.5905240000000  0.4314930000000  0.5648480000000 1.0
C      1  0.5116750000000  0.5931750000000  0.4313300000000 1.0
C      1  0.3928360000000  0.4445090000000  0.5456490000000 1.0
C      1  0.5022210000000  0.5691520000000  0.5245730000000 1.0
C      1  0.5961300000000  0.3873190000000  0.5469280000000 1.0
C      1  0.3904070000000  0.5136380000000  0.5157340000000 1.0
C      1  0.3863980000000  0.5803400000000  0.5027760000000 1.0
C      1  0.4617840000000  0.4170680000000  0.5320740000000 1.0
C      1  0.5605650000000  0.4389730000000  0.4547630000000 1.0
C      1  0.5899980000000  0.5972990000000  0.5142900000000 1.0
C      1  0.5215420000000  0.4748300000000  0.4592970000000 1.0
C      1  0.5613210000000  0.4973460000000  0.5266690000000 1.0
C      1  0.3712900000000  0.4418490000000  0.5289590000000 1.0
C      1  0.4370980000000  0.5189430000000  0.5934940000000 1.0
C      1  0.5157770000000  0.5471600000000  0.5929690000000 1.0
C      1  0.5123130000000  0.4867450000000  0.4838460000000 1.0
C      1  0.6159010000000  0.4999420000000  0.5186410000000 1.0
C      1  0.6056930000000  0.5100990000000  0.4180220000000 1.0
C      1  0.5204790000000  0.5064910000000  0.3971150000000 1.0
C      1  0.5630320000000  0.3514740000000  0.5306920000000 1.0
C      1  0.4630550000000  0.5470170000000  0.3902100000000 1.0
C      1  0.5121090000000  0.5664180000000  0.5720440000000 1.0
C      1  0.4747660000000  0.5306730000000  0.4327690000000 1.0
C      1  0.4654910000000  0.5594170000000  0.5695890000000 1.0
C      1  0.5010450000000  0.4802710000000  0.4363540000000 1.0
C      1  0.3953360000000  0.4697280000000  0.4776400000000 1.0
C      1  0.5602740000000  0.3973810000000  0.4841580000000 1.0
C      1  0.4970790000000  0.4599520000000  0.6299700000000 1.0
C      1  0.4549420000000  0.4428600000000  0.5194650000000 1.0
C      1  0.5928760000000  0.5703790000000  0.5230160000000 1.0
C      1  0.4880420000000  0.5099220000000  0.6156460000000 1.0
C      1  0.5601720000000  0.5640600000000  0.4753880000000 1.0
C      1  0.5827810000000  0.3645020000000  0.5431200000000 1.0
C      1  0.3944950000000  0.4845720000000  0.4274370000000 1.0
C      1  0.5479130000000  0.3734470000000  0.4913090000000 1.0
C      1  0.4860200000000  0.5792980000000  0.5699730000000 1.0
C      1  0.4474700000000  0.4079500000000  0.4411440000000 1.0
C      1  0.4959480000000  0.4270490000000  0.5034020000000 1.0
C      1  0.4146710000000  0.4614290000000  0.5384610000000 1.0
C      1  0.5079540000000  0.4057340000000  0.5507850000000 1.0
C      1  0.5349520000000  0.6241620000000  0.4666410000000 1.0
C      1  0.3743400000000  0.5660260000000  0.5632850000000 1.0
C      1  0.5225880000000  0.5647890000000  0.5455540000000 1.0
C      1  0.4832580000000  0.6030590000000  0.5535850000000 1.0
C      1  0.4311740000000  0.5168790000000  0.4642880000000 1.0
C      1  0.5268160000000  0.4364180000000  0.5944400000000 1.0
C      1  0.5321400000000  0.5308050000000  0.4953290000000 1.0
C      1  0.5990780000000  0.4569810000000  0.4779390000000 1.0
C      1  0.4678470000000  0.3483180000000  0.5234690000000 1.0
C      1  0.4791900000000  0.4904580000000  0.3530980000000 1.0
C      1  0.4596260000000  0.5647490000000  0.4978950000000 1.0
C      1  0.4378640000000  0.5654050000000  0.5730350000000 1.0
C      1  0.5128120000000  0.4329860000000  0.3874450000000 1.0
C      1  0.4270800000000  0.5861350000000  0.5566940000000 1.0
C      1  0.5964000000000  0.4244350000000  0.5156980000000 1.0
C      1  0.5107270000000  0.4795930000000  0.5776900000000 1.0
C      1  0.4372430000000  0.5066450000000  0.4175410000000 1.0
C      1  0.5582660000000  0.5112510000000  0.4563420000000 1.0
C      1  0.5738430000000  0.5612600000000  0.5424360000000 1.0
C      1  0.5733900000000  0.5012990000000  0.4774040000000 1.0
C      1  0.4468560000000  0.3935890000000  0.5351100000000 1.0
C      1  0.4936220000000  0.5168650000000  0.5566230000000 1.0
END
