TITL C-3866675-3766-224 0.0565691132017354 125000 -1019.75651829221 0 0 168 (C1) n - 1
REM
REM in /home/nfs/bkarasulu/CARBON/AIRSS/Generating-Clusters/LCBOP/Only-C1/SD-CG/HFTN-CG/FIRE-CG
REM
REM
REM
REM
REM
REM ./C.cell (11c1c37f851c82e70ff6c80c92926a4b)
REM AIRSS Version 0.9.1 bugfix July 2018 build 013d7b7c2542+ Fri, 06 Jul 2018 19:26:36 +0100
REM compiler GCC version 9.2.1 20190827 (Red Hat 9.2.1-1)
REM options -cpp -mtune=generic -march=x86-64 -g -O0 -fpre-include=/usr/include/finclude/math-vector-fortran.h
REM seed -1305740096 1865409729 632699219 77004940 1813879530 229223199 -829923323 -984273830 -1372124123 616876010 -1764005905 -1641396146 -1647595932 -787985889 -1628342892 -1046172200 -1893786186 477017911 883420456 -1068867485 748587819 -561303134 -7193761 -870106585 -1940943220 -564726965 -1590749382 325633739 1658276183 1080094114 -1656019264 1618248073 1182169765
REM
CELL 1.54180   50.00000   50.00000   50.00000   90.00000   90.00000   90.00000
LATT -1
SFAC C  
C      1  0.4979090000000  0.4853550000000  0.5532260000000 1.0
C      1  0.5278590000000  0.5847910000000  0.4880380000000 1.0
C      1  0.4469600000000  0.3824990000000  0.5458260000000 1.0
C      1  0.5445520000000  0.4781290000000  0.6011380000000 1.0
C      1  0.6200630000000  0.4819610000000  0.4839520000000 1.0
C      1  0.3840000000000  0.4894830000000  0.4805250000000 1.0
C      1  0.6108320000000  0.4333330000000  0.4557530000000 1.0
C      1  0.3740540000000  0.4896660000000  0.5884810000000 1.0
C      1  0.3595250000000  0.5576910000000  0.4790710000000 1.0
C      1  0.6121720000000  0.5637060000000  0.5452330000000 1.0
C      1  0.4695740000000  0.3948790000000  0.6329650000000 1.0
C      1  0.4307520000000  0.4943820000000  0.4455940000000 1.0
C      1  0.3613770000000  0.5983340000000  0.5426350000000 1.0
C      1  0.4952410000000  0.5310760000000  0.6049620000000 1.0
C      1  0.4625940000000  0.5993760000000  0.4368510000000 1.0
C      1  0.5341980000000  0.4934240000000  0.3852280000000 1.0
C      1  0.5369030000000  0.5016900000000  0.5121270000000 1.0
C      1  0.3506230000000  0.5904610000000  0.5179730000000 1.0
C      1  0.5135240000000  0.5583450000000  0.4882360000000 1.0
C      1  0.4679060000000  0.5529440000000  0.5369570000000 1.0
C      1  0.5432300000000  0.4462610000000  0.3977420000000 1.0
C      1  0.4206250000000  0.4529150000000  0.4945710000000 1.0
C      1  0.5034160000000  0.3791040000000  0.4725150000000 1.0
C      1  0.5709400000000  0.5393640000000  0.5198250000000 1.0
C      1  0.3988070000000  0.5415370000000  0.5366940000000 1.0
C      1  0.6004210000000  0.5151590000000  0.5498720000000 1.0
C      1  0.4034520000000  0.5643190000000  0.5530930000000 1.0
C      1  0.5086360000000  0.3612030000000  0.5571580000000 1.0
C      1  0.6012710000000  0.5914040000000  0.4995120000000 1.0
C      1  0.4460630000000  0.3916190000000  0.5194590000000 1.0
C      1  0.6124510000000  0.4870400000000  0.4567890000000 1.0
C      1  0.5364540000000  0.5829040000000  0.4076030000000 1.0
C      1  0.5247300000000  0.5449740000000  0.3798020000000 1.0
C      1  0.4554060000000  0.5177590000000  0.5733920000000 1.0
C      1  0.6136950000000  0.4744320000000  0.4303390000000 1.0
C      1  0.6211710000000  0.5023280000000  0.5050930000000 1.0
C      1  0.4471610000000  0.4423460000000  0.4978340000000 1.0
C      1  0.4468090000000  0.5044980000000  0.5233300000000 1.0
C      1  0.6177890000000  0.5292970000000  0.4987020000000 1.0
C      1  0.4456120000000  0.3735370000000  0.4980000000000 1.0
C      1  0.4757290000000  0.5795620000000  0.5854340000000 1.0
C      1  0.4202110000000  0.5554620000000  0.4395590000000 1.0
C      1  0.4987990000000  0.5473580000000  0.4674260000000 1.0
C      1  0.3836100000000  0.5842440000000  0.5522760000000 1.0
C      1  0.4836540000000  0.5982390000000  0.5167430000000 1.0
C      1  0.4683730000000  0.5812260000000  0.5318100000000 1.0
C      1  0.4775090000000  0.4675190000000  0.5561860000000 1.0
C      1  0.5060510000000  0.5498060000000  0.5133260000000 1.0
C      1  0.4491560000000  0.5770240000000  0.5811900000000 1.0
C      1  0.4800850000000  0.4921510000000  0.4282080000000 1.0
C      1  0.4819710000000  0.6361730000000  0.4626070000000 1.0
C      1  0.3798040000000  0.5392820000000  0.4727210000000 1.0
C      1  0.5399990000000  0.5694490000000  0.3829540000000 1.0
C      1  0.3826480000000  0.4280520000000  0.5753210000000 1.0
C      1  0.4637720000000  0.5747510000000  0.4222690000000 1.0
C      1  0.5532240000000  0.4644310000000  0.4915610000000 1.0
C      1  0.5224120000000  0.4451110000000  0.5450900000000 1.0
C      1  0.5612370000000  0.5642730000000  0.5332720000000 1.0
C      1  0.5283820000000  0.3792470000000  0.5136330000000 1.0
C      1  0.5060330000000  0.6022700000000  0.5015020000000 1.0
C      1  0.4845240000000  0.6129720000000  0.4486590000000 1.0
C      1  0.5467400000000  0.4746470000000  0.4038410000000 1.0
C      1  0.4957100000000  0.5138470000000  0.5527800000000 1.0
C      1  0.5201700000000  0.5272040000000  0.5516440000000 1.0
C      1  0.3975460000000  0.4673320000000  0.4932210000000 1.0
C      1  0.5399420000000  0.4626560000000  0.6221800000000 1.0
C      1  0.4704300000000  0.5191910000000  0.5988680000000 1.0
C      1  0.4305070000000  0.4985740000000  0.4741580000000 1.0
C      1  0.4605090000000  0.5306500000000  0.4423950000000 1.0
C      1  0.5454660000000  0.5078410000000  0.4666400000000 1.0
C      1  0.3830500000000  0.5169130000000  0.4909770000000 1.0
C      1  0.5473990000000  0.5431070000000  0.5820190000000 1.0
C      1  0.4190410000000  0.3569520000000  0.5940020000000 1.0
C      1  0.5028940000000  0.5721640000000  0.5811540000000 1.0
C      1  0.5014530000000  0.4312860000000  0.4217270000000 1.0
C      1  0.5669070000000  0.4313720000000  0.3999830000000 1.0
C      1  0.5870280000000  0.5136420000000  0.4048710000000 1.0
C      1  0.4891120000000  0.4097920000000  0.6429270000000 1.0
C      1  0.5094300000000  0.4267640000000  0.6445810000000 1.0
C      1  0.5317370000000  0.5879070000000  0.4564230000000 1.0
C      1  0.5453060000000  0.5704740000000  0.4337220000000 1.0
C      1  0.5767940000000  0.5801790000000  0.4886360000000 1.0
C      1  0.5463110000000  0.5414790000000  0.4275800000000 1.0
C      1  0.6057480000000  0.4944130000000  0.5295990000000 1.0
C      1  0.5091930000000  0.6010920000000  0.4414670000000 1.0
C      1  0.4854860000000  0.4083480000000  0.4214340000000 1.0
C      1  0.5409040000000  0.5212780000000  0.3858160000000 1.0
C      1  0.5211050000000  0.5272220000000  0.4301560000000 1.0
C      1  0.4796490000000  0.5399900000000  0.5143830000000 1.0
C      1  0.5673780000000  0.5555750000000  0.5628840000000 1.0
C      1  0.5271130000000  0.4741250000000  0.5534060000000 1.0
C      1  0.6144670000000  0.6119270000000  0.4860300000000 1.0
C      1  0.5099930000000  0.4212340000000  0.4966620000000 1.0
C      1  0.3967850000000  0.4964550000000  0.5760530000000 1.0
C      1  0.4399190000000  0.5026100000000  0.5528180000000 1.0
C      1  0.5933590000000  0.4687530000000  0.5204160000000 1.0
C      1  0.6087970000000  0.4335640000000  0.4839550000000 1.0
C      1  0.4538910000000  0.5045400000000  0.4322850000000 1.0
C      1  0.4476480000000  0.5537520000000  0.4329050000000 1.0
C      1  0.5773690000000  0.5523990000000  0.4783880000000 1.0
C      1  0.4579720000000  0.3714150000000  0.5690670000000 1.0
C      1  0.3598840000000  0.4675050000000  0.5938930000000 1.0
C      1  0.5536410000000  0.5328880000000  0.4784180000000 1.0
C      1  0.4717070000000  0.4523780000000  0.4863920000000 1.0
C      1  0.5274050000000  0.4449080000000  0.6374030000000 1.0
C      1  0.6266420000000  0.6310460000000  0.4731680000000 1.0
C      1  0.4956410000000  0.4363710000000  0.4768140000000 1.0
C      1  0.5158440000000  0.3934890000000  0.4929840000000 1.0
C      1  0.4052470000000  0.4355870000000  0.5629350000000 1.0
C      1  0.5492820000000  0.5263890000000  0.5073740000000 1.0
C      1  0.4765450000000  0.3866410000000  0.4339750000000 1.0
C      1  0.6075810000000  0.4462690000000  0.4307510000000 1.0
C      1  0.4845350000000  0.3625460000000  0.5682740000000 1.0
C      1  0.6026190000000  0.3880740000000  0.5121680000000 1.0
C      1  0.5954580000000  0.5435750000000  0.5582080000000 1.0
C      1  0.5620950000000  0.5278500000000  0.4059850000000 1.0
C      1  0.5620780000000  0.4968690000000  0.4473680000000 1.0
C      1  0.6085050000000  0.4585570000000  0.4971960000000 1.0
C      1  0.4294260000000  0.4998200000000  0.5012070000000 1.0
C      1  0.5251260000000  0.3672930000000  0.5371930000000 1.0
C      1  0.3832370000000  0.4868670000000  0.4519210000000 1.0
C      1  0.5157170000000  0.5764120000000  0.5558250000000 1.0
C      1  0.4786340000000  0.5283880000000  0.4641190000000 1.0
C      1  0.4861690000000  0.4724640000000  0.4473230000000 1.0
C      1  0.4262060000000  0.5690480000000  0.5694440000000 1.0
C      1  0.4430640000000  0.3699920000000  0.5931920000000 1.0
C      1  0.6066470000000  0.4097430000000  0.4982610000000 1.0
C      1  0.5114770000000  0.4818390000000  0.3723510000000 1.0
C      1  0.5149420000000  0.4402340000000  0.3976500000000 1.0
C      1  0.5652330000000  0.4658310000000  0.5183810000000 1.0
C      1  0.3498240000000  0.5760800000000  0.4956480000000 1.0
C      1  0.4765190000000  0.5056430000000  0.4825700000000 1.0
C      1  0.4571420000000  0.3672360000000  0.4747750000000 1.0
C      1  0.5017110000000  0.5099500000000  0.4227970000000 1.0
C      1  0.5329370000000  0.4581820000000  0.4464780000000 1.0
C      1  0.5014740000000  0.4571800000000  0.3788410000000 1.0
C      1  0.5179230000000  0.5527620000000  0.5389780000000 1.0
C      1  0.6116830000000  0.5810650000000  0.5242700000000 1.0
C      1  0.4879660000000  0.5720430000000  0.4060770000000 1.0
C      1  0.4972120000000  0.5511390000000  0.3880100000000 1.0
C      1  0.5093630000000  0.5906650000000  0.4142360000000 1.0
C      1  0.4731040000000  0.5325200000000  0.5566530000000 1.0
C      1  0.4706200000000  0.5141480000000  0.5091130000000 1.0
C      1  0.4188340000000  0.4580850000000  0.5577950000000 1.0
C      1  0.4790810000000  0.3748550000000  0.4591640000000 1.0
C      1  0.4051730000000  0.4875350000000  0.4357400000000 1.0
C      1  0.5887060000000  0.5020940000000  0.4539020000000 1.0
C      1  0.6043370000000  0.4928940000000  0.4097700000000 1.0
C      1  0.3505630000000  0.6190310000000  0.5567950000000 1.0
C      1  0.5044900000000  0.4476900000000  0.4477750000000 1.0
C      1  0.5373030000000  0.4884350000000  0.4859960000000 1.0
C      1  0.4485940000000  0.4188350000000  0.5133000000000 1.0
C      1  0.5911650000000  0.4341730000000  0.4112550000000 1.0
C      1  0.5457100000000  0.4829010000000  0.5315310000000 1.0
C      1  0.5397870000000  0.5181010000000  0.5706710000000 1.0
C      1  0.5154770000000  0.4319190000000  0.5225500000000 1.0
C      1  0.3890650000000  0.5250130000000  0.5177280000000 1.0
C      1  0.5493430000000  0.4769940000000  0.4321020000000 1.0
C      1  0.4186890000000  0.4859770000000  0.5617210000000 1.0
C      1  0.5926300000000  0.5405330000000  0.5004810000000 1.0
C      1  0.5268850000000  0.6009600000000  0.5511440000000 1.0
C      1  0.3988950000000  0.5467880000000  0.4533050000000 1.0
C      1  0.5391990000000  0.4900730000000  0.5766600000000 1.0
C      1  0.3633130000000  0.4413770000000  0.5884590000000 1.0
C      1  0.4763500000000  0.4783790000000  0.4741830000000 1.0
C      1  0.5151910000000  0.5510400000000  0.5960260000000 1.0
C      1  0.5533460000000  0.5820060000000  0.5072940000000 1.0
C      1  0.4536120000000  0.3820360000000  0.6161420000000 1.0
END
