TITL C-3866674-3872-619 0.00726284451148043 125000 -266.355028193814 0 0 45 (C1) n - 1
REM
REM in /home/nfs/bkarasulu/CARBON/AIRSS/Generating-Clusters/LCBOP/Only-C1/SD-CG/FIRE-CG
REM
REM
REM
REM
REM
REM ./C.cell (11c1c37f851c82e70ff6c80c92926a4b)
REM AIRSS Version 0.9.1 bugfix July 2018 build 013d7b7c2542+ Fri, 06 Jul 2018 19:26:36 +0100
REM compiler GCC version 9.2.1 20190827 (Red Hat 9.2.1-1)
REM options -cpp -mtune=generic -march=x86-64 -g -O0 -fpre-include=/usr/include/finclude/math-vector-fortran.h
REM seed 859973203 1488182701 613396688 -423357180 -623157346 874390590 -1565586785 -2082881882 1591701681 -1196816989 -1978495944 -1089908353 -244986187 -1889238239 -611941947 -765648351 1769766853 -283594405 440574899 1626623999 -1427696244 -116632142 219336892 -1323476271 -364834672 917700368 228763865 -1310988854 25996195 -1465210614 -239174687 -1533739548 -860409545
REM
CELL 1.54180   50.00000   50.00000   50.00000   90.00000   90.00000   90.00000
LATT -1
SFAC C  
C      1  0.5769930000000  0.5508650000000  0.4561680000000 1.0
C      1  0.5520290000000  0.4798580000000  0.4500840000000 1.0
C      1  0.5991630000000  0.4854190000000  0.4439590000000 1.0
C      1  0.4732580000000  0.5016070000000  0.5369010000000 1.0
C      1  0.4966800000000  0.5170850000000  0.5375520000000 1.0
C      1  0.5781460000000  0.5089460000000  0.4805230000000 1.0
C      1  0.4618690000000  0.4772150000000  0.4581840000000 1.0
C      1  0.5383230000000  0.5166730000000  0.5611090000000 1.0
C      1  0.6150510000000  0.4875140000000  0.5050250000000 1.0
C      1  0.4919500000000  0.4614990000000  0.5013330000000 1.0
C      1  0.5533400000000  0.5180980000000  0.5372180000000 1.0
C      1  0.4105910000000  0.4677780000000  0.5534010000000 1.0
C      1  0.3014080000000  0.4049400000000  0.4897390000000 1.0
C      1  0.3745470000000  0.4341420000000  0.4825970000000 1.0
C      1  0.5052220000000  0.4607540000000  0.4356520000000 1.0
C      1  0.4641840000000  0.4658110000000  0.5049570000000 1.0
C      1  0.3990540000000  0.4439740000000  0.4803850000000 1.0
C      1  0.3500370000000  0.4243560000000  0.4849880000000 1.0
C      1  0.5387490000000  0.5943660000000  0.5166840000000 1.0
C      1  0.5087410000000  0.4801470000000  0.4914720000000 1.0
C      1  0.4675800000000  0.5048420000000  0.4596370000000 1.0
C      1  0.5387350000000  0.5304740000000  0.5158270000000 1.0
C      1  0.5764240000000  0.4911600000000  0.4582000000000 1.0
C      1  0.4564670000000  0.4805910000000  0.5281720000000 1.0
C      1  0.5690620000000  0.5360110000000  0.4777980000000 1.0
C      1  0.4488760000000  0.4652940000000  0.4807610000000 1.0
C      1  0.5253720000000  0.6013220000000  0.5386650000000 1.0
C      1  0.5902630000000  0.5002960000000  0.5050570000000 1.0
C      1  0.4330910000000  0.4742830000000  0.5419730000000 1.0
C      1  0.5117500000000  0.5219820000000  0.5133860000000 1.0
C      1  0.5025630000000  0.5464080000000  0.5764610000000 1.0
C      1  0.4892760000000  0.5200430000000  0.4692670000000 1.0
C      1  0.5519860000000  0.5474590000000  0.4975200000000 1.0
C      1  0.3255210000000  0.4145680000000  0.4873830000000 1.0
C      1  0.5769350000000  0.5054920000000  0.5293440000000 1.0
C      1  0.4235180000000  0.4540570000000  0.4792390000000 1.0
C      1  0.6382110000000  0.4755670000000  0.5047990000000 1.0
C      1  0.5107330000000  0.5241170000000  0.5616260000000 1.0
C      1  0.5035560000000  0.5730860000000  0.5751990000000 1.0
C      1  0.5048720000000  0.5081150000000  0.4898350000000 1.0
C      1  0.5486400000000  0.5750410000000  0.5012150000000 1.0
C      1  0.4952080000000  0.5446370000000  0.4590400000000 1.0
C      1  0.5122790000000  0.5936450000000  0.5605900000000 1.0
C      1  0.5305950000000  0.4680750000000  0.4395140000000 1.0
C      1  0.4791500000000  0.4623880000000  0.4415520000000 1.0
END
