TITL C-3866674-3872-430 -9.56866428340288e-07 125000 -410.417334100116 0 0 68 (C1) n - 1
REM
REM in /home/nfs/bkarasulu/CARBON/AIRSS/Generating-Clusters/LCBOP/Only-C1/SD-CG/FIRE-CG
REM
REM
REM
REM
REM
REM ./C.cell (11c1c37f851c82e70ff6c80c92926a4b)
REM AIRSS Version 0.9.1 bugfix July 2018 build 013d7b7c2542+ Fri, 06 Jul 2018 19:26:36 +0100
REM compiler GCC version 9.2.1 20190827 (Red Hat 9.2.1-1)
REM options -cpp -mtune=generic -march=x86-64 -g -O0 -fpre-include=/usr/include/finclude/math-vector-fortran.h
REM seed -882569984 -1193686275 -1280466485 725602001 -561828339 -986264489 587633803 -1663743962 -798172824 -2145833821 -1586359580 324190557 1338820721 -1986108851 147416371 1097082756 1152895644 -694279438 -277307684 -1338602978 -1010580285 1881176503 -118251091 1595137513 -702708198 1924518230 -908755484 1485128610 -749852601 810552713 -2056777474 -771930784 1680409519
REM
CELL 1.54180   50.00000   50.00000   50.00000   90.00000   90.00000   90.00000
LATT -1
SFAC C  
C      1  0.5090990000000  0.4498050000000  0.4871070000000 1.0
C      1  0.4871570000000  0.4727280000000  0.5591730000000 1.0
C      1  0.5308530000000  0.4566570000000  0.5848160000000 1.0
C      1  0.5157780000000  0.4658850000000  0.4146640000000 1.0
C      1  0.5349280000000  0.5499290000000  0.4349210000000 1.0
C      1  0.4997870000000  0.4113570000000  0.5189110000000 1.0
C      1  0.4389060000000  0.5538810000000  0.4697070000000 1.0
C      1  0.5204580000000  0.4757930000000  0.6014120000000 1.0
C      1  0.4934760000000  0.5770820000000  0.5099890000000 1.0
C      1  0.4970580000000  0.4463850000000  0.5534470000000 1.0
C      1  0.5251600000000  0.4464500000000  0.5583980000000 1.0
C      1  0.4490660000000  0.4981190000000  0.5722870000000 1.0
C      1  0.4399020000000  0.5376660000000  0.4483970000000 1.0
C      1  0.5536090000000  0.4351140000000  0.4756670000000 1.0
C      1  0.5151230000000  0.4920880000000  0.4067480000000 1.0
C      1  0.4641250000000  0.5419190000000  0.5290400000000 1.0
C      1  0.5093680000000  0.5372650000000  0.4319030000000 1.0
C      1  0.4537030000000  0.4723230000000  0.5287530000000 1.0
C      1  0.4823060000000  0.4851020000000  0.4488470000000 1.0
C      1  0.5552630000000  0.5308500000000  0.4396140000000 1.0
C      1  0.4969540000000  0.5903900000000  0.4840380000000 1.0
C      1  0.4605950000000  0.4700270000000  0.4580620000000 1.0
C      1  0.4662870000000  0.5651590000000  0.5122170000000 1.0
C      1  0.5075580000000  0.4914110000000  0.4635220000000 1.0
C      1  0.5504370000000  0.4606360000000  0.4667580000000 1.0
C      1  0.4988930000000  0.5199070000000  0.5040910000000 1.0
C      1  0.5057750000000  0.4428090000000  0.4607860000000 1.0
C      1  0.5936030000000  0.5106830000000  0.4994550000000 1.0
C      1  0.4533250000000  0.4955240000000  0.5119390000000 1.0
C      1  0.5104250000000  0.4477830000000  0.4343230000000 1.0
C      1  0.5193810000000  0.5884350000000  0.4671080000000 1.0
C      1  0.4857940000000  0.5156770000000  0.5973210000000 1.0
C      1  0.4641880000000  0.5407210000000  0.5576220000000 1.0
C      1  0.5530250000000  0.5059530000000  0.4497290000000 1.0
C      1  0.5235200000000  0.4555910000000  0.5096830000000 1.0
C      1  0.5366470000000  0.4851660000000  0.4604000000000 1.0
C      1  0.5725330000000  0.5270120000000  0.5012920000000 1.0
C      1  0.5042140000000  0.4972930000000  0.6055070000000 1.0
C      1  0.3893130000000  0.5061730000000  0.4751110000000 1.0
C      1  0.4024490000000  0.5214740000000  0.5181150000000 1.0
C      1  0.4382480000000  0.4764820000000  0.4712650000000 1.0
C      1  0.4596520000000  0.4781150000000  0.5558410000000 1.0
C      1  0.5220700000000  0.4053070000000  0.5045450000000 1.0
C      1  0.4971950000000  0.5373660000000  0.4581760000000 1.0
C      1  0.5617360000000  0.4710380000000  0.5373060000000 1.0
C      1  0.5473350000000  0.5308890000000  0.5088570000000 1.0
C      1  0.4079910000000  0.5076280000000  0.4951220000000 1.0
C      1  0.5204810000000  0.5359110000000  0.5149670000000 1.0
C      1  0.5427150000000  0.4141070000000  0.4891530000000 1.0
C      1  0.5013530000000  0.5162790000000  0.4765020000000 1.0
C      1  0.4647520000000  0.5211940000000  0.5785420000000 1.0
C      1  0.4756670000000  0.5048550000000  0.4286460000000 1.0
C      1  0.4699060000000  0.5910670000000  0.4738260000000 1.0
C      1  0.4722020000000  0.5174900000000  0.5154180000000 1.0
C      1  0.5054790000000  0.4942710000000  0.5563690000000 1.0
C      1  0.4845340000000  0.4315970000000  0.5320900000000 1.0
C      1  0.5861250000000  0.4689940000000  0.5238270000000 1.0
C      1  0.5336490000000  0.5749170000000  0.4485520000000 1.0
C      1  0.4526730000000  0.5207110000000  0.4320220000000 1.0
C      1  0.5997120000000  0.4860520000000  0.5081580000000 1.0
C      1  0.5550720000000  0.4950140000000  0.5508700000000 1.0
C      1  0.5001370000000  0.5145440000000  0.4164690000000 1.0
C      1  0.5392830000000  0.4538900000000  0.5340260000000 1.0
C      1  0.4528650000000  0.5712630000000  0.4866420000000 1.0
C      1  0.5139020000000  0.5623680000000  0.5222300000000 1.0
C      1  0.4619320000000  0.4457850000000  0.5211950000000 1.0
C      1  0.5303800000000  0.5041780000000  0.5563620000000 1.0
C      1  0.4329140000000  0.4944680000000  0.4921420000000 1.0
END
