TITL C-3866671-3735-332 -0.0555342651005965 125000 -340.706240553675 0 0 57 (C1) n - 1
REM
REM in /home/nfs/bkarasulu/CARBON/AIRSS/Generating-Clusters/LCBOP/Only-C1/SD-CG/FIRE-CG
REM
REM
REM
REM
REM
REM ./C.cell (11c1c37f851c82e70ff6c80c92926a4b)
REM AIRSS Version 0.9.1 bugfix July 2018 build 013d7b7c2542+ Fri, 06 Jul 2018 19:26:36 +0100
REM compiler GCC version 9.2.1 20190827 (Red Hat 9.2.1-1)
REM options -cpp -mtune=generic -march=x86-64 -g -O0 -fpre-include=/usr/include/finclude/math-vector-fortran.h
REM seed 451680462 -1433865242 680834711 -1486454754 -316521945 1709972076 482744738 1507220314 1239400741 68227501 716137412 1996808011 1654308790 1579265570 2144389913 -416385918 -276260431 -1224439598 -208955589 -382885708 2070766453 351236456 -94116092 1839933422 910110978 -2005160692 -72514068 1765053604 1844187275 -1505746722 81948527 -1252248276 1429851198
REM
CELL 1.54180   50.00000   50.00000   50.00000   90.00000   90.00000   90.00000
LATT -1
SFAC C  
C      1  0.5523110000000  0.5308670000000  0.5389770000000 1.0
C      1  0.5042320000000  0.5121160000000  0.4982090000000 1.0
C      1  0.4478520000000  0.5116690000000  0.5754930000000 1.0
C      1  0.5438050000000  0.5538990000000  0.4518500000000 1.0
C      1  0.4824090000000  0.3773060000000  0.4041250000000 1.0
C      1  0.4598000000000  0.3872320000000  0.4461760000000 1.0
C      1  0.5061390000000  0.4682440000000  0.5944170000000 1.0
C      1  0.5425600000000  0.5529420000000  0.5238200000000 1.0
C      1  0.4883450000000  0.5912570000000  0.5558550000000 1.0
C      1  0.5468990000000  0.5256520000000  0.4496350000000 1.0
C      1  0.4846190000000  0.5514560000000  0.4434400000000 1.0
C      1  0.4942220000000  0.5425170000000  0.5436250000000 1.0
C      1  0.5040080000000  0.4217080000000  0.4114420000000 1.0
C      1  0.4696580000000  0.4671870000000  0.4874670000000 1.0
C      1  0.4984470000000  0.3983840000000  0.3996260000000 1.0
C      1  0.4757370000000  0.5061250000000  0.4317220000000 1.0
C      1  0.4490050000000  0.5158610000000  0.4878420000000 1.0
C      1  0.5289310000000  0.5673250000000  0.4318600000000 1.0
C      1  0.4893560000000  0.4485420000000  0.4795120000000 1.0
C      1  0.5051740000000  0.5136690000000  0.4694870000000 1.0
C      1  0.4932490000000  0.5296600000000  0.5180110000000 1.0
C      1  0.4852580000000  0.5243450000000  0.4510650000000 1.0
C      1  0.5418330000000  0.5654670000000  0.4774480000000 1.0
C      1  0.5277720000000  0.4772950000000  0.4473190000000 1.0
C      1  0.4549230000000  0.4896220000000  0.4877040000000 1.0
C      1  0.4989870000000  0.4401620000000  0.4319030000000 1.0
C      1  0.4832720000000  0.4709240000000  0.5775940000000 1.0
C      1  0.5072130000000  0.4674870000000  0.4294510000000 1.0
C      1  0.4807780000000  0.5508270000000  0.5003980000000 1.0
C      1  0.5167510000000  0.4500110000000  0.4878020000000 1.0
C      1  0.5442200000000  0.5245600000000  0.5658940000000 1.0
C      1  0.4533730000000  0.5425770000000  0.4970320000000 1.0
C      1  0.5346140000000  0.4587120000000  0.4674140000000 1.0
C      1  0.4286660000000  0.5458460000000  0.5413430000000 1.0
C      1  0.4933220000000  0.5795270000000  0.5315590000000 1.0
C      1  0.4847260000000  0.4327410000000  0.4559800000000 1.0
C      1  0.4653900000000  0.3724930000000  0.4244220000000 1.0
C      1  0.5460340000000  0.4984070000000  0.5761270000000 1.0
C      1  0.5656260000000  0.5097460000000  0.5259110000000 1.0
C      1  0.5000210000000  0.5726730000000  0.5053680000000 1.0
C      1  0.5040840000000  0.4552820000000  0.6184300000000 1.0
C      1  0.5279050000000  0.4488750000000  0.5133620000000 1.0
C      1  0.5288050000000  0.5047230000000  0.4553930000000 1.0
C      1  0.4907690000000  0.5745870000000  0.5774390000000 1.0
C      1  0.4880230000000  0.4855390000000  0.4197480000000 1.0
C      1  0.4785210000000  0.4521020000000  0.5582500000000 1.0
C      1  0.5019520000000  0.5678750000000  0.4310400000000 1.0
C      1  0.4342050000000  0.5304130000000  0.5623860000000 1.0
C      1  0.5003280000000  0.5485890000000  0.5702830000000 1.0
C      1  0.5285320000000  0.5658800000000  0.5021710000000 1.0
C      1  0.4678070000000  0.4104270000000  0.4567790000000 1.0
C      1  0.4656360000000  0.4925450000000  0.5805900000000 1.0
C      1  0.5488450000000  0.4612970000000  0.5244740000000 1.0
C      1  0.4348100000000  0.5521020000000  0.5160270000000 1.0
C      1  0.5306580000000  0.4790420000000  0.5861030000000 1.0
C      1  0.5641360000000  0.4831460000000  0.5240300000000 1.0
C      1  0.5254450000000  0.5405370000000  0.5791670000000 1.0
END
