TITL C-3866673-4222-372 171.592866633569 125000 -742.188329913729 0 0 121 (C1) n - 1
REM
REM in /home/nfs/bkarasulu/CARBON/AIRSS/Generating-Clusters/LCBOP/Only-C1/SD-CG/FIRE-CG
REM
REM
REM
REM
REM
REM ./C.cell (11c1c37f851c82e70ff6c80c92926a4b)
REM AIRSS Version 0.9.1 bugfix July 2018 build 013d7b7c2542+ Fri, 06 Jul 2018 19:26:36 +0100
REM compiler GCC version 9.2.1 20190827 (Red Hat 9.2.1-1)
REM options -cpp -mtune=generic -march=x86-64 -g -O0 -fpre-include=/usr/include/finclude/math-vector-fortran.h
REM seed -1546594314 890708098 -1585893770 -1651488119 1450285305 1877347482 -2123179947 -1349859461 -1561234277 1385752581 -1562192545 743641882 -270092413 931571516 105024091 1313292618 -1989774768 -1411479220 658139059 1058744608 -571067113 -200595048 2039124659 -1427931371 647444173 -1099786821 128205741 -2105954407 178207709 904561460 -998421395 21031291 634153927
REM
CELL 1.54180   50.00000   50.00000   50.00000   90.00000   90.00000   90.00000
LATT -1
SFAC C  
C      1  0.4399760000000  0.4437300000000  0.4492880000000 1.0
C      1  0.4771920000000  0.5308470000000  0.4974470000000 1.0
C      1  0.4651670000000  0.4797170000000  0.4918570000000 1.0
C      1  0.4928640000000  0.5289590000000  0.6047260000000 1.0
C      1  0.4283860000000  0.5170080000000  0.5626770000000 1.0
C      1  0.5408900000000  0.4170510000000  0.5134440000000 1.0
C      1  0.4471590000000  0.4555740000000  0.5262730000000 1.0
C      1  0.5428320000000  0.4453940000000  0.5103900000000 1.0
C      1  0.5447460000000  0.5725990000000  0.5611960000000 1.0
C      1  0.6019740000000  0.5048240000000  0.5809490000000 1.0
C      1  0.5933160000000  0.4400970000000  0.5458970000000 1.0
C      1  0.4665910000000  0.5183880000000  0.6005320000000 1.0
C      1  0.4905690000000  0.5296770000000  0.4484960000000 1.0
C      1  0.5186890000000  0.5172310000000  0.5465730000000 1.0
C      1  0.4571320000000  0.5346410000000  0.4777130000000 1.0
C      1  0.5831790000000  0.5484170000000  0.5070970000000 1.0
C      1  0.4959110000000  0.3939130000000  0.4693440000000 1.0
C      1  0.4611520000000  0.5857820000000  0.4826270000000 1.0
C      1  0.4560210000000  0.4550070000000  0.4280170000000 1.0
C      1  0.5051340000000  0.4522750000000  0.4113500000000 1.0
C      1  0.5266880000000  0.5151140000000  0.4882230000000 1.0
C      1  0.5407570000000  0.4077880000000  0.4854290000000 1.0
C      1  0.5422210000000  0.5225630000000  0.4400320000000 1.0
C      1  0.4172310000000  0.4444460000000  0.4924360000000 1.0
C      1  0.5821240000000  0.5030550000000  0.4606600000000 1.0
C      1  0.5634630000000  0.4862260000000  0.5012310000000 1.0
C      1  0.4338850000000  0.4198110000000  0.4899470000000 1.0
C      1  0.4089100000000  0.4829050000000  0.4636090000000 1.0
C      1  0.4835720000000  0.4704850000000  0.4739200000000 1.0
C      1  0.5318800000000  0.4962290000000  0.5970770000000 1.0
C      1  0.4905590000000  0.4568180000000  0.5884150000000 1.0
C      1  0.4454750000000  0.5068310000000  0.4413560000000 1.0
C      1  0.5243060000000  0.6003270000000  0.5108390000000 1.0
C      1  0.5031950000000  0.5045770000000  0.4489960000000 1.0
C      1  0.5776260000000  0.5104850000000  0.5395450000000 1.0
C      1  0.4311080000000  0.5450050000000  0.4807300000000 1.0
C      1  0.4622630000000  0.4847020000000  0.4290680000000 1.0
C      1  0.5324530000000  0.5854620000000  0.4529160000000 1.0
C      1  0.5493200000000  0.4796190000000  0.4176580000000 1.0
C      1  0.5630400000000  0.5664730000000  0.5048270000000 1.0
C      1  0.5392060000000  0.4729010000000  0.5825910000000 1.0
C      1  0.5857210000000  0.5298470000000  0.4503290000000 1.0
C      1  0.5303200000000  0.3608850000000  0.4778710000000 1.0
C      1  0.4818440000000  0.6025540000000  0.5298650000000 1.0
C      1  0.4507190000000  0.5290670000000  0.5787240000000 1.0
C      1  0.4458550000000  0.4102980000000  0.5137470000000 1.0
C      1  0.5030800000000  0.4993410000000  0.3999770000000 1.0
C      1  0.5644990000000  0.4766660000000  0.4439420000000 1.0
C      1  0.5164370000000  0.5540730000000  0.5157920000000 1.0
C      1  0.4687500000000  0.5255190000000  0.5232810000000 1.0
C      1  0.4345710000000  0.5669220000000  0.4985660000000 1.0
C      1  0.4486480000000  0.4201650000000  0.4648910000000 1.0
C      1  0.5107890000000  0.4719010000000  0.5307300000000 1.0
C      1  0.4664810000000  0.4502720000000  0.5740110000000 1.0
C      1  0.5665160000000  0.4597790000000  0.5090930000000 1.0
C      1  0.4796950000000  0.4430950000000  0.4159610000000 1.0
C      1  0.4117910000000  0.5260630000000  0.4734700000000 1.0
C      1  0.4546300000000  0.4289010000000  0.5327990000000 1.0
C      1  0.5635120000000  0.4497290000000  0.4555620000000 1.0
C      1  0.5223310000000  0.3870710000000  0.4775370000000 1.0
C      1  0.5245460000000  0.4286410000000  0.5622310000000 1.0
C      1  0.5132650000000  0.5491260000000  0.4110740000000 1.0
C      1  0.5767410000000  0.5558230000000  0.4478840000000 1.0
C      1  0.5801870000000  0.4484250000000  0.5679000000000 1.0
C      1  0.5360210000000  0.5742890000000  0.5088410000000 1.0
C      1  0.5514340000000  0.5680030000000  0.4406340000000 1.0
C      1  0.4111580000000  0.4822550000000  0.5330980000000 1.0
C      1  0.5172740000000  0.5175940000000  0.6038620000000 1.0
C      1  0.5661050000000  0.4853110000000  0.3959930000000 1.0
C      1  0.5178670000000  0.4579950000000  0.5079480000000 1.0
C      1  0.4001140000000  0.5092650000000  0.4927600000000 1.0
C      1  0.4819210000000  0.5647170000000  0.4194460000000 1.0
C      1  0.5894790000000  0.5206990000000  0.5126130000000 1.0
C      1  0.4651790000000  0.4268580000000  0.5583930000000 1.0
C      1  0.5821380000000  0.4961220000000  0.5640110000000 1.0
C      1  0.4438510000000  0.4687330000000  0.5717450000000 1.0
C      1  0.4723130000000  0.4049660000000  0.4627270000000 1.0
C      1  0.5446460000000  0.4300200000000  0.4653080000000 1.0
C      1  0.5269260000000  0.5930080000000  0.5585210000000 1.0
C      1  0.4645150000000  0.5493210000000  0.5632800000000 1.0
C      1  0.5286460000000  0.5080560000000  0.4603720000000 1.0
C      1  0.4857390000000  0.4834550000000  0.4495020000000 1.0
C      1  0.4627730000000  0.5499690000000  0.4049700000000 1.0
C      1  0.4258430000000  0.4874280000000  0.5590550000000 1.0
C      1  0.5044050000000  0.5487300000000  0.4657200000000 1.0
C      1  0.5043770000000  0.6089500000000  0.4916560000000 1.0
C      1  0.4832280000000  0.4724780000000  0.6110030000000 1.0
C      1  0.4155800000000  0.5304460000000  0.5368650000000 1.0
C      1  0.5319720000000  0.4131740000000  0.5406950000000 1.0
C      1  0.4049450000000  0.5077800000000  0.5203690000000 1.0
C      1  0.4922180000000  0.5550170000000  0.5626450000000 1.0
C      1  0.5090610000000  0.5444870000000  0.5423570000000 1.0
C      1  0.5893900000000  0.4481050000000  0.5204860000000 1.0
C      1  0.5480320000000  0.5196370000000  0.5373300000000 1.0
C      1  0.5531040000000  0.5486800000000  0.5515820000000 1.0
C      1  0.4607210000000  0.5238880000000  0.3971100000000 1.0
C      1  0.4651310000000  0.4927650000000  0.6124950000000 1.0
C      1  0.4311550000000  0.5539340000000  0.5255950000000 1.0
C      1  0.4743510000000  0.4998520000000  0.5333680000000 1.0
C      1  0.5182900000000  0.4520310000000  0.5784910000000 1.0
C      1  0.4738720000000  0.4989260000000  0.4040430000000 1.0
C      1  0.4790780000000  0.5810380000000  0.4507920000000 1.0
C      1  0.4567480000000  0.5474430000000  0.5363720000000 1.0
C      1  0.5181290000000  0.4405170000000  0.4630150000000 1.0
C      1  0.5049420000000  0.4552530000000  0.4828090000000 1.0
C      1  0.5432250000000  0.5055480000000  0.5086360000000 1.0
C      1  0.5663340000000  0.4727790000000  0.5719670000000 1.0
C      1  0.4773390000000  0.6014670000000  0.5005100000000 1.0
C      1  0.5064460000000  0.5373720000000  0.4932500000000 1.0
C      1  0.5366580000000  0.5474750000000  0.4272480000000 1.0
C      1  0.4195980000000  0.5062020000000  0.4527500000000 1.0
C      1  0.4192210000000  0.4573230000000  0.4662740000000 1.0
C      1  0.4195770000000  0.4590760000000  0.5175480000000 1.0
C      1  0.4628690000000  0.5272190000000  0.4517500000000 1.0
C      1  0.5060760000000  0.5762170000000  0.4593390000000 1.0
C      1  0.5847110000000  0.5015890000000  0.4898060000000 1.0
C      1  0.4624070000000  0.4780400000000  0.5194360000000 1.0
C      1  0.5202220000000  0.4769260000000  0.4097480000000 1.0
C      1  0.5011990000000  0.4955320000000  0.5414970000000 1.0
C      1  0.5116920000000  0.5260150000000  0.3942860000000 1.0
C      1  0.5106630000000  0.6029050000000  0.5374420000000 1.0
END
