TITL C-3866672-3872-486 0.00382253007663789 125000 -831.068419766243 0 0 135 (C1) n - 1
REM
REM in /home/nfs/bkarasulu/CARBON/AIRSS/Generating-Clusters/LCBOP/Only-C1/SD-CG/FIRE-CG
REM
REM
REM
REM
REM
REM ./C.cell (11c1c37f851c82e70ff6c80c92926a4b)
REM AIRSS Version 0.9.1 bugfix July 2018 build 013d7b7c2542+ Fri, 06 Jul 2018 19:26:36 +0100
REM compiler GCC version 9.2.1 20190827 (Red Hat 9.2.1-1)
REM options -cpp -mtune=generic -march=x86-64 -g -O0 -fpre-include=/usr/include/finclude/math-vector-fortran.h
REM seed 446659158 -831011252 1431439875 208985048 922475763 -828568722 -1564243579 1149740287 1825666052 -1810014463 1394200266 885656512 1530300309 -1826200775 896532831 -200621850 829684518 2035061991 329031543 506330943 -673545092 -1299065263 2048261315 2126859527 -913889494 1066096731 1438502291 1148113226 1433749942 -1041325945 -1787079788 934171264 -1772882793
REM
CELL 1.54180   50.00000   50.00000   50.00000   90.00000   90.00000   90.00000
LATT -1
SFAC C  
C      1  0.4559160000000  0.5158380000000  0.4735600000000 1.0
C      1  0.5481250000000  0.5505000000000  0.4363780000000 1.0
C      1  0.5210920000000  0.5343260000000  0.5954880000000 1.0
C      1  0.5111330000000  0.4777540000000  0.4260960000000 1.0
C      1  0.4685110000000  0.4136530000000  0.5223630000000 1.0
C      1  0.4155270000000  0.5565810000000  0.5186050000000 1.0
C      1  0.4641900000000  0.4929420000000  0.5370470000000 1.0
C      1  0.5879150000000  0.4692040000000  0.4778440000000 1.0
C      1  0.5550850000000  0.5169670000000  0.4958880000000 1.0
C      1  0.4912270000000  0.5704590000000  0.4545480000000 1.0
C      1  0.4397630000000  0.4519530000000  0.5323130000000 1.0
C      1  0.6092920000000  0.5365110000000  0.5050500000000 1.0
C      1  0.4610550000000  0.4716260000000  0.4626840000000 1.0
C      1  0.5580210000000  0.4185920000000  0.4900240000000 1.0
C      1  0.4430920000000  0.4909010000000  0.4737650000000 1.0
C      1  0.5412740000000  0.5207840000000  0.3442950000000 1.0
C      1  0.5700350000000  0.4571380000000  0.4574360000000 1.0
C      1  0.5168300000000  0.4621650000000  0.5373770000000 1.0
C      1  0.5433300000000  0.4443790000000  0.5705060000000 1.0
C      1  0.5871270000000  0.4678220000000  0.5571280000000 1.0
C      1  0.4376530000000  0.5702970000000  0.5329210000000 1.0
C      1  0.5380690000000  0.5497630000000  0.5266760000000 1.0
C      1  0.4168450000000  0.4244210000000  0.4724770000000 1.0
C      1  0.5354490000000  0.5950440000000  0.4606130000000 1.0
C      1  0.4652110000000  0.5216190000000  0.4023310000000 1.0
C      1  0.3972280000000  0.4707710000000  0.5228820000000 1.0
C      1  0.4413190000000  0.4257170000000  0.5200710000000 1.0
C      1  0.5501840000000  0.5184800000000  0.3199040000000 1.0
C      1  0.5998820000000  0.4964280000000  0.4696950000000 1.0
C      1  0.5526610000000  0.4190510000000  0.5591990000000 1.0
C      1  0.4304650000000  0.4327460000000  0.4476450000000 1.0
C      1  0.5099380000000  0.6237770000000  0.4976770000000 1.0
C      1  0.5238910000000  0.6135570000000  0.4767710000000 1.0
C      1  0.5406710000000  0.5017120000000  0.5476930000000 1.0
C      1  0.4992100000000  0.5258520000000  0.4316720000000 1.0
C      1  0.4443000000000  0.5579470000000  0.5591500000000 1.0
C      1  0.5157380000000  0.4484090000000  0.5617220000000 1.0
C      1  0.5197410000000  0.5699980000000  0.5204760000000 1.0
C      1  0.5576120000000  0.4739510000000  0.4361200000000 1.0
C      1  0.5607860000000  0.5462150000000  0.5073920000000 1.0
C      1  0.4905130000000  0.4366350000000  0.5676250000000 1.0
C      1  0.4652950000000  0.5349990000000  0.5162410000000 1.0
C      1  0.5472080000000  0.5254550000000  0.4208790000000 1.0
C      1  0.5322590000000  0.5230940000000  0.3691000000000 1.0
C      1  0.4721580000000  0.5826780000000  0.4960680000000 1.0
C      1  0.4834270000000  0.4109020000000  0.4967630000000 1.0
C      1  0.5613930000000  0.5622020000000  0.4822690000000 1.0
C      1  0.5474250000000  0.5255130000000  0.5855990000000 1.0
C      1  0.4234960000000  0.4201440000000  0.4984990000000 1.0
C      1  0.5522450000000  0.4677390000000  0.5098490000000 1.0
C      1  0.4573530000000  0.5885690000000  0.5209050000000 1.0
C      1  0.4645410000000  0.4767940000000  0.5940420000000 1.0
C      1  0.5900100000000  0.4518700000000  0.5317190000000 1.0
C      1  0.4801880000000  0.5265760000000  0.5671870000000 1.0
C      1  0.4272170000000  0.5636420000000  0.4455600000000 1.0
C      1  0.4813050000000  0.5021020000000  0.5568120000000 1.0
C      1  0.4719690000000  0.4536520000000  0.4802030000000 1.0
C      1  0.5280690000000  0.5238570000000  0.5349650000000 1.0
C      1  0.4389420000000  0.4849140000000  0.5835450000000 1.0
C      1  0.5638910000000  0.5023570000000  0.4315950000000 1.0
C      1  0.4569390000000  0.4195570000000  0.4504360000000 1.0
C      1  0.4055230000000  0.5580930000000  0.4907650000000 1.0
C      1  0.5409780000000  0.4100420000000  0.5343510000000 1.0
C      1  0.5166560000000  0.4035190000000  0.4606370000000 1.0
C      1  0.4634800000000  0.4723860000000  0.4345100000000 1.0
C      1  0.3951750000000  0.5150820000000  0.5052580000000 1.0
C      1  0.4401630000000  0.5132730000000  0.4188730000000 1.0
C      1  0.5367570000000  0.4202250000000  0.4482520000000 1.0
C      1  0.4704850000000  0.4261420000000  0.4753200000000 1.0
C      1  0.4031010000000  0.5247720000000  0.4549670000000 1.0
C      1  0.5233550000000  0.5248720000000  0.3951540000000 1.0
C      1  0.4029590000000  0.4713810000000  0.4551930000000 1.0
C      1  0.4250160000000  0.5394520000000  0.5695750000000 1.0
C      1  0.5344930000000  0.4626830000000  0.4240630000000 1.0
C      1  0.5113380000000  0.5165550000000  0.5129470000000 1.0
C      1  0.4873190000000  0.5964670000000  0.5608600000000 1.0
C      1  0.4967530000000  0.3927840000000  0.4432890000000 1.0
C      1  0.4949340000000  0.5260480000000  0.4038370000000 1.0
C      1  0.5618160000000  0.4689800000000  0.5735660000000 1.0
C      1  0.5486650000000  0.5697460000000  0.4581290000000 1.0
C      1  0.5325240000000  0.4345440000000  0.4244200000000 1.0
C      1  0.3962890000000  0.5316060000000  0.4820840000000 1.0
C      1  0.5072440000000  0.5045800000000  0.4690310000000 1.0
C      1  0.4991050000000  0.5759200000000  0.5045920000000 1.0
C      1  0.4694610000000  0.5832360000000  0.4675350000000 1.0
C      1  0.5578590000000  0.4310120000000  0.4645250000000 1.0
C      1  0.4624130000000  0.4678260000000  0.5259590000000 1.0
C      1  0.5884590000000  0.5074180000000  0.4454780000000 1.0
C      1  0.4054270000000  0.5291790000000  0.5283940000000 1.0
C      1  0.4175090000000  0.4676050000000  0.5422380000000 1.0
C      1  0.5654630000000  0.5439610000000  0.5719560000000 1.0
C      1  0.4243530000000  0.5344710000000  0.4366950000000 1.0
C      1  0.5100070000000  0.5011310000000  0.4414910000000 1.0
C      1  0.5500600000000  0.4980000000000  0.5751010000000 1.0
C      1  0.5907000000000  0.3904690000000  0.5845500000000 1.0
C      1  0.4766640000000  0.6060070000000  0.5360330000000 1.0
C      1  0.4833380000000  0.4953670000000  0.6058100000000 1.0
C      1  0.5289780000000  0.4727230000000  0.4935530000000 1.0
C      1  0.4382570000000  0.4812390000000  0.4236040000000 1.0
C      1  0.5074160000000  0.4621280000000  0.5104220000000 1.0
C      1  0.5971840000000  0.4963790000000  0.5228190000000 1.0
C      1  0.5029700000000  0.5143000000000  0.6060160000000 1.0
C      1  0.6038670000000  0.5182940000000  0.5623410000000 1.0
C      1  0.4155480000000  0.4827900000000  0.4779730000000 1.0
C      1  0.4485950000000  0.5818860000000  0.4484780000000 1.0
C      1  0.4862240000000  0.4670060000000  0.4198650000000 1.0
C      1  0.4137680000000  0.5181130000000  0.5541060000000 1.0
C      1  0.4890750000000  0.5305240000000  0.5028760000000 1.0
C      1  0.4933020000000  0.6226990000000  0.5191840000000 1.0
C      1  0.4000880000000  0.4879610000000  0.5010250000000 1.0
C      1  0.5359710000000  0.4097000000000  0.5062510000000 1.0
C      1  0.4907910000000  0.5719550000000  0.5748920000000 1.0
C      1  0.4211010000000  0.4899250000000  0.5612950000000 1.0
C      1  0.4710580000000  0.5528520000000  0.5681090000000 1.0
C      1  0.4908030000000  0.5431460000000  0.4518840000000 1.0
C      1  0.5416450000000  0.4769630000000  0.5348560000000 1.0
C      1  0.5794140000000  0.4597300000000  0.5053650000000 1.0
C      1  0.4743040000000  0.4511980000000  0.5858230000000 1.0
C      1  0.5876690000000  0.5451420000000  0.5231500000000 1.0
C      1  0.4806470000000  0.4178300000000  0.5481610000000 1.0
C      1  0.6132030000000  0.5168370000000  0.4859520000000 1.0
C      1  0.5718640000000  0.4037620000000  0.5724010000000 1.0
C      1  0.4845420000000  0.5248510000000  0.4744090000000 1.0
C      1  0.5768090000000  0.5029160000000  0.5067420000000 1.0
C      1  0.4719230000000  0.4007920000000  0.4357390000000 1.0
C      1  0.5870370000000  0.5399960000000  0.5530490000000 1.0
C      1  0.4804340000000  0.4615620000000  0.5053790000000 1.0
C      1  0.4092870000000  0.5725030000000  0.4669250000000 1.0
C      1  0.6004960000000  0.4929540000000  0.5507080000000 1.0
C      1  0.4509820000000  0.5139750000000  0.5243800000000 1.0
C      1  0.5258820000000  0.5814170000000  0.6070300000000 1.0
C      1  0.4204170000000  0.4595070000000  0.4355890000000 1.0
C      1  0.5125000000000  0.5624460000000  0.5920440000000 1.0
C      1  0.5272540000000  0.5029300000000  0.4906000000000 1.0
C      1  0.5116150000000  0.4051330000000  0.4902250000000 1.0
END
