TITL C-3866671-3735-520 1455.71475638445 125000 -1010.46607788638 0 0 164 (C1) n - 1
REM
REM in /home/nfs/bkarasulu/CARBON/AIRSS/Generating-Clusters/LCBOP/Only-C1/SD-CG/FIRE-CG
REM
REM
REM
REM
REM
REM ./C.cell (11c1c37f851c82e70ff6c80c92926a4b)
REM AIRSS Version 0.9.1 bugfix July 2018 build 013d7b7c2542+ Fri, 06 Jul 2018 19:26:36 +0100
REM compiler GCC version 9.2.1 20190827 (Red Hat 9.2.1-1)
REM options -cpp -mtune=generic -march=x86-64 -g -O0 -fpre-include=/usr/include/finclude/math-vector-fortran.h
REM seed 1674109236 -14270537 1943534494 -1658528690 -339830950 -1455641201 -429935735 2062165014 -43258301 732155354 -1504838592 -508669443 920560684 1873781388 905191205 -75298370 525303422 -134173957 474840472 -1450725594 -308148644 -1499551598 -81878809 -1030185298 -950597583 -339585644 -1304394348 1050089381 -164000903 -1500732150 -615403851 1398276890 -1025845464
REM
CELL 1.54180   50.00000   50.00000   50.00000   90.00000   90.00000   90.00000
LATT -1
SFAC C  
C      1  0.5010120000000  0.4220350000000  0.3543030000000 1.0
C      1  0.5169500000000  0.5682770000000  0.4495630000000 1.0
C      1  0.5543440000000  0.4586320000000  0.4118600000000 1.0
C      1  0.5606520000000  0.4967840000000  0.5343020000000 1.0
C      1  0.4416040000000  0.5811150000000  0.4359870000000 1.0
C      1  0.4648030000000  0.4031380000000  0.5056370000000 1.0
C      1  0.6132170000000  0.5398540000000  0.5794070000000 1.0
C      1  0.4081200000000  0.4549670000000  0.5435460000000 1.0
C      1  0.5249670000000  0.4269120000000  0.4752230000000 1.0
C      1  0.4782290000000  0.4203810000000  0.4600300000000 1.0
C      1  0.6256410000000  0.5287760000000  0.5994600000000 1.0
C      1  0.4958400000000  0.5073580000000  0.3835990000000 1.0
C      1  0.4039740000000  0.5516700000000  0.4189720000000 1.0
C      1  0.4512510000000  0.4583380000000  0.4612170000000 1.0
C      1  0.5371830000000  0.5257300000000  0.5943770000000 1.0
C      1  0.4923430000000  0.5611120000000  0.4349160000000 1.0
C      1  0.5888240000000  0.4396670000000  0.5895610000000 1.0
C      1  0.5045200000000  0.5381660000000  0.5308600000000 1.0
C      1  0.5646390000000  0.5632820000000  0.4636100000000 1.0
C      1  0.6251900000000  0.5012280000000  0.5059190000000 1.0
C      1  0.5343900000000  0.5939420000000  0.5013130000000 1.0
C      1  0.3791220000000  0.5165970000000  0.4763510000000 1.0
C      1  0.3980330000000  0.5777220000000  0.4887930000000 1.0
C      1  0.3830370000000  0.5400610000000  0.4598820000000 1.0
C      1  0.5550550000000  0.5115170000000  0.4206240000000 1.0
C      1  0.4704960000000  0.4541780000000  0.5134400000000 1.0
C      1  0.4777330000000  0.4853140000000  0.3881040000000 1.0
C      1  0.4626440000000  0.5675710000000  0.4797360000000 1.0
C      1  0.5072390000000  0.4033780000000  0.3365350000000 1.0
C      1  0.6253840000000  0.5269090000000  0.4946790000000 1.0
C      1  0.4043170000000  0.4863340000000  0.4129900000000 1.0
C      1  0.5004540000000  0.5938140000000  0.5442100000000 1.0
C      1  0.5263230000000  0.5573140000000  0.5338830000000 1.0
C      1  0.3914560000000  0.5013320000000  0.4329940000000 1.0
C      1  0.5406830000000  0.4675000000000  0.4346180000000 1.0
C      1  0.4106160000000  0.5800600000000  0.5125790000000 1.0
C      1  0.4266640000000  0.5530470000000  0.6010400000000 1.0
C      1  0.4310530000000  0.5760590000000  0.5881780000000 1.0
C      1  0.5042780000000  0.4249330000000  0.5316480000000 1.0
C      1  0.5886100000000  0.4149150000000  0.5258420000000 1.0
C      1  0.5462910000000  0.5041580000000  0.5111370000000 1.0
C      1  0.4967070000000  0.4234410000000  0.5589470000000 1.0
C      1  0.5919770000000  0.4828410000000  0.4726720000000 1.0
C      1  0.4963530000000  0.4717310000000  0.5703320000000 1.0
C      1  0.5089220000000  0.3843710000000  0.5859020000000 1.0
C      1  0.5359900000000  0.3851940000000  0.4902160000000 1.0
C      1  0.5063910000000  0.4454010000000  0.5749040000000 1.0
C      1  0.4835440000000  0.3807140000000  0.5021680000000 1.0
C      1  0.5125580000000  0.5571420000000  0.4755630000000 1.0
C      1  0.5978250000000  0.4728350000000  0.5570970000000 1.0
C      1  0.4813420000000  0.6055930000000  0.4544030000000 1.0
C      1  0.3865340000000  0.4918560000000  0.4603940000000 1.0
C      1  0.4762660000000  0.4973640000000  0.4847050000000 1.0
C      1  0.4011820000000  0.4423820000000  0.5179770000000 1.0
C      1  0.4538710000000  0.4810060000000  0.5948520000000 1.0
C      1  0.5400390000000  0.4531690000000  0.5088310000000 1.0
C      1  0.4996900000000  0.4850850000000  0.5448620000000 1.0
C      1  0.4241380000000  0.5010910000000  0.5463480000000 1.0
C      1  0.4703610000000  0.5436910000000  0.5697050000000 1.0
C      1  0.5337670000000  0.3925940000000  0.5924700000000 1.0
C      1  0.6319540000000  0.4973870000000  0.5333740000000 1.0
C      1  0.5636750000000  0.4814070000000  0.5923370000000 1.0
C      1  0.4358300000000  0.5340510000000  0.4996850000000 1.0
C      1  0.4410340000000  0.4585900000000  0.5834270000000 1.0
C      1  0.4937800000000  0.4723570000000  0.5198300000000 1.0
C      1  0.4536610000000  0.5897250000000  0.4957340000000 1.0
C      1  0.3896390000000  0.5121980000000  0.5028600000000 1.0
C      1  0.3968980000000  0.5656690000000  0.4634110000000 1.0
C      1  0.5347390000000  0.4526090000000  0.4809460000000 1.0
C      1  0.4215120000000  0.5460610000000  0.3976680000000 1.0
C      1  0.5413500000000  0.5301670000000  0.4042310000000 1.0
C      1  0.4913180000000  0.3987050000000  0.5712580000000 1.0
C      1  0.4292190000000  0.5271290000000  0.6069840000000 1.0
C      1  0.5188070000000  0.5212250000000  0.3887400000000 1.0
C      1  0.5851200000000  0.5398360000000  0.4681980000000 1.0
C      1  0.5776120000000  0.4748730000000  0.5370210000000 1.0
C      1  0.4189600000000  0.5114390000000  0.4982300000000 1.0
C      1  0.4442290000000  0.5465580000000  0.4754660000000 1.0
C      1  0.4712110000000  0.5827610000000  0.4383050000000 1.0
C      1  0.4695800000000  0.5206850000000  0.5533720000000 1.0
C      1  0.4844590000000  0.4268410000000  0.5088510000000 1.0
C      1  0.5431210000000  0.4640970000000  0.6012220000000 1.0
C      1  0.5774790000000  0.4575950000000  0.4666750000000 1.0
C      1  0.5478120000000  0.5317740000000  0.5031430000000 1.0
C      1  0.5304560000000  0.5117000000000  0.4651470000000 1.0
C      1  0.4512650000000  0.5496010000000  0.5198050000000 1.0
C      1  0.5313260000000  0.5375320000000  0.4806300000000 1.0
C      1  0.4506990000000  0.5229440000000  0.4288430000000 1.0
C      1  0.4818350000000  0.4860270000000  0.5907790000000 1.0
C      1  0.6242350000000  0.4733320000000  0.5465210000000 1.0
C      1  0.5094210000000  0.5064640000000  0.4429890000000 1.0
C      1  0.4951680000000  0.4406330000000  0.3722330000000 1.0
C      1  0.4914710000000  0.6138010000000  0.4805410000000 1.0
C      1  0.4979350000000  0.4242460000000  0.4799290000000 1.0
C      1  0.5661310000000  0.4497590000000  0.3903790000000 1.0
C      1  0.4952200000000  0.5309880000000  0.4338410000000 1.0
C      1  0.4908980000000  0.4600280000000  0.3913230000000 1.0
C      1  0.5511670000000  0.5564220000000  0.5462200000000 1.0
C      1  0.5467090000000  0.5565960000000  0.4137700000000 1.0
C      1  0.5503900000000  0.4622380000000  0.4600910000000 1.0
C      1  0.4967650000000  0.5137450000000  0.5446080000000 1.0
C      1  0.5105210000000  0.3768540000000  0.4972080000000 1.0
C      1  0.5951130000000  0.4297700000000  0.5025470000000 1.0
C      1  0.5774590000000  0.4303280000000  0.4801140000000 1.0
C      1  0.5479930000000  0.4095880000000  0.4797510000000 1.0
C      1  0.4949800000000  0.5545330000000  0.5802190000000 1.0
C      1  0.4741400000000  0.6088540000000  0.5030030000000 1.0
C      1  0.4391560000000  0.5784540000000  0.5206820000000 1.0
C      1  0.4180340000000  0.4235890000000  0.5046640000000 1.0
C      1  0.4420950000000  0.4161760000000  0.4911700000000 1.0
C      1  0.5986780000000  0.5498590000000  0.5576980000000 1.0
C      1  0.6124650000000  0.4785570000000  0.4925850000000 1.0
C      1  0.5874940000000  0.4672990000000  0.5829570000000 1.0
C      1  0.5463430000000  0.4172460000000  0.5873250000000 1.0
C      1  0.5098880000000  0.5994010000000  0.5919390000000 1.0
C      1  0.6098050000000  0.5443390000000  0.4814480000000 1.0
C      1  0.4410850000000  0.5345320000000  0.4515060000000 1.0
C      1  0.4547910000000  0.4849060000000  0.4057370000000 1.0
C      1  0.5208120000000  0.5841940000000  0.5255510000000 1.0
C      1  0.5142740000000  0.4788590000000  0.4323110000000 1.0
C      1  0.4383220000000  0.5020590000000  0.6055270000000 1.0
C      1  0.5639850000000  0.5141130000000  0.5567410000000 1.0
C      1  0.5804510000000  0.4112050000000  0.5511570000000 1.0
C      1  0.5277010000000  0.4938450000000  0.4901480000000 1.0
C      1  0.4593400000000  0.4962820000000  0.4321350000000 1.0
C      1  0.5306770000000  0.4415380000000  0.5897420000000 1.0
C      1  0.4881330000000  0.5580310000000  0.4889020000000 1.0
C      1  0.5557840000000  0.5073110000000  0.5830440000000 1.0
C      1  0.4138580000000  0.5715420000000  0.4391300000000 1.0
C      1  0.5190950000000  0.6130110000000  0.4865500000000 1.0
C      1  0.5016280000000  0.5821660000000  0.5718820000000 1.0
C      1  0.5805920000000  0.5101950000000  0.4636660000000 1.0
C      1  0.3838170000000  0.4885170000000  0.5190420000000 1.0
C      1  0.4933510000000  0.5099030000000  0.6011300000000 1.0
C      1  0.5724780000000  0.5405050000000  0.5531190000000 1.0
C      1  0.4450890000000  0.5341600000000  0.4034730000000 1.0
C      1  0.3856360000000  0.4625550000000  0.5025360000000 1.0
C      1  0.5298600000000  0.4361200000000  0.5269370000000 1.0
C      1  0.3890080000000  0.5305720000000  0.4321600000000 1.0
C      1  0.5564220000000  0.5807420000000  0.4867320000000 1.0
C      1  0.4247330000000  0.4478010000000  0.5650000000000 1.0
C      1  0.4594150000000  0.4977560000000  0.5105630000000 1.0
C      1  0.5096630000000  0.5327360000000  0.5943740000000 1.0
C      1  0.4766260000000  0.6050650000000  0.5326040000000 1.0
C      1  0.5012710000000  0.4867490000000  0.4958310000000 1.0
C      1  0.4274740000000  0.4795230000000  0.4009370000000 1.0
C      1  0.5729140000000  0.4196630000000  0.5770930000000 1.0
C      1  0.4408020000000  0.5916620000000  0.5687740000000 1.0
C      1  0.4633470000000  0.4848740000000  0.4588990000000 1.0
C      1  0.6296640000000  0.4511520000000  0.5293350000000 1.0
C      1  0.3991680000000  0.4722100000000  0.4780600000000 1.0
C      1  0.4503840000000  0.5075880000000  0.5372520000000 1.0
C      1  0.6147390000000  0.4512570000000  0.5047960000000 1.0
C      1  0.5133800000000  0.3849960000000  0.3190970000000 1.0
C      1  0.4523860000000  0.4304980000000  0.4671390000000 1.0
C      1  0.4021950000000  0.4836140000000  0.5415840000000 1.0
C      1  0.5561090000000  0.5087630000000  0.4488590000000 1.0
C      1  0.4466020000000  0.4714750000000  0.5062610000000 1.0
C      1  0.5446850000000  0.5658040000000  0.4407550000000 1.0
C      1  0.4817680000000  0.5482340000000  0.5154340000000 1.0
C      1  0.4241180000000  0.4819640000000  0.4903840000000 1.0
C      1  0.4512910000000  0.5946230000000  0.5430220000000 1.0
C      1  0.6096750000000  0.5689100000000  0.5414260000000 1.0
C      1  0.4985070000000  0.4599920000000  0.4184600000000 1.0
END
