TITL C-3866673-4222-12 -1.17268986041619e-06 125000 -995.395599157368 0 0 161 (C1) n - 1
REM
REM in /home/nfs/bkarasulu/CARBON/AIRSS/Generating-Clusters/LCBOP/Only-C1/SD-CG/HFTN-CG/FIRE-CG
REM
REM
REM
REM
REM
REM ./C.cell (11c1c37f851c82e70ff6c80c92926a4b)
REM AIRSS Version 0.9.1 bugfix July 2018 build 013d7b7c2542+ Fri, 06 Jul 2018 19:26:36 +0100
REM compiler GCC version 9.2.1 20190827 (Red Hat 9.2.1-1)
REM options -cpp -mtune=generic -march=x86-64 -g -O0 -fpre-include=/usr/include/finclude/math-vector-fortran.h
REM seed 1251330687 -1564091071 1195254412 -1291722646 -1079307486 -56764455 1193457120 2064056420 456553970 1116520892 -1512981560 808914122 2147324770 1569339283 -568126522 -536844513 -1458034298 -714164840 653861800 -1500400202 1524204331 170610433 780998674 955296614 -1108779035 -234284643 -829096499 1696223680 -1939864975 2107826982 -1101753296 -1502817510 1313260879
REM
CELL 1.54180   50.00000   50.00000   50.00000   90.00000   90.00000   90.00000
LATT -1
SFAC C  
C      1  0.4184400000000  0.4531780000000  0.5668890000000 1.0
C      1  0.5329550000000  0.4279470000000  0.6270580000000 1.0
C      1  0.5286160000000  0.4529120000000  0.6356750000000 1.0
C      1  0.3850620000000  0.4972790000000  0.5566010000000 1.0
C      1  0.4875010000000  0.5283840000000  0.4714050000000 1.0
C      1  0.5427540000000  0.4446170000000  0.5225800000000 1.0
C      1  0.5381490000000  0.5232760000000  0.5257220000000 1.0
C      1  0.5036180000000  0.5308160000000  0.4425440000000 1.0
C      1  0.4005510000000  0.5066040000000  0.5785360000000 1.0
C      1  0.5119140000000  0.5260270000000  0.3645580000000 1.0
C      1  0.3991100000000  0.5652020000000  0.4841750000000 1.0
C      1  0.4848670000000  0.5676680000000  0.4170430000000 1.0
C      1  0.5219390000000  0.6078150000000  0.5010430000000 1.0
C      1  0.4564810000000  0.5453520000000  0.3849570000000 1.0
C      1  0.4052950000000  0.5162860000000  0.4346300000000 1.0
C      1  0.3789440000000  0.4922880000000  0.5307110000000 1.0
C      1  0.4813540000000  0.5579990000000  0.3904390000000 1.0
C      1  0.3911410000000  0.5223690000000  0.4596220000000 1.0
C      1  0.4285270000000  0.5301900000000  0.4213260000000 1.0
C      1  0.5422470000000  0.5475680000000  0.5378960000000 1.0
C      1  0.5361280000000  0.4078710000000  0.6097580000000 1.0
C      1  0.5046400000000  0.4316180000000  0.5518650000000 1.0
C      1  0.4971590000000  0.4339360000000  0.4472450000000 1.0
C      1  0.4428150000000  0.5511080000000  0.4354820000000 1.0
C      1  0.5370510000000  0.3924310000000  0.5880180000000 1.0
C      1  0.5246560000000  0.6036130000000  0.4500800000000 1.0
C      1  0.6122910000000  0.5445720000000  0.4114890000000 1.0
C      1  0.5218370000000  0.4926750000000  0.5642030000000 1.0
C      1  0.4611980000000  0.5742740000000  0.4318480000000 1.0
C      1  0.5201880000000  0.4485310000000  0.4562050000000 1.0
C      1  0.5682540000000  0.5250620000000  0.4700160000000 1.0
C      1  0.4370140000000  0.4300370000000  0.5190390000000 1.0
C      1  0.4735140000000  0.4425920000000  0.6173650000000 1.0
C      1  0.5190190000000  0.5829010000000  0.5768940000000 1.0
C      1  0.4619320000000  0.5948280000000  0.4535270000000 1.0
C      1  0.5962580000000  0.4549890000000  0.5063220000000 1.0
C      1  0.5545760000000  0.4871960000000  0.5035710000000 1.0
C      1  0.5031710000000  0.5510140000000  0.3740430000000 1.0
C      1  0.5673830000000  0.5816010000000  0.5018880000000 1.0
C      1  0.5046140000000  0.4825710000000  0.4848660000000 1.0
C      1  0.4722820000000  0.3988590000000  0.5298950000000 1.0
C      1  0.5207790000000  0.5650240000000  0.5334960000000 1.0
C      1  0.5101150000000  0.6133370000000  0.4734990000000 1.0
C      1  0.5999180000000  0.5473490000000  0.4348200000000 1.0
C      1  0.4488500000000  0.4752960000000  0.5038400000000 1.0
C      1  0.6175770000000  0.4872390000000  0.5387830000000 1.0
C      1  0.6047680000000  0.5188190000000  0.3677240000000 1.0
C      1  0.5212760000000  0.5111450000000  0.4316900000000 1.0
C      1  0.4567420000000  0.4051430000000  0.5846870000000 1.0
C      1  0.4961330000000  0.5620460000000  0.5115090000000 1.0
C      1  0.5545420000000  0.3894780000000  0.5189420000000 1.0
C      1  0.5237420000000  0.5747150000000  0.4486290000000 1.0
C      1  0.4523050000000  0.5436830000000  0.5087920000000 1.0
C      1  0.4391670000000  0.5502570000000  0.4632910000000 1.0
C      1  0.5206590000000  0.5887550000000  0.5490620000000 1.0
C      1  0.5268420000000  0.4802700000000  0.6279980000000 1.0
C      1  0.4146750000000  0.4460400000000  0.4194620000000 1.0
C      1  0.4852650000000  0.5993750000000  0.4712840000000 1.0
C      1  0.6147340000000  0.5337000000000  0.3873650000000 1.0
C      1  0.5503730000000  0.5071940000000  0.4342570000000 1.0
C      1  0.5796230000000  0.4716000000000  0.4594870000000 1.0
C      1  0.3871850000000  0.5023800000000  0.4800290000000 1.0
C      1  0.4461170000000  0.4084520000000  0.5362650000000 1.0
C      1  0.5326550000000  0.4649230000000  0.4367380000000 1.0
C      1  0.6183250000000  0.5103380000000  0.5521770000000 1.0
C      1  0.5843210000000  0.5055910000000  0.3570870000000 1.0
C      1  0.4430730000000  0.5295100000000  0.5934340000000 1.0
C      1  0.4354100000000  0.4690660000000  0.5507880000000 1.0
C      1  0.5083240000000  0.6076200000000  0.5297760000000 1.0
C      1  0.4933820000000  0.5051430000000  0.3671720000000 1.0
C      1  0.5831110000000  0.5404510000000  0.4541670000000 1.0
C      1  0.4593480000000  0.4798920000000  0.4777860000000 1.0
C      1  0.4457940000000  0.4938320000000  0.5604020000000 1.0
C      1  0.4504470000000  0.5749470000000  0.5681780000000 1.0
C      1  0.4782310000000  0.5286190000000  0.5462210000000 1.0
C      1  0.5506700000000  0.4899630000000  0.6163890000000 1.0
C      1  0.4167600000000  0.4265050000000  0.5701800000000 1.0
C      1  0.5736920000000  0.4056940000000  0.5092150000000 1.0
C      1  0.5298760000000  0.4556460000000  0.3705730000000 1.0
C      1  0.4824230000000  0.4971310000000  0.4767760000000 1.0
C      1  0.4906250000000  0.4386970000000  0.5749050000000 1.0
C      1  0.4795460000000  0.5863560000000  0.4966420000000 1.0
C      1  0.4316280000000  0.4753640000000  0.3869670000000 1.0
C      1  0.5824290000000  0.5630320000000  0.5168790000000 1.0
C      1  0.4291370000000  0.5099020000000  0.5775380000000 1.0
C      1  0.5428540000000  0.4614000000000  0.5003760000000 1.0
C      1  0.4227610000000  0.5725640000000  0.4712620000000 1.0
C      1  0.3963880000000  0.4913460000000  0.4244420000000 1.0
C      1  0.6026660000000  0.5465250000000  0.5061310000000 1.0
C      1  0.5857520000000  0.4570110000000  0.5567870000000 1.0
C      1  0.5083730000000  0.5396570000000  0.6072690000000 1.0
C      1  0.4417010000000  0.5565050000000  0.5854580000000 1.0
C      1  0.4520040000000  0.5952920000000  0.4997540000000 1.0
C      1  0.5502300000000  0.5099600000000  0.4850430000000 1.0
C      1  0.3832600000000  0.5483220000000  0.4679600000000 1.0
C      1  0.5883330000000  0.4277060000000  0.5040250000000 1.0
C      1  0.5148110000000  0.5629110000000  0.5948800000000 1.0
C      1  0.5803790000000  0.5636530000000  0.5878910000000 1.0
C      1  0.3961050000000  0.4645520000000  0.4259950000000 1.0
C      1  0.5362130000000  0.3821650000000  0.5634130000000 1.0
C      1  0.4484350000000  0.4978190000000  0.3863630000000 1.0
C      1  0.4558240000000  0.4570820000000  0.4600920000000 1.0
C      1  0.5484010000000  0.4725070000000  0.3614030000000 1.0
C      1  0.6102900000000  0.4980890000000  0.4871910000000 1.0
C      1  0.4415180000000  0.5237250000000  0.3960640000000 1.0
C      1  0.4919290000000  0.5175370000000  0.6152780000000 1.0
C      1  0.4652340000000  0.4520850000000  0.4118850000000 1.0
C      1  0.4373040000000  0.4535450000000  0.4046240000000 1.0
C      1  0.3933430000000  0.4996610000000  0.5075910000000 1.0
C      1  0.5965990000000  0.4733100000000  0.4831490000000 1.0
C      1  0.5091510000000  0.5443290000000  0.4892060000000 1.0
C      1  0.5520070000000  0.4989570000000  0.5299080000000 1.0
C      1  0.5477840000000  0.4880090000000  0.5548640000000 1.0
C      1  0.5851220000000  0.5502620000000  0.5645700000000 1.0
C      1  0.4755670000000  0.4897000000000  0.3818360000000 1.0
C      1  0.4905890000000  0.4199320000000  0.5309980000000 1.0
C      1  0.5572600000000  0.4988270000000  0.3571950000000 1.0
C      1  0.4391250000000  0.5951170000000  0.4736730000000 1.0
C      1  0.5137550000000  0.4842180000000  0.4255580000000 1.0
C      1  0.5116630000000  0.3638040000000  0.5250000000000 1.0
C      1  0.4828280000000  0.4635790000000  0.3920770000000 1.0
C      1  0.4851700000000  0.3740850000000  0.5269590000000 1.0
C      1  0.5279410000000  0.5656610000000  0.4759480000000 1.0
C      1  0.5003860000000  0.4901450000000  0.6215210000000 1.0
C      1  0.5060700000000  0.4516130000000  0.3819660000000 1.0
C      1  0.4729480000000  0.5028980000000  0.5559580000000 1.0
C      1  0.4376370000000  0.4084630000000  0.5638820000000 1.0
C      1  0.4411860000000  0.4582680000000  0.5250680000000 1.0
C      1  0.5898560000000  0.4320830000000  0.5674140000000 1.0
C      1  0.5064320000000  0.5581730000000  0.4331810000000 1.0
C      1  0.4885640000000  0.4660300000000  0.5821490000000 1.0
C      1  0.5406130000000  0.5852910000000  0.4941420000000 1.0
C      1  0.4304850000000  0.4250560000000  0.4920510000000 1.0
C      1  0.4839080000000  0.4691130000000  0.6105720000000 1.0
C      1  0.4592560000000  0.5402450000000  0.4807250000000 1.0
C      1  0.5158070000000  0.3394800000000  0.5130320000000 1.0
C      1  0.4752010000000  0.4237290000000  0.5947770000000 1.0
C      1  0.5378860000000  0.5192220000000  0.3570350000000 1.0
C      1  0.5682190000000  0.4756450000000  0.5698840000000 1.0
C      1  0.4253080000000  0.5392280000000  0.5162550000000 1.0
C      1  0.5309440000000  0.4377940000000  0.5454440000000 1.0
C      1  0.4639610000000  0.5216620000000  0.6109060000000 1.0
C      1  0.6005120000000  0.4654590000000  0.5333820000000 1.0
C      1  0.4170620000000  0.5127690000000  0.5149620000000 1.0
C      1  0.6059060000000  0.5314290000000  0.5626680000000 1.0
C      1  0.4975510000000  0.4065600000000  0.4465160000000 1.0
C      1  0.3875220000000  0.5123610000000  0.6020340000000 1.0
C      1  0.5342590000000  0.3783700000000  0.5354890000000 1.0
C      1  0.4375120000000  0.4374240000000  0.4693110000000 1.0
C      1  0.4734250000000  0.4484030000000  0.4391780000000 1.0
C      1  0.4727010000000  0.5520920000000  0.5293120000000 1.0
C      1  0.4797950000000  0.6036690000000  0.5372690000000 1.0
C      1  0.5696050000000  0.5550850000000  0.5413490000000 1.0
C      1  0.5582000000000  0.4792970000000  0.4419460000000 1.0
C      1  0.4046360000000  0.5582450000000  0.5112080000000 1.0
C      1  0.5215330000000  0.4605170000000  0.4819860000000 1.0
C      1  0.6120850000000  0.5233020000000  0.4963950000000 1.0
C      1  0.4945800000000  0.4876100000000  0.5659300000000 1.0
C      1  0.5680790000000  0.4828210000000  0.5971410000000 1.0
C      1  0.4661690000000  0.5785950000000  0.5451590000000 1.0
C      1  0.5294960000000  0.5248760000000  0.4987540000000 1.0
END
