TITL C-3866674-3872-325 3215.84144282381 125000 -1036.93505532816 0 0 169 (C1) n - 1
REM
REM in /home/nfs/bkarasulu/CARBON/AIRSS/Generating-Clusters/LCBOP/Only-C1/SD-CG/FIRE-CG
REM
REM
REM
REM
REM
REM ./C.cell (11c1c37f851c82e70ff6c80c92926a4b)
REM AIRSS Version 0.9.1 bugfix July 2018 build 013d7b7c2542+ Fri, 06 Jul 2018 19:26:36 +0100
REM compiler GCC version 9.2.1 20190827 (Red Hat 9.2.1-1)
REM options -cpp -mtune=generic -march=x86-64 -g -O0 -fpre-include=/usr/include/finclude/math-vector-fortran.h
REM seed -366643530 -1237080182 129131136 -1647512877 -1170156628 -1723608664 2014538071 149488368 -1517272051 1855321849 -935299288 -479827079 1997029079 -1426765801 1453800335 1519596855 2035493534 943482407 -1471889533 -311197733 -1564917741 -1652885995 1589207305 -299215736 91527769 -1543945325 466116375 -1586999465 1640853144 -1836850830 212153355 -1382509500 1744055249
REM
CELL 1.54180   50.00000   50.00000   50.00000   90.00000   90.00000   90.00000
LATT -1
SFAC C  
C      1  0.5302890000000  0.5675680000000  0.4797090000000 1.0
C      1  0.4986270000000  0.4660060000000  0.5517340000000 1.0
C      1  0.5019200000000  0.5240710000000  0.6200570000000 1.0
C      1  0.6365860000000  0.5174640000000  0.5028550000000 1.0
C      1  0.5235000000000  0.5849030000000  0.5363590000000 1.0
C      1  0.3942800000000  0.5560940000000  0.3861350000000 1.0
C      1  0.4734190000000  0.4166620000000  0.3901040000000 1.0
C      1  0.5046540000000  0.5913560000000  0.5898060000000 1.0
C      1  0.4618570000000  0.4632530000000  0.6241930000000 1.0
C      1  0.5869960000000  0.4937180000000  0.4875020000000 1.0
C      1  0.5528130000000  0.5253570000000  0.6045430000000 1.0
C      1  0.4491700000000  0.6021120000000  0.4286050000000 1.0
C      1  0.4205700000000  0.4339350000000  0.5481300000000 1.0
C      1  0.5353470000000  0.4969870000000  0.5052290000000 1.0
C      1  0.4366340000000  0.4175350000000  0.5023010000000 1.0
C      1  0.4454390000000  0.5634420000000  0.5535260000000 1.0
C      1  0.5013510000000  0.4026880000000  0.5231570000000 1.0
C      1  0.5289340000000  0.4350720000000  0.5021680000000 1.0
C      1  0.4326430000000  0.5768600000000  0.5079480000000 1.0
C      1  0.6239910000000  0.5408680000000  0.5075180000000 1.0
C      1  0.4524580000000  0.4923520000000  0.5428980000000 1.0
C      1  0.4358720000000  0.4635000000000  0.4269230000000 1.0
C      1  0.5387820000000  0.3832870000000  0.4975210000000 1.0
C      1  0.5356490000000  0.5073340000000  0.3911080000000 1.0
C      1  0.4494760000000  0.5043540000000  0.5701950000000 1.0
C      1  0.5174760000000  0.5454000000000  0.4214300000000 1.0
C      1  0.4890700000000  0.5196590000000  0.5321250000000 1.0
C      1  0.5214090000000  0.5562560000000  0.3585640000000 1.0
C      1  0.5289860000000  0.4261750000000  0.4757870000000 1.0
C      1  0.4707590000000  0.5545200000000  0.5622020000000 1.0
C      1  0.5163380000000  0.5386130000000  0.5791240000000 1.0
C      1  0.5553880000000  0.4772530000000  0.5472080000000 1.0
C      1  0.4824730000000  0.5619050000000  0.5156710000000 1.0
C      1  0.6018560000000  0.5373100000000  0.5730140000000 1.0
C      1  0.5058420000000  0.6041420000000  0.6139460000000 1.0
C      1  0.4874660000000  0.4005680000000  0.4515230000000 1.0
C      1  0.5730600000000  0.5046180000000  0.5997370000000 1.0
C      1  0.4722420000000  0.4404470000000  0.6149490000000 1.0
C      1  0.4380170000000  0.5430330000000  0.4130520000000 1.0
C      1  0.4326470000000  0.4650880000000  0.4800050000000 1.0
C      1  0.5205920000000  0.5564070000000  0.5395000000000 1.0
C      1  0.5699950000000  0.4672980000000  0.5689540000000 1.0
C      1  0.5737560000000  0.5565260000000  0.4136930000000 1.0
C      1  0.5763570000000  0.4455760000000  0.4984480000000 1.0
C      1  0.4490360000000  0.4072850000000  0.4784440000000 1.0
C      1  0.4743320000000  0.4973960000000  0.5248060000000 1.0
C      1  0.5636220000000  0.4779500000000  0.5943190000000 1.0
C      1  0.5076070000000  0.4871940000000  0.5657420000000 1.0
C      1  0.4568720000000  0.4040720000000  0.5492010000000 1.0
C      1  0.4810220000000  0.4727890000000  0.4125860000000 1.0
C      1  0.5343610000000  0.4641820000000  0.4131970000000 1.0
C      1  0.5745290000000  0.5561390000000  0.4635620000000 1.0
C      1  0.5109060000000  0.3833360000000  0.5041710000000 1.0
C      1  0.4161610000000  0.5494220000000  0.3995030000000 1.0
C      1  0.4772450000000  0.4283910000000  0.4441150000000 1.0
C      1  0.4723900000000  0.5480890000000  0.5895810000000 1.0
C      1  0.5396070000000  0.5378720000000  0.5301360000000 1.0
C      1  0.3503750000000  0.5694420000000  0.3596050000000 1.0
C      1  0.4482490000000  0.4868730000000  0.3816470000000 1.0
C      1  0.6219970000000  0.5444960000000  0.5546730000000 1.0
C      1  0.4119200000000  0.5132150000000  0.5434840000000 1.0
C      1  0.5492450000000  0.4872830000000  0.4054330000000 1.0
C      1  0.5167930000000  0.5222110000000  0.4664400000000 1.0
C      1  0.4809900000000  0.5188800000000  0.4344160000000 1.0
C      1  0.4482370000000  0.4857720000000  0.6146200000000 1.0
C      1  0.5975500000000  0.3972090000000  0.4495660000000 1.0
C      1  0.4600690000000  0.4486460000000  0.5237400000000 1.0
C      1  0.5775500000000  0.5139230000000  0.5050910000000 1.0
C      1  0.4979640000000  0.5990210000000  0.5395340000000 1.0
C      1  0.5621760000000  0.3984570000000  0.5054220000000 1.0
C      1  0.5292910000000  0.5155490000000  0.6202460000000 1.0
C      1  0.4803400000000  0.4915360000000  0.4332910000000 1.0
C      1  0.4616190000000  0.5031300000000  0.5964580000000 1.0
C      1  0.5144870000000  0.5647080000000  0.5870340000000 1.0
C      1  0.4880210000000  0.4780590000000  0.5071690000000 1.0
C      1  0.5590080000000  0.5654590000000  0.4854940000000 1.0
C      1  0.4746600000000  0.6030380000000  0.4195320000000 1.0
C      1  0.5128650000000  0.5729640000000  0.4244250000000 1.0
C      1  0.4280050000000  0.5610170000000  0.5320790000000 1.0
C      1  0.5064340000000  0.5283770000000  0.4408470000000 1.0
C      1  0.3809800000000  0.5019600000000  0.4760180000000 1.0
C      1  0.5585030000000  0.5479980000000  0.5863200000000 1.0
C      1  0.6110910000000  0.5531790000000  0.5293000000000 1.0
C      1  0.4781930000000  0.5899240000000  0.5201680000000 1.0
C      1  0.5951900000000  0.4673890000000  0.4963600000000 1.0
C      1  0.5248650000000  0.4461870000000  0.6023260000000 1.0
C      1  0.4936160000000  0.6044860000000  0.5669530000000 1.0
C      1  0.4502250000000  0.4279750000000  0.4568670000000 1.0
C      1  0.4233150000000  0.5740250000000  0.4613770000000 1.0
C      1  0.4647910000000  0.5973910000000  0.4742280000000 1.0
C      1  0.5065520000000  0.3869710000000  0.4375960000000 1.0
C      1  0.4887330000000  0.3732040000000  0.4895390000000 1.0
C      1  0.4961050000000  0.5929820000000  0.4350800000000 1.0
C      1  0.4435960000000  0.5926410000000  0.4545460000000 1.0
C      1  0.4531520000000  0.4709990000000  0.4046240000000 1.0
C      1  0.4862920000000  0.5482110000000  0.4917460000000 1.0
C      1  0.4809170000000  0.3941180000000  0.5398920000000 1.0
C      1  0.5510590000000  0.5195040000000  0.5126750000000 1.0
C      1  0.5225730000000  0.4432600000000  0.4548740000000 1.0
C      1  0.4240270000000  0.4870290000000  0.5355220000000 1.0
C      1  0.5127030000000  0.5457660000000  0.4817870000000 1.0
C      1  0.5195050000000  0.4973910000000  0.4806750000000 1.0
C      1  0.4783290000000  0.5247650000000  0.3595010000000 1.0
C      1  0.5422540000000  0.4471890000000  0.4349400000000 1.0
C      1  0.4086170000000  0.5066120000000  0.5956850000000 1.0
C      1  0.4190920000000  0.5618220000000  0.4863570000000 1.0
C      1  0.5256370000000  0.4103320000000  0.5709580000000 1.0
C      1  0.4912160000000  0.5476440000000  0.5402470000000 1.0
C      1  0.5975850000000  0.5151770000000  0.5899630000000 1.0
C      1  0.5445390000000  0.4752730000000  0.5215140000000 1.0
C      1  0.4776900000000  0.5250700000000  0.6049830000000 1.0
C      1  0.4078190000000  0.4600580000000  0.6113810000000 1.0
C      1  0.4662200000000  0.5317030000000  0.4818150000000 1.0
C      1  0.5721400000000  0.4967760000000  0.4184760000000 1.0
C      1  0.5412270000000  0.4681470000000  0.6095330000000 1.0
C      1  0.5470400000000  0.4044270000000  0.5557130000000 1.0
C      1  0.5503890000000  0.4516020000000  0.5086680000000 1.0
C      1  0.6378000000000  0.4906400000000  0.5048960000000 1.0
C      1  0.4573480000000  0.4184690000000  0.5747120000000 1.0
C      1  0.5826870000000  0.5625990000000  0.5345940000000 1.0
C      1  0.4521700000000  0.5095350000000  0.4781990000000 1.0
C      1  0.4149520000000  0.4383680000000  0.5973110000000 1.0
C      1  0.4801410000000  0.4263210000000  0.5914870000000 1.0
C      1  0.5628900000000  0.5637540000000  0.3900950000000 1.0
C      1  0.5913620000000  0.5017340000000  0.4612070000000 1.0
C      1  0.4974630000000  0.4546760000000  0.4595420000000 1.0
C      1  0.4603800000000  0.5061990000000  0.3671160000000 1.0
C      1  0.4933540000000  0.5970520000000  0.4640350000000 1.0
C      1  0.4597870000000  0.5345570000000  0.4255500000000 1.0
C      1  0.5628100000000  0.4015930000000  0.5339770000000 1.0
C      1  0.4194040000000  0.4856930000000  0.6119620000000 1.0
C      1  0.5803700000000  0.4161740000000  0.4594210000000 1.0
C      1  0.4056470000000  0.5101810000000  0.4844060000000 1.0
C      1  0.5657930000000  0.5752370000000  0.5133340000000 1.0
C      1  0.5902290000000  0.4492530000000  0.5658570000000 1.0
C      1  0.5817530000000  0.5142690000000  0.4382390000000 1.0
C      1  0.5444410000000  0.5640490000000  0.3703580000000 1.0
C      1  0.6224640000000  0.4682680000000  0.5041130000000 1.0
C      1  0.4984380000000  0.4765030000000  0.4800140000000 1.0
C      1  0.5318300000000  0.4878900000000  0.6275450000000 1.0
C      1  0.4985830000000  0.5421290000000  0.3558520000000 1.0
C      1  0.5062460000000  0.4302830000000  0.5180960000000 1.0
C      1  0.4410270000000  0.4471360000000  0.5021400000000 1.0
C      1  0.5764670000000  0.4183030000000  0.4880550000000 1.0
C      1  0.5148350000000  0.5123550000000  0.5720900000000 1.0
C      1  0.4760910000000  0.4264820000000  0.4146210000000 1.0
C      1  0.4723790000000  0.3899680000000  0.4737390000000 1.0
C      1  0.4889380000000  0.4536060000000  0.5254750000000 1.0
C      1  0.5443220000000  0.5948570000000  0.5197700000000 1.0
C      1  0.4095370000000  0.5358750000000  0.4969340000000 1.0
C      1  0.3287660000000  0.5760100000000  0.3465840000000 1.0
C      1  0.5262910000000  0.5310170000000  0.3992210000000 1.0
C      1  0.5666130000000  0.4336580000000  0.4411630000000 1.0
C      1  0.4708380000000  0.4079850000000  0.3656610000000 1.0
C      1  0.5775440000000  0.5428230000000  0.4383480000000 1.0
C      1  0.4561970000000  0.5944110000000  0.5021260000000 1.0
C      1  0.5331910000000  0.6098270000000  0.4974890000000 1.0
C      1  0.4305090000000  0.4305940000000  0.5755290000000 1.0
C      1  0.5773160000000  0.5523380000000  0.5643950000000 1.0
C      1  0.3723470000000  0.5627780000000  0.3728510000000 1.0
C      1  0.4139910000000  0.4605510000000  0.5394670000000 1.0
C      1  0.4291140000000  0.4937830000000  0.4810200000000 1.0
C      1  0.4343270000000  0.4124940000000  0.5314230000000 1.0
C      1  0.5067530000000  0.4637870000000  0.4051010000000 1.0
C      1  0.4133400000000  0.5361390000000  0.5262460000000 1.0
C      1  0.4210050000000  0.5143420000000  0.5713980000000 1.0
C      1  0.5095200000000  0.4266000000000  0.5876980000000 1.0
C      1  0.5181510000000  0.5941730000000  0.4787050000000 1.0
C      1  0.4359510000000  0.4525370000000  0.4538660000000 1.0
END
