TITL C-3866674-3872-133 -6.18086014071486 125000 -1065.46337274595 0 0 175 (C1) n - 1
REM
REM in /home/nfs/bkarasulu/CARBON/AIRSS/Generating-Clusters/LCBOP/Only-C1/SD-CG/HFTN-CG/FIRE-CG
REM
REM
REM
REM
REM
REM ./C.cell (11c1c37f851c82e70ff6c80c92926a4b)
REM AIRSS Version 0.9.1 bugfix July 2018 build 013d7b7c2542+ Fri, 06 Jul 2018 19:26:36 +0100
REM compiler GCC version 9.2.1 20190827 (Red Hat 9.2.1-1)
REM options -cpp -mtune=generic -march=x86-64 -g -O0 -fpre-include=/usr/include/finclude/math-vector-fortran.h
REM seed 1243910150 -1293693429 749889050 1445333261 1181923388 -690959068 -1121488455 1355744175 -429844996 -1816267840 -680457758 -373187669 -1500241795 1178054032 495661778 2070960687 1052489671 161289380 -1519161588 -157223218 1253854879 -2074133721 1980079139 -538198351 1837922434 -897892512 1041632962 1020779794 -2093380609 -1791439644 -1647118966 606573625 -1718408715
REM
CELL 1.54180   50.00000   50.00000   50.00000   90.00000   90.00000   90.00000
LATT -1
SFAC C  
C      1  0.5624710000000  0.5172780000000  0.5812260000000 1.0
C      1  0.3447080000000  0.4760000000000  0.5195330000000 1.0
C      1  0.5986680000000  0.5568830000000  0.5423310000000 1.0
C      1  0.4975810000000  0.5492790000000  0.5480780000000 1.0
C      1  0.3778210000000  0.4453120000000  0.5017600000000 1.0
C      1  0.4711160000000  0.5511250000000  0.6161190000000 1.0
C      1  0.4599050000000  0.5432560000000  0.5698330000000 1.0
C      1  0.5302870000000  0.4967040000000  0.5163070000000 1.0
C      1  0.5124150000000  0.5100340000000  0.3860870000000 1.0
C      1  0.4713260000000  0.5610110000000  0.5898940000000 1.0
C      1  0.5766080000000  0.4412660000000  0.4293610000000 1.0
C      1  0.4322750000000  0.4835860000000  0.5751690000000 1.0
C      1  0.4777440000000  0.4588430000000  0.3937980000000 1.0
C      1  0.4875040000000  0.4341180000000  0.4515460000000 1.0
C      1  0.4225740000000  0.4064100000000  0.4433050000000 1.0
C      1  0.4615540000000  0.3781640000000  0.5323120000000 1.0
C      1  0.5196080000000  0.3910370000000  0.5124350000000 1.0
C      1  0.4912920000000  0.6105940000000  0.4241880000000 1.0
C      1  0.5385870000000  0.5872160000000  0.4833720000000 1.0
C      1  0.5683590000000  0.3977110000000  0.4808380000000 1.0
C      1  0.5414350000000  0.5256630000000  0.5997790000000 1.0
C      1  0.5498430000000  0.4140800000000  0.4711650000000 1.0
C      1  0.4050340000000  0.5358050000000  0.4470440000000 1.0
C      1  0.6150060000000  0.4854980000000  0.5081850000000 1.0
C      1  0.5420570000000  0.4301540000000  0.5722350000000 1.0
C      1  0.5323060000000  0.6118170000000  0.4972130000000 1.0
C      1  0.5699710000000  0.4902690000000  0.5814290000000 1.0
C      1  0.5475060000000  0.6091650000000  0.5228750000000 1.0
C      1  0.5737590000000  0.5132200000000  0.5276150000000 1.0
C      1  0.5983970000000  0.4691430000000  0.4664730000000 1.0
C      1  0.5710210000000  0.5225730000000  0.5010940000000 1.0
C      1  0.4939360000000  0.4820950000000  0.4914080000000 1.0
C      1  0.4340090000000  0.5947790000000  0.5234000000000 1.0
C      1  0.4869910000000  0.4058480000000  0.4519760000000 1.0
C      1  0.4320800000000  0.4809870000000  0.4801790000000 1.0
C      1  0.4518560000000  0.4391120000000  0.4912170000000 1.0
C      1  0.4781010000000  0.4690640000000  0.4189250000000 1.0
C      1  0.5740480000000  0.5093540000000  0.4756880000000 1.0
C      1  0.4287790000000  0.3901800000000  0.4635520000000 1.0
C      1  0.5877910000000  0.3837990000000  0.4922930000000 1.0
C      1  0.4107410000000  0.4974720000000  0.4148130000000 1.0
C      1  0.5745470000000  0.5660710000000  0.4611050000000 1.0
C      1  0.4219810000000  0.5730090000000  0.4757700000000 1.0
C      1  0.4879720000000  0.4263810000000  0.5221080000000 1.0
C      1  0.3701870000000  0.4706090000000  0.5114390000000 1.0
C      1  0.5195510000000  0.4678800000000  0.6044010000000 1.0
C      1  0.4576880000000  0.5225310000000  0.4446700000000 1.0
C      1  0.5233800000000  0.5038950000000  0.6095030000000 1.0
C      1  0.6213940000000  0.5116590000000  0.4968960000000 1.0
C      1  0.5376020000000  0.4262420000000  0.4043570000000 1.0
C      1  0.5372900000000  0.4843330000000  0.4892330000000 1.0
C      1  0.4203350000000  0.4996560000000  0.5539060000000 1.0
C      1  0.4984470000000  0.3860410000000  0.4661390000000 1.0
C      1  0.5120940000000  0.4117130000000  0.5301010000000 1.0
C      1  0.5104890000000  0.5868640000000  0.4224920000000 1.0
C      1  0.5548900000000  0.5453650000000  0.4995580000000 1.0
C      1  0.5655520000000  0.5855240000000  0.5200880000000 1.0
C      1  0.4766050000000  0.5036360000000  0.4496200000000 1.0
C      1  0.4405600000000  0.3834640000000  0.4866190000000 1.0
C      1  0.4128240000000  0.5273610000000  0.5529050000000 1.0
C      1  0.5501520000000  0.4442050000000  0.5180220000000 1.0
C      1  0.5163900000000  0.5103190000000  0.5599890000000 1.0
C      1  0.5975580000000  0.4655200000000  0.4949490000000 1.0
C      1  0.5316910000000  0.5199290000000  0.4567260000000 1.0
C      1  0.5283780000000  0.4566890000000  0.5341560000000 1.0
C      1  0.5353000000000  0.5987920000000  0.5741100000000 1.0
C      1  0.5115210000000  0.5092260000000  0.4141090000000 1.0
C      1  0.4765100000000  0.5139410000000  0.5257850000000 1.0
C      1  0.5238780000000  0.5671800000000  0.4032970000000 1.0
C      1  0.6160760000000  0.4532360000000  0.5451600000000 1.0
C      1  0.6117880000000  0.4999290000000  0.5556770000000 1.0
C      1  0.5532410000000  0.5643190000000  0.4788810000000 1.0
C      1  0.6110010000000  0.5299920000000  0.5503830000000 1.0
C      1  0.5953410000000  0.4522870000000  0.5654210000000 1.0
C      1  0.5189170000000  0.4138150000000  0.5593590000000 1.0
C      1  0.6002510000000  0.5610970000000  0.4869630000000 1.0
C      1  0.5173940000000  0.5354490000000  0.4750020000000 1.0
C      1  0.4740460000000  0.6147780000000  0.4473640000000 1.0
C      1  0.5489590000000  0.4771060000000  0.5678750000000 1.0
C      1  0.4697590000000  0.4476810000000  0.5926110000000 1.0
C      1  0.5634000000000  0.5228960000000  0.5522190000000 1.0
C      1  0.5156170000000  0.5680100000000  0.5133930000000 1.0
C      1  0.4811930000000  0.5270870000000  0.6265420000000 1.0
C      1  0.4363290000000  0.4957780000000  0.5045820000000 1.0
C      1  0.5926860000000  0.5716420000000  0.5150300000000 1.0
C      1  0.5320190000000  0.4241360000000  0.3785000000000 1.0
C      1  0.4874020000000  0.6228360000000  0.4731570000000 1.0
C      1  0.5201630000000  0.5786410000000  0.5889290000000 1.0
C      1  0.4002950000000  0.5149570000000  0.4683080000000 1.0
C      1  0.4329120000000  0.5806700000000  0.4048620000000 1.0
C      1  0.4454640000000  0.6081450000000  0.5000480000000 1.0
C      1  0.3874790000000  0.5379360000000  0.5132010000000 1.0
C      1  0.5033280000000  0.5520160000000  0.4926770000000 1.0
C      1  0.4015100000000  0.4330840000000  0.4988740000000 1.0
C      1  0.5951710000000  0.4505460000000  0.4461240000000 1.0
C      1  0.5367060000000  0.4316000000000  0.4535950000000 1.0
C      1  0.5159780000000  0.4668340000000  0.4812190000000 1.0
C      1  0.5129890000000  0.4457110000000  0.4617990000000 1.0
C      1  0.4048780000000  0.5234800000000  0.4209250000000 1.0
C      1  0.4324620000000  0.5815170000000  0.4320720000000 1.0
C      1  0.4997380000000  0.4998730000000  0.5140210000000 1.0
C      1  0.4784650000000  0.4209780000000  0.5894570000000 1.0
C      1  0.4913180000000  0.5806030000000  0.5821290000000 1.0
C      1  0.5743690000000  0.5653070000000  0.5587570000000 1.0
C      1  0.5137980000000  0.5017870000000  0.3608900000000 1.0
C      1  0.5269000000000  0.4341410000000  0.3543960000000 1.0
C      1  0.4934590000000  0.5672080000000  0.4379450000000 1.0
C      1  0.4498370000000  0.3533740000000  0.5348980000000 1.0
C      1  0.4749110000000  0.5328270000000  0.5476500000000 1.0
C      1  0.5307120000000  0.5254580000000  0.4289480000000 1.0
C      1  0.4900480000000  0.4655890000000  0.6014170000000 1.0
C      1  0.4347070000000  0.5988840000000  0.4750080000000 1.0
C      1  0.4546810000000  0.5167220000000  0.5078700000000 1.0
C      1  0.4929940000000  0.4047830000000  0.5713950000000 1.0
C      1  0.4232730000000  0.5677610000000  0.5234480000000 1.0
C      1  0.4849360000000  0.4916360000000  0.5892540000000 1.0
C      1  0.4952740000000  0.5107760000000  0.6085060000000 1.0
C      1  0.5480520000000  0.5008020000000  0.4690810000000 1.0
C      1  0.4133740000000  0.4893820000000  0.4611790000000 1.0
C      1  0.4753990000000  0.4861120000000  0.4718950000000 1.0
C      1  0.4307450000000  0.5575540000000  0.4972770000000 1.0
C      1  0.4623550000000  0.4527490000000  0.4429040000000 1.0
C      1  0.4470910000000  0.6024780000000  0.4486420000000 1.0
C      1  0.4982340000000  0.4888580000000  0.5632210000000 1.0
C      1  0.4982800000000  0.5746020000000  0.5350780000000 1.0
C      1  0.3959400000000  0.4226440000000  0.3776840000000 1.0
C      1  0.5167460000000  0.4822170000000  0.3430960000000 1.0
C      1  0.5214620000000  0.4561280000000  0.3403650000000 1.0
C      1  0.5491030000000  0.5488850000000  0.5495990000000 1.0
C      1  0.5412610000000  0.4820870000000  0.5397080000000 1.0
C      1  0.4054570000000  0.5474980000000  0.5338200000000 1.0
C      1  0.5938190000000  0.4965280000000  0.4605960000000 1.0
C      1  0.4769870000000  0.3876000000000  0.5545090000000 1.0
C      1  0.4301010000000  0.4570510000000  0.5297580000000 1.0
C      1  0.5398080000000  0.6121460000000  0.5505270000000 1.0
C      1  0.3907810000000  0.4901800000000  0.5125370000000 1.0
C      1  0.4795930000000  0.4479180000000  0.5384390000000 1.0
C      1  0.4573820000000  0.3924350000000  0.5074220000000 1.0
C      1  0.6207650000000  0.4802820000000  0.5353590000000 1.0
C      1  0.5586410000000  0.5717890000000  0.4359490000000 1.0
C      1  0.5426580000000  0.5506410000000  0.4193560000000 1.0
C      1  0.5494200000000  0.4342470000000  0.4282360000000 1.0
C      1  0.4493810000000  0.4599360000000  0.5746860000000 1.0
C      1  0.4702600000000  0.6215350000000  0.4962660000000 1.0
C      1  0.4774070000000  0.5199760000000  0.6525990000000 1.0
C      1  0.5321960000000  0.5540080000000  0.5998610000000 1.0
C      1  0.5356200000000  0.4568350000000  0.5837240000000 1.0
C      1  0.6069910000000  0.3711980000000  0.5046260000000 1.0
C      1  0.4760810000000  0.5628120000000  0.4574370000000 1.0
C      1  0.5952250000000  0.4814210000000  0.5738630000000 1.0
C      1  0.4905280000000  0.4936410000000  0.4268630000000 1.0
C      1  0.5371270000000  0.5960840000000  0.4369180000000 1.0
C      1  0.3898380000000  0.5150550000000  0.4962920000000 1.0
C      1  0.4554950000000  0.4639470000000  0.4715710000000 1.0
C      1  0.5725280000000  0.4330930000000  0.5678820000000 1.0
C      1  0.4079220000000  0.4246570000000  0.4007390000000 1.0
C      1  0.6166090000000  0.5371420000000  0.4877610000000 1.0
C      1  0.4328360000000  0.4530490000000  0.4315980000000 1.0
C      1  0.4171790000000  0.5622480000000  0.4495260000000 1.0
C      1  0.4173770000000  0.4781800000000  0.4346400000000 1.0
C      1  0.5749680000000  0.4512590000000  0.5073000000000 1.0
C      1  0.5013310000000  0.4637090000000  0.5466880000000 1.0
C      1  0.5165420000000  0.6250260000000  0.4759410000000 1.0
C      1  0.4527380000000  0.4523610000000  0.5470300000000 1.0
C      1  0.4687500000000  0.4185600000000  0.5030490000000 1.0
C      1  0.4183390000000  0.4853990000000  0.5269450000000 1.0
C      1  0.5211540000000  0.5375810000000  0.5556150000000 1.0
C      1  0.5327250000000  0.6204840000000  0.4516990000000 1.0
C      1  0.5447860000000  0.5614170000000  0.5225710000000 1.0
C      1  0.4765410000000  0.5543640000000  0.4840270000000 1.0
C      1  0.4209540000000  0.4279130000000  0.4252140000000 1.0
C      1  0.4272480000000  0.4408190000000  0.5064490000000 1.0
C      1  0.5117840000000  0.3807380000000  0.4888430000000 1.0
C      1  0.4883020000000  0.5919070000000  0.5553350000000 1.0
C      1  0.4537740000000  0.5419720000000  0.4953590000000 1.0
END
