TITL C-3866670-4165-121 3.40292255064742 125000 -539.807095082797 0 0 90 (C1) n - 1
REM
REM in /home/nfs/bkarasulu/CARBON/AIRSS/Generating-Clusters/LCBOP/Only-C1/SD-CG/HFTN-CG/FIRE-CG
REM
REM
REM
REM
REM
REM ./C.cell (11c1c37f851c82e70ff6c80c92926a4b)
REM AIRSS Version 0.9.1 bugfix July 2018 build 013d7b7c2542+ Fri, 06 Jul 2018 19:26:36 +0100
REM compiler GCC version 9.2.1 20190827 (Red Hat 9.2.1-1)
REM options -cpp -mtune=generic -march=x86-64 -g -O0 -fpre-include=/usr/include/finclude/math-vector-fortran.h
REM seed -1246781437 -1321992269 -571853631 1328290625 848710083 -820701708 205001593 2116824064 -735633153 1141929506 -1595134283 -703667281 1170032577 -1088384723 2099613744 135230294 -22724924 -2025700853 1066581021 337817257 -2025330418 1389564157 -344778835 618239191 -1136771819 -2119076887 2124352796 -1567932697 1452332798 -1937186857 309348831 -125582494 1797868825
REM
CELL 1.54180   50.00000   50.00000   50.00000   90.00000   90.00000   90.00000
LATT -1
SFAC C  
C      1  0.5626750000000  0.5620420000000  0.5626720000000 1.0
C      1  0.4851800000000  0.3829190000000  0.4401970000000 1.0
C      1  0.5705490000000  0.4517960000000  0.5300170000000 1.0
C      1  0.5150750000000  0.4886650000000  0.5529680000000 1.0
C      1  0.4899440000000  0.5602170000000  0.3881620000000 1.0
C      1  0.4663150000000  0.4796410000000  0.5464050000000 1.0
C      1  0.4173510000000  0.5012820000000  0.4541260000000 1.0
C      1  0.5892950000000  0.4964370000000  0.5862780000000 1.0
C      1  0.5756110000000  0.4731710000000  0.5792440000000 1.0
C      1  0.5315970000000  0.4901940000000  0.4339040000000 1.0
C      1  0.5995650000000  0.5823780000000  0.5008360000000 1.0
C      1  0.6084850000000  0.4928980000000  0.4375260000000 1.0
C      1  0.5002660000000  0.4711070000000  0.6034360000000 1.0
C      1  0.5901870000000  0.4543290000000  0.4623760000000 1.0
C      1  0.5574980000000  0.5219060000000  0.5032700000000 1.0
C      1  0.3302090000000  0.6153730000000  0.4928320000000 1.0
C      1  0.5029040000000  0.5228770000000  0.5219120000000 1.0
C      1  0.4405920000000  0.4399810000000  0.5008110000000 1.0
C      1  0.5715920000000  0.5437500000000  0.4922860000000 1.0
C      1  0.4933910000000  0.4106260000000  0.5575960000000 1.0
C      1  0.4797960000000  0.4743030000000  0.4441050000000 1.0
C      1  0.3596350000000  0.5805540000000  0.4666400000000 1.0
C      1  0.4690860000000  0.5345290000000  0.5843890000000 1.0
C      1  0.4027110000000  0.5234470000000  0.4528970000000 1.0
C      1  0.4044710000000  0.5396640000000  0.3869920000000 1.0
C      1  0.5502050000000  0.4654700000000  0.5913790000000 1.0
C      1  0.4942330000000  0.4494770000000  0.5147190000000 1.0
C      1  0.6089700000000  0.4694740000000  0.4505590000000 1.0
C      1  0.4418720000000  0.4333130000000  0.5271720000000 1.0
C      1  0.3744600000000  0.5630120000000  0.4534440000000 1.0
C      1  0.5756140000000  0.5625590000000  0.5376790000000 1.0
C      1  0.4857790000000  0.5404210000000  0.5357740000000 1.0
C      1  0.4320440000000  0.4811090000000  0.4413270000000 1.0
C      1  0.5239040000000  0.5569280000000  0.6036040000000 1.0
C      1  0.5340600000000  0.5084050000000  0.6075060000000 1.0
C      1  0.4404200000000  0.4839270000000  0.5537490000000 1.0
C      1  0.5456520000000  0.4543890000000  0.4861810000000 1.0
C      1  0.4930570000000  0.4248170000000  0.4709310000000 1.0
C      1  0.4716080000000  0.5155710000000  0.6031940000000 1.0
C      1  0.5196080000000  0.4657530000000  0.4812420000000 1.0
C      1  0.4183800000000  0.4894430000000  0.3920100000000 1.0
C      1  0.4893500000000  0.4035230000000  0.4556130000000 1.0
C      1  0.5805100000000  0.4616380000000  0.5532270000000 1.0
C      1  0.4466190000000  0.4513250000000  0.4768470000000 1.0
C      1  0.5679680000000  0.5257630000000  0.4415760000000 1.0
C      1  0.5423910000000  0.5170710000000  0.4307820000000 1.0
C      1  0.4872800000000  0.4480340000000  0.5894610000000 1.0
C      1  0.5824350000000  0.5631490000000  0.5101410000000 1.0
C      1  0.5260460000000  0.5800910000000  0.5896080000000 1.0
C      1  0.4536760000000  0.4679580000000  0.4544410000000 1.0
C      1  0.5496120000000  0.4694010000000  0.4411140000000 1.0
C      1  0.5634590000000  0.5399970000000  0.5815340000000 1.0
C      1  0.5252390000000  0.4625200000000  0.5521310000000 1.0
C      1  0.5915160000000  0.5130010000000  0.4327510000000 1.0
C      1  0.4520240000000  0.4324720000000  0.5525040000000 1.0
C      1  0.3900660000000  0.5445860000000  0.4395160000000 1.0
C      1  0.3968870000000  0.5715880000000  0.3513010000000 1.0
C      1  0.5853350000000  0.5227460000000  0.5841410000000 1.0
C      1  0.5240250000000  0.5107810000000  0.5378270000000 1.0
C      1  0.5478440000000  0.4460040000000  0.5135260000000 1.0
C      1  0.5186280000000  0.4159770000000  0.5463230000000 1.0
C      1  0.5711680000000  0.5435650000000  0.4637600000000 1.0
C      1  0.4732480000000  0.4911270000000  0.5014400000000 1.0
C      1  0.5102710000000  0.5498050000000  0.4016330000000 1.0
C      1  0.5387570000000  0.4202680000000  0.5668790000000 1.0
C      1  0.4138210000000  0.5595700000000  0.3690530000000 1.0
C      1  0.5502150000000  0.5168860000000  0.5299050000000 1.0
C      1  0.5623060000000  0.4566190000000  0.4633970000000 1.0
C      1  0.4756150000000  0.4300560000000  0.5688510000000 1.0
C      1  0.5274290000000  0.5356270000000  0.4160160000000 1.0
C      1  0.5034100000000  0.4840890000000  0.4348970000000 1.0
C      1  0.4879880000000  0.4899200000000  0.5607310000000 1.0
C      1  0.4409630000000  0.5663390000000  0.3701830000000 1.0
C      1  0.3448000000000  0.5981080000000  0.4798450000000 1.0
C      1  0.4740790000000  0.5437690000000  0.5597170000000 1.0
C      1  0.5446020000000  0.5828000000000  0.5699760000000 1.0
C      1  0.4962110000000  0.5071130000000  0.4986010000000 1.0
C      1  0.5404270000000  0.5343990000000  0.5985960000000 1.0
C      1  0.4818910000000  0.4919560000000  0.6108480000000 1.0
C      1  0.5290440000000  0.4804820000000  0.6043320000000 1.0
C      1  0.3935040000000  0.5467500000000  0.4117820000000 1.0
C      1  0.5420340000000  0.5076930000000  0.4848070000000 1.0
C      1  0.5177280000000  0.4941180000000  0.4848360000000 1.0
C      1  0.4097040000000  0.5125670000000  0.3820370000000 1.0
C      1  0.4991360000000  0.4468560000000  0.4865280000000 1.0
C      1  0.5200810000000  0.4425650000000  0.5295100000000 1.0
C      1  0.5387530000000  0.4477420000000  0.5731020000000 1.0
C      1  0.4269490000000  0.4770950000000  0.4140290000000 1.0
C      1  0.4745580000000  0.4702620000000  0.5208630000000 1.0
C      1  0.4665510000000  0.5660760000000  0.3771310000000 1.0
END
