TITL C-3866670-4165-430 0.000304533169478344 125000 -593.427325299266 0 0 99 (C1) n - 1
REM
REM in /home/nfs/bkarasulu/CARBON/AIRSS/Generating-Clusters/LCBOP/Only-C1/SD-CG/FIRE-CG
REM
REM
REM
REM
REM
REM ./C.cell (11c1c37f851c82e70ff6c80c92926a4b)
REM AIRSS Version 0.9.1 bugfix July 2018 build 013d7b7c2542+ Fri, 06 Jul 2018 19:26:36 +0100
REM compiler GCC version 9.2.1 20190827 (Red Hat 9.2.1-1)
REM options -cpp -mtune=generic -march=x86-64 -g -O0 -fpre-include=/usr/include/finclude/math-vector-fortran.h
REM seed 1886077899 -1458170695 -441367289 1664307295 638339352 -1735310757 -387901814 -1475213462 -922204894 -918286187 -1092790706 -702578746 1380894572 87833684 -770769612 -1400862103 1397925548 316382259 1308343810 674309245 -1661855154 294662357 440872599 -1169122497 1359869184 1142560885 662423923 1753375276 -251876827 -741084530 -1497318584 828416186 1428185081
REM
CELL 1.54180   50.00000   50.00000   50.00000   90.00000   90.00000   90.00000
LATT -1
SFAC C  
C      1  0.4865900000000  0.4538210000000  0.4474570000000 1.0
C      1  0.5962500000000  0.4902950000000  0.5161610000000 1.0
C      1  0.5413490000000  0.4043050000000  0.6381440000000 1.0
C      1  0.4651650000000  0.5514710000000  0.5562460000000 1.0
C      1  0.4120130000000  0.5187320000000  0.5239140000000 1.0
C      1  0.5644160000000  0.5302530000000  0.5368710000000 1.0
C      1  0.4638670000000  0.5690870000000  0.4182880000000 1.0
C      1  0.5027600000000  0.5165180000000  0.4136470000000 1.0
C      1  0.5882680000000  0.5317400000000  0.4125970000000 1.0
C      1  0.5372240000000  0.4210220000000  0.6185690000000 1.0
C      1  0.4905780000000  0.4130550000000  0.5231130000000 1.0
C      1  0.4937720000000  0.5255860000000  0.4862850000000 1.0
C      1  0.5856240000000  0.5487620000000  0.4936620000000 1.0
C      1  0.4930630000000  0.5506690000000  0.5462680000000 1.0
C      1  0.5273170000000  0.5342400000000  0.4143900000000 1.0
C      1  0.5810680000000  0.4850050000000  0.4224240000000 1.0
C      1  0.5421380000000  0.5269520000000  0.4970380000000 1.0
C      1  0.5901190000000  0.4717840000000  0.4003440000000 1.0
C      1  0.4577630000000  0.5252040000000  0.5161670000000 1.0
C      1  0.5283920000000  0.4553720000000  0.5770750000000 1.0
C      1  0.5068640000000  0.5750860000000  0.5374820000000 1.0
C      1  0.5300960000000  0.4841310000000  0.5828760000000 1.0
C      1  0.3890080000000  0.4938530000000  0.4885660000000 1.0
C      1  0.5430710000000  0.5796130000000  0.5059410000000 1.0
C      1  0.5093360000000  0.4829050000000  0.5334840000000 1.0
C      1  0.5245230000000  0.5126740000000  0.5873130000000 1.0
C      1  0.5152390000000  0.5333770000000  0.5055050000000 1.0
C      1  0.5505880000000  0.5768020000000  0.4773450000000 1.0
C      1  0.5779330000000  0.5681070000000  0.4762170000000 1.0
C      1  0.4809830000000  0.5834010000000  0.4940280000000 1.0
C      1  0.5225920000000  0.4429230000000  0.5509910000000 1.0
C      1  0.5362780000000  0.4645130000000  0.5031650000000 1.0
C      1  0.5045570000000  0.4167810000000  0.4769530000000 1.0
C      1  0.5306140000000  0.5148390000000  0.4542890000000 1.0
C      1  0.5455900000000  0.5178230000000  0.4300160000000 1.0
C      1  0.5254530000000  0.4605790000000  0.5290430000000 1.0
C      1  0.5799150000000  0.4727570000000  0.4479060000000 1.0
C      1  0.4058060000000  0.5073900000000  0.5742710000000 1.0
C      1  0.4828730000000  0.4159280000000  0.4956820000000 1.0
C      1  0.5486280000000  0.5497600000000  0.5517060000000 1.0
C      1  0.5543650000000  0.4658270000000  0.4578350000000 1.0
C      1  0.4505140000000  0.5127310000000  0.4717340000000 1.0
C      1  0.5091910000000  0.5295140000000  0.5337060000000 1.0
C      1  0.3756170000000  0.5075340000000  0.4693010000000 1.0
C      1  0.3977320000000  0.4565170000000  0.5133120000000 1.0
C      1  0.3912320000000  0.4774130000000  0.5336350000000 1.0
C      1  0.4685820000000  0.4620550000000  0.5215630000000 1.0
C      1  0.4457420000000  0.4464930000000  0.4729610000000 1.0
C      1  0.5464920000000  0.4794320000000  0.4816780000000 1.0
C      1  0.4379880000000  0.5300220000000  0.4306110000000 1.0
C      1  0.4017090000000  0.4674430000000  0.4858120000000 1.0
C      1  0.4266060000000  0.5251030000000  0.5790410000000 1.0
C      1  0.4408610000000  0.5703680000000  0.5144140000000 1.0
C      1  0.5380620000000  0.5364330000000  0.5760030000000 1.0
C      1  0.5333010000000  0.4488930000000  0.4487630000000 1.0
C      1  0.6059440000000  0.4859870000000  0.4914650000000 1.0
C      1  0.5429070000000  0.5068160000000  0.4779400000000 1.0
C      1  0.4734630000000  0.5246140000000  0.5954040000000 1.0
C      1  0.5716060000000  0.5118260000000  0.4213240000000 1.0
C      1  0.4642910000000  0.5356040000000  0.4886760000000 1.0
C      1  0.4629380000000  0.5433760000000  0.4275190000000 1.0
C      1  0.4218380000000  0.4624220000000  0.4657100000000 1.0
C      1  0.4944390000000  0.5900160000000  0.5166690000000 1.0
C      1  0.5659810000000  0.4322260000000  0.5095810000000 1.0
C      1  0.4540980000000  0.5347050000000  0.5775090000000 1.0
C      1  0.4033460000000  0.4816600000000  0.5596900000000 1.0
C      1  0.4976680000000  0.4871230000000  0.4138420000000 1.0
C      1  0.4448050000000  0.4748800000000  0.4200870000000 1.0
C      1  0.4696340000000  0.4796860000000  0.4094300000000 1.0
C      1  0.5300010000000  0.4267370000000  0.4687370000000 1.0
C      1  0.5238880000000  0.5054690000000  0.5405880000000 1.0
C      1  0.4387110000000  0.5116620000000  0.5302380000000 1.0
C      1  0.5358920000000  0.5730390000000  0.4523050000000 1.0
C      1  0.4592720000000  0.5651300000000  0.4928570000000 1.0
C      1  0.5330030000000  0.4379500000000  0.5986330000000 1.0
C      1  0.5518200000000  0.4231110000000  0.4879560000000 1.0
C      1  0.5712040000000  0.4522540000000  0.5277000000000 1.0
C      1  0.4328510000000  0.5101370000000  0.4499910000000 1.0
C      1  0.5737160000000  0.4811170000000  0.5313690000000 1.0
C      1  0.4465470000000  0.5667600000000  0.5407740000000 1.0
C      1  0.5033660000000  0.5256990000000  0.4579570000000 1.0
C      1  0.4868060000000  0.4819900000000  0.5174900000000 1.0
C      1  0.4991020000000  0.5179480000000  0.5987960000000 1.0
C      1  0.4867000000000  0.5294580000000  0.4345890000000 1.0
C      1  0.5357010000000  0.5712760000000  0.5338550000000 1.0
C      1  0.4305460000000  0.4725410000000  0.5595730000000 1.0
C      1  0.4879940000000  0.4956900000000  0.4932230000000 1.0
C      1  0.4674180000000  0.4891710000000  0.4749590000000 1.0
C      1  0.4672510000000  0.4634030000000  0.4645620000000 1.0
C      1  0.4467310000000  0.4902160000000  0.5469060000000 1.0
C      1  0.3912510000000  0.5014320000000  0.5164260000000 1.0
C      1  0.5545460000000  0.5025980000000  0.5404060000000 1.0
C      1  0.5104720000000  0.4615230000000  0.4351130000000 1.0
C      1  0.4280880000000  0.4820270000000  0.4429160000000 1.0
C      1  0.5666300000000  0.5351930000000  0.5092320000000 1.0
C      1  0.6004290000000  0.4771350000000  0.4667910000000 1.0
C      1  0.5291360000000  0.5608320000000  0.4282230000000 1.0
C      1  0.5060090000000  0.4207480000000  0.5441280000000 1.0
C      1  0.4562860000000  0.4239190000000  0.4870520000000 1.0
END
