TITL C-3866674-3872-435 0.0156427243695332 125000 -282.179036845786 0 0 48 (C1) n - 1
REM
REM in /home/nfs/bkarasulu/CARBON/AIRSS/Generating-Clusters/LCBOP/Only-C1/SD-CG/FIRE-CG
REM
REM
REM
REM
REM
REM ./C.cell (11c1c37f851c82e70ff6c80c92926a4b)
REM AIRSS Version 0.9.1 bugfix July 2018 build 013d7b7c2542+ Fri, 06 Jul 2018 19:26:36 +0100
REM compiler GCC version 9.2.1 20190827 (Red Hat 9.2.1-1)
REM options -cpp -mtune=generic -march=x86-64 -g -O0 -fpre-include=/usr/include/finclude/math-vector-fortran.h
REM seed 653288351 1062775908 1365164435 407950464 -1139212466 1828201205 451738233 1326098133 -1865859580 872193869 -1740187833 -1640381657 -1960455188 2123379743 -1743124379 -902264727 -683012093 -1170952135 1821608183 531891587 1722059339 1934233001 -283318849 1824291768 1800759433 -1415108957 -1534943498 -1895980889 -1197462961 687768558 779529630 -1784219394 1622245651
REM
CELL 1.54180   50.00000   50.00000   50.00000   90.00000   90.00000   90.00000
LATT -1
SFAC C  
C      1  0.6039270000000  0.5377680000000  0.5380000000000 1.0
C      1  0.4977160000000  0.4453940000000  0.4549430000000 1.0
C      1  0.4917450000000  0.5286380000000  0.4875620000000 1.0
C      1  0.5793460000000  0.5279130000000  0.5387200000000 1.0
C      1  0.5370080000000  0.5426580000000  0.4962100000000 1.0
C      1  0.5334080000000  0.5312240000000  0.5230580000000 1.0
C      1  0.5035470000000  0.5156140000000  0.4379800000000 1.0
C      1  0.4777440000000  0.5278310000000  0.4464740000000 1.0
C      1  0.5492120000000  0.4913680000000  0.5486940000000 1.0
C      1  0.4390790000000  0.4895280000000  0.5246690000000 1.0
C      1  0.4581470000000  0.5093580000000  0.4611680000000 1.0
C      1  0.5455650000000  0.4651220000000  0.5527990000000 1.0
C      1  0.5060010000000  0.4842820000000  0.5067290000000 1.0
C      1  0.5743960000000  0.4859210000000  0.4811600000000 1.0
C      1  0.5213400000000  0.4391080000000  0.4994100000000 1.0
C      1  0.4506220000000  0.5386660000000  0.5054760000000 1.0
C      1  0.4620680000000  0.4727070000000  0.5252630000000 1.0
C      1  0.4457130000000  0.5347830000000  0.5336250000000 1.0
C      1  0.4044300000000  0.4813960000000  0.4936250000000 1.0
C      1  0.5028370000000  0.4885200000000  0.4308660000000 1.0
C      1  0.6281830000000  0.5472340000000  0.5367240000000 1.0
C      1  0.5056250000000  0.5660280000000  0.4623020000000 1.0
C      1  0.5274020000000  0.5276820000000  0.4487780000000 1.0
C      1  0.5083520000000  0.4316140000000  0.4755910000000 1.0
C      1  0.4771220000000  0.5478480000000  0.5016720000000 1.0
C      1  0.4820550000000  0.5561680000000  0.4512620000000 1.0
C      1  0.4562870000000  0.4485790000000  0.5108410000000 1.0
C      1  0.5282690000000  0.4269670000000  0.5238920000000 1.0
C      1  0.5279070000000  0.5483230000000  0.4692260000000 1.0
C      1  0.4417790000000  0.5178010000000  0.4861150000000 1.0
C      1  0.4875590000000  0.4699130000000  0.4451190000000 1.0
C      1  0.5958800000000  0.4976290000000  0.4721680000000 1.0
C      1  0.5019830000000  0.5043460000000  0.4880460000000 1.0
C      1  0.5270910000000  0.4670050000000  0.5001360000000 1.0
C      1  0.4626470000000  0.4801330000000  0.4557390000000 1.0
C      1  0.4629930000000  0.5224170000000  0.5531220000000 1.0
C      1  0.5518950000000  0.4761930000000  0.4912040000000 1.0
C      1  0.4884300000000  0.5121940000000  0.5429840000000 1.0
C      1  0.5072030000000  0.5338500000000  0.5352460000000 1.0
C      1  0.4255070000000  0.4988100000000  0.5010450000000 1.0
C      1  0.4099830000000  0.4545410000000  0.4935640000000 1.0
C      1  0.4875640000000  0.4863080000000  0.5286410000000 1.0
C      1  0.5537880000000  0.5166810000000  0.5368780000000 1.0
C      1  0.4921980000000  0.5561030000000  0.5243890000000 1.0
C      1  0.4373640000000  0.4476450000000  0.4890490000000 1.0
C      1  0.4464190000000  0.4592210000000  0.4650290000000 1.0
C      1  0.4562810000000  0.5206660000000  0.5795510000000 1.0
C      1  0.5383820000000  0.4403020000000  0.5452550000000 1.0
END
