TITL C-3866674-3872-701 3.51154477213197e-07 125000 -209.655200771683 0 0 36 (C1) n - 1
REM
REM in /home/nfs/bkarasulu/CARBON/AIRSS/Generating-Clusters/LCBOP/Only-C1/SD-CG/FIRE-CG
REM
REM
REM
REM
REM
REM ./C.cell (11c1c37f851c82e70ff6c80c92926a4b)
REM AIRSS Version 0.9.1 bugfix July 2018 build 013d7b7c2542+ Fri, 06 Jul 2018 19:26:36 +0100
REM compiler GCC version 9.2.1 20190827 (Red Hat 9.2.1-1)
REM options -cpp -mtune=generic -march=x86-64 -g -O0 -fpre-include=/usr/include/finclude/math-vector-fortran.h
REM seed -344847488 -2996839 671995644 -1413137573 1825452095 -975328604 -570528490 -229940566 -2074165047 -1454628943 1885376427 -1083548067 1199840960 -385548894 -1546981663 -957254941 -1036954582 -2066883915 -313294468 -956286157 822744141 -1880670657 -633296461 1407577111 -473780925 -1007932500 -682840954 1356656216 -354143299 1812777677 -380497490 1602895983 -916745879
REM
CELL 1.54180   50.00000   50.00000   50.00000   90.00000   90.00000   90.00000
LATT -1
SFAC C  
C      1  0.5633860000000  0.5067210000000  0.5307330000000 1.0
C      1  0.5478180000000  0.4830870000000  0.5357010000000 1.0
C      1  0.5527600000000  0.4634400000000  0.4380750000000 1.0
C      1  0.4746170000000  0.4981920000000  0.4619640000000 1.0
C      1  0.4559980000000  0.5070270000000  0.4831740000000 1.0
C      1  0.5251810000000  0.5586170000000  0.5051590000000 1.0
C      1  0.5504420000000  0.4756580000000  0.4848590000000 1.0
C      1  0.4225280000000  0.5288960000000  0.5710080000000 1.0
C      1  0.5001370000000  0.5475840000000  0.5133190000000 1.0
C      1  0.5295050000000  0.4839110000000  0.5576950000000 1.0
C      1  0.4863170000000  0.4623230000000  0.5129580000000 1.0
C      1  0.5383320000000  0.4699880000000  0.5111750000000 1.0
C      1  0.5099590000000  0.4560980000000  0.4594950000000 1.0
C      1  0.5055600000000  0.4961430000000  0.5622400000000 1.0
C      1  0.4915110000000  0.5138240000000  0.5454530000000 1.0
C      1  0.4817160000000  0.5447340000000  0.4505970000000 1.0
C      1  0.4601910000000  0.4678040000000  0.5105350000000 1.0
C      1  0.4935390000000  0.5195830000000  0.4556400000000 1.0
C      1  0.5067280000000  0.5206140000000  0.5218350000000 1.0
C      1  0.4443830000000  0.5296210000000  0.5568350000000 1.0
C      1  0.4620560000000  0.5526660000000  0.4678500000000 1.0
C      1  0.5142630000000  0.5147400000000  0.4744420000000 1.0
C      1  0.5641710000000  0.5010850000000  0.4841990000000 1.0
C      1  0.4575080000000  0.5358560000000  0.4906620000000 1.0
C      1  0.5627520000000  0.5204200000000  0.5055000000000 1.0
C      1  0.4703130000000  0.5447630000000  0.5151760000000 1.0
C      1  0.4669600000000  0.5293200000000  0.5407820000000 1.0
C      1  0.5057880000000  0.4283170000000  0.4596410000000 1.0
C      1  0.5493650000000  0.5456940000000  0.5031570000000 1.0
C      1  0.5103060000000  0.4752950000000  0.5075200000000 1.0
C      1  0.5019680000000  0.4025740000000  0.4609870000000 1.0
C      1  0.5376260000000  0.4651200000000  0.4610500000000 1.0
C      1  0.4162490000000  0.4871740000000  0.5032560000000 1.0
C      1  0.5102100000000  0.5031660000000  0.5002970000000 1.0
C      1  0.4432170000000  0.4872630000000  0.4992040000000 1.0
C      1  0.4866350000000  0.4726820000000  0.4578250000000 1.0
END
