TITL C-3866675-3766-751 -7.00507698382801e-07 125000 -1167.4214829281 0 0 189 (C1) n - 1
REM
REM in /home/nfs/bkarasulu/CARBON/AIRSS/Generating-Clusters/LCBOP/Only-C1/SD-CG/FIRE-CG
REM
REM
REM
REM
REM
REM ./C.cell (11c1c37f851c82e70ff6c80c92926a4b)
REM AIRSS Version 0.9.1 bugfix July 2018 build 013d7b7c2542+ Fri, 06 Jul 2018 19:26:36 +0100
REM compiler GCC version 9.2.1 20190827 (Red Hat 9.2.1-1)
REM options -cpp -mtune=generic -march=x86-64 -g -O0 -fpre-include=/usr/include/finclude/math-vector-fortran.h
REM seed 1877082897 1522530589 1484985079 -1357034624 -410234687 713715434 -1270688970 -665036463 497231914 1217302203 -1530562814 -894049661 1022988064 -2071600138 1112224430 -1929546951 230649507 -914646125 -1828389172 343442166 1494199085 93000785 1952118966 -1412957514 1380525013 1746237963 -2109029029 -1132161955 699165655 -1761757498 457451465 1140635864 -1207488663
REM
CELL 1.54180   50.00000   50.00000   50.00000   90.00000   90.00000   90.00000
LATT -1
SFAC C  
C      1  0.4850190000000  0.5332280000000  0.3812860000000 1.0
C      1  0.4904530000000  0.5773480000000  0.4840000000000 1.0
C      1  0.5034420000000  0.5407450000000  0.6107700000000 1.0
C      1  0.4326180000000  0.5238160000000  0.5988420000000 1.0
C      1  0.4579220000000  0.5260860000000  0.3747300000000 1.0
C      1  0.5778660000000  0.5933720000000  0.4946360000000 1.0
C      1  0.3794060000000  0.4902070000000  0.4963230000000 1.0
C      1  0.5033230000000  0.5693970000000  0.6089590000000 1.0
C      1  0.4464770000000  0.6148840000000  0.5183420000000 1.0
C      1  0.4153390000000  0.4326430000000  0.4866120000000 1.0
C      1  0.4945160000000  0.4113010000000  0.4592360000000 1.0
C      1  0.5251600000000  0.4231710000000  0.5091880000000 1.0
C      1  0.6211800000000  0.5713010000000  0.5024700000000 1.0
C      1  0.4992400000000  0.4952300000000  0.4944370000000 1.0
C      1  0.5517580000000  0.5201200000000  0.5393560000000 1.0
C      1  0.6171500000000  0.4728750000000  0.4381100000000 1.0
C      1  0.5995720000000  0.4579360000000  0.5254230000000 1.0
C      1  0.5533400000000  0.4273470000000  0.5041440000000 1.0
C      1  0.5702480000000  0.5359000000000  0.4684800000000 1.0
C      1  0.5519460000000  0.3855150000000  0.4876150000000 1.0
C      1  0.4228670000000  0.5890270000000  0.4837740000000 1.0
C      1  0.5727670000000  0.4411980000000  0.4875920000000 1.0
C      1  0.4998710000000  0.4513960000000  0.6173670000000 1.0
C      1  0.5256290000000  0.3778810000000  0.4972020000000 1.0
C      1  0.3913270000000  0.4421540000000  0.4993030000000 1.0
C      1  0.3706990000000  0.5408310000000  0.4654900000000 1.0
C      1  0.4823420000000  0.6182280000000  0.5501180000000 1.0
C      1  0.4456760000000  0.5187450000000  0.5418200000000 1.0
C      1  0.3954960000000  0.4740400000000  0.4301850000000 1.0
C      1  0.3871870000000  0.4222860000000  0.5451930000000 1.0
C      1  0.4992240000000  0.4176180000000  0.5828730000000 1.0
C      1  0.4668230000000  0.6030190000000  0.5334900000000 1.0
C      1  0.3905910000000  0.4471460000000  0.5293050000000 1.0
C      1  0.5427250000000  0.5357900000000  0.4581120000000 1.0
C      1  0.3790390000000  0.5137740000000  0.4060820000000 1.0
C      1  0.6032860000000  0.4323100000000  0.5661420000000 1.0
C      1  0.4557320000000  0.4210990000000  0.4364530000000 1.0
C      1  0.4151550000000  0.4651350000000  0.5325260000000 1.0
C      1  0.4900370000000  0.5428800000000  0.4078170000000 1.0
C      1  0.4539750000000  0.5850420000000  0.4177600000000 1.0
C      1  0.5940170000000  0.4829890000000  0.6224220000000 1.0
C      1  0.4714940000000  0.5760980000000  0.4629710000000 1.0
C      1  0.4358160000000  0.4743350000000  0.5135990000000 1.0
C      1  0.4870710000000  0.4736660000000  0.6064980000000 1.0
C      1  0.4832800000000  0.4541690000000  0.4767620000000 1.0
C      1  0.5506300000000  0.3987570000000  0.4613590000000 1.0
C      1  0.3926180000000  0.4510160000000  0.4129300000000 1.0
C      1  0.4542470000000  0.5328410000000  0.4483100000000 1.0
C      1  0.4551830000000  0.4784430000000  0.3940030000000 1.0
C      1  0.4430740000000  0.4820730000000  0.4411080000000 1.0
C      1  0.6254190000000  0.5260700000000  0.5266210000000 1.0
C      1  0.5777430000000  0.5268950000000  0.6007210000000 1.0
C      1  0.4666900000000  0.4072700000000  0.4596020000000 1.0
C      1  0.5965940000000  0.4365010000000  0.4724840000000 1.0
C      1  0.4945400000000  0.5515850000000  0.5644410000000 1.0
C      1  0.4226360000000  0.5044220000000  0.4755720000000 1.0
C      1  0.5961460000000  0.5296570000000  0.5790890000000 1.0
C      1  0.5318290000000  0.6268270000000  0.4232810000000 1.0
C      1  0.5396290000000  0.4224280000000  0.4489600000000 1.0
C      1  0.4357160000000  0.4183040000000  0.5017280000000 1.0
C      1  0.5464110000000  0.4776860000000  0.5063350000000 1.0
C      1  0.4837360000000  0.3949160000000  0.5788500000000 1.0
C      1  0.6043170000000  0.4425780000000  0.5907740000000 1.0
C      1  0.4464570000000  0.5416750000000  0.5583570000000 1.0
C      1  0.4383500000000  0.5455290000000  0.3842390000000 1.0
C      1  0.3853010000000  0.5114930000000  0.5463090000000 1.0
C      1  0.5129580000000  0.4293580000000  0.6061100000000 1.0
C      1  0.4995830000000  0.4951750000000  0.5913930000000 1.0
C      1  0.5322070000000  0.5726980000000  0.5425570000000 1.0
C      1  0.5516080000000  0.4322060000000  0.4048340000000 1.0
C      1  0.5393200000000  0.4334720000000  0.5682740000000 1.0
C      1  0.4472690000000  0.5589680000000  0.4078830000000 1.0
C      1  0.4111380000000  0.5425030000000  0.3788150000000 1.0
C      1  0.6181130000000  0.5334720000000  0.4776680000000 1.0
C      1  0.6096490000000  0.5048820000000  0.5384660000000 1.0
C      1  0.5025790000000  0.4360270000000  0.4121560000000 1.0
C      1  0.5404730000000  0.6006830000000  0.5866450000000 1.0
C      1  0.4755270000000  0.5879250000000  0.4369000000000 1.0
C      1  0.5199860000000  0.5891690000000  0.6002110000000 1.0
C      1  0.5129170000000  0.4970690000000  0.5407960000000 1.0
C      1  0.4880270000000  0.4699610000000  0.4983650000000 1.0
C      1  0.4520810000000  0.4985030000000  0.3764310000000 1.0
C      1  0.4518740000000  0.5553400000000  0.4659480000000 1.0
C      1  0.4198560000000  0.4414890000000  0.4595040000000 1.0
C      1  0.4970520000000  0.4451630000000  0.5408640000000 1.0
C      1  0.4851940000000  0.5197660000000  0.6020980000000 1.0
C      1  0.5221600000000  0.5529520000000  0.5598390000000 1.0
C      1  0.3828090000000  0.5004170000000  0.4304740000000 1.0
C      1  0.5188250000000  0.4959780000000  0.4733010000000 1.0
C      1  0.5990640000000  0.4858390000000  0.5195810000000 1.0
C      1  0.5341050000000  0.4900970000000  0.4090700000000 1.0
C      1  0.5725510000000  0.4883720000000  0.5689360000000 1.0
C      1  0.5294500000000  0.4252050000000  0.4216640000000 1.0
C      1  0.4088910000000  0.4287730000000  0.4152400000000 1.0
C      1  0.3803130000000  0.5158220000000  0.4549240000000 1.0
C      1  0.5725630000000  0.5889590000000  0.5228150000000 1.0
C      1  0.5081750000000  0.3992280000000  0.5060010000000 1.0
C      1  0.5507140000000  0.5308660000000  0.5928910000000 1.0
C      1  0.4360980000000  0.4281490000000  0.5572900000000 1.0
C      1  0.4724290000000  0.3852970000000  0.5565640000000 1.0
C      1  0.5951360000000  0.5061660000000  0.5627640000000 1.0
C      1  0.5830770000000  0.5009210000000  0.4137290000000 1.0
C      1  0.3752290000000  0.4940330000000  0.5257450000000 1.0
C      1  0.3944190000000  0.5040520000000  0.4764660000000 1.0
C      1  0.4227380000000  0.5371920000000  0.5751100000000 1.0
C      1  0.5593580000000  0.5463280000000  0.4005900000000 1.0
C      1  0.4896620000000  0.4898440000000  0.4273310000000 1.0
C      1  0.5806580000000  0.5961330000000  0.5501380000000 1.0
C      1  0.4566670000000  0.5097750000000  0.6062090000000 1.0
C      1  0.5902870000000  0.4999840000000  0.4962560000000 1.0
C      1  0.5606450000000  0.6050230000000  0.5689820000000 1.0
C      1  0.4313450000000  0.5620220000000  0.4836760000000 1.0
C      1  0.5425240000000  0.5330390000000  0.5649540000000 1.0
C      1  0.5016860000000  0.5389690000000  0.5128920000000 1.0
C      1  0.5551350000000  0.5670230000000  0.5266150000000 1.0
C      1  0.5577770000000  0.6036410000000  0.4768410000000 1.0
C      1  0.3690780000000  0.4675140000000  0.5359120000000 1.0
C      1  0.6099520000000  0.4560160000000  0.4574540000000 1.0
C      1  0.5027810000000  0.5872040000000  0.4270550000000 1.0
C      1  0.4652610000000  0.5407960000000  0.4232830000000 1.0
C      1  0.4986330000000  0.5111320000000  0.5186990000000 1.0
C      1  0.5226880000000  0.4754110000000  0.3875750000000 1.0
C      1  0.4187640000000  0.4676750000000  0.4469460000000 1.0
C      1  0.5406480000000  0.4947650000000  0.5292680000000 1.0
C      1  0.5401790000000  0.4322070000000  0.5960470000000 1.0
C      1  0.5588770000000  0.4792090000000  0.4515130000000 1.0
C      1  0.5118700000000  0.4305020000000  0.5593010000000 1.0
C      1  0.5664350000000  0.4545860000000  0.4080390000000 1.0
C      1  0.4793230000000  0.3976680000000  0.5073780000000 1.0
C      1  0.4414900000000  0.4590940000000  0.6001150000000 1.0
C      1  0.6280850000000  0.5433490000000  0.5039060000000 1.0
C      1  0.4857490000000  0.5632710000000  0.5091970000000 1.0
C      1  0.5952920000000  0.5512240000000  0.4687170000000 1.0
C      1  0.5361530000000  0.5589280000000  0.4038220000000 1.0
C      1  0.4648270000000  0.3970450000000  0.5324670000000 1.0
C      1  0.3978460000000  0.5349120000000  0.5585020000000 1.0
C      1  0.4275110000000  0.4248260000000  0.4367420000000 1.0
C      1  0.4690780000000  0.5581920000000  0.5542410000000 1.0
C      1  0.6086310000000  0.4917900000000  0.4211630000000 1.0
C      1  0.4417230000000  0.4153230000000  0.5317220000000 1.0
C      1  0.5543460000000  0.5388550000000  0.5160760000000 1.0
C      1  0.5670610000000  0.4010420000000  0.5078150000000 1.0
C      1  0.4653590000000  0.4718400000000  0.4220300000000 1.0
C      1  0.4591210000000  0.4749950000000  0.5316330000000 1.0
C      1  0.5303960000000  0.5314780000000  0.6123620000000 1.0
C      1  0.5174600000000  0.5781220000000  0.4752770000000 1.0
C      1  0.5175260000000  0.4913370000000  0.5694720000000 1.0
C      1  0.4248720000000  0.4740450000000  0.5589890000000 1.0
C      1  0.3758590000000  0.5521150000000  0.4900210000000 1.0
C      1  0.4352960000000  0.5229800000000  0.5158220000000 1.0
C      1  0.4820350000000  0.4618780000000  0.5244400000000 1.0
C      1  0.5075880000000  0.4529210000000  0.3890210000000 1.0
C      1  0.4291420000000  0.6104020000000  0.4985760000000 1.0
C      1  0.4323120000000  0.4512760000000  0.5745830000000 1.0
C      1  0.6075920000000  0.4112820000000  0.4719680000000 1.0
C      1  0.5850380000000  0.5082090000000  0.6205820000000 1.0
C      1  0.5293260000000  0.5530730000000  0.4762350000000 1.0
C      1  0.3910150000000  0.5560710000000  0.5398690000000 1.0
C      1  0.5611010000000  0.4817200000000  0.4206490000000 1.0
C      1  0.5277840000000  0.5415040000000  0.5017150000000 1.0
C      1  0.3944820000000  0.5526960000000  0.5118560000000 1.0
C      1  0.5329110000000  0.5986250000000  0.4635570000000 1.0
C      1  0.6008250000000  0.5794640000000  0.5613030000000 1.0
C      1  0.5155440000000  0.5017580000000  0.4272370000000 1.0
C      1  0.4416160000000  0.5078440000000  0.4539180000000 1.0
C      1  0.5394580000000  0.4731150000000  0.4753180000000 1.0
C      1  0.5293810000000  0.4443160000000  0.4655830000000 1.0
C      1  0.4587850000000  0.4799400000000  0.6085030000000 1.0
C      1  0.5886130000000  0.4078920000000  0.5255810000000 1.0
C      1  0.6115040000000  0.5059410000000  0.4779130000000 1.0
C      1  0.5251830000000  0.5134410000000  0.4512980000000 1.0
C      1  0.4334640000000  0.4992860000000  0.5004120000000 1.0
C      1  0.5023360000000  0.4370990000000  0.4671020000000 1.0
C      1  0.6010420000000  0.4599420000000  0.6108120000000 1.0
C      1  0.5458760000000  0.4844660000000  0.5746450000000 1.0
C      1  0.4714180000000  0.5749980000000  0.5310950000000 1.0
C      1  0.4478050000000  0.4918170000000  0.5518630000000 1.0
C      1  0.4743930000000  0.4408770000000  0.4233270000000 1.0
C      1  0.5980910000000  0.4322010000000  0.5383690000000 1.0
C      1  0.5711070000000  0.5224850000000  0.4953470000000 1.0
C      1  0.5985960000000  0.5764000000000  0.4845820000000 1.0
C      1  0.6053400000000  0.5549970000000  0.5713400000000 1.0
C      1  0.4216790000000  0.5459130000000  0.5047250000000 1.0
C      1  0.5098860000000  0.5630880000000  0.4127090000000 1.0
C      1  0.3893520000000  0.5297670000000  0.3874450000000 1.0
C      1  0.5230590000000  0.6051930000000  0.4374210000000 1.0
C      1  0.3750920000000  0.4627770000000  0.4878760000000 1.0
C      1  0.4582900000000  0.4054880000000  0.4871370000000 1.0
C      1  0.5765010000000  0.5262150000000  0.4038350000000 1.0
END
