TITL C-3866674-3872-194 -1280.78055249256 125000 -1015.83429115265 0 0 166 (C1) n - 1
REM
REM in /home/nfs/bkarasulu/CARBON/AIRSS/Generating-Clusters/LCBOP/Only-C1/SD-CG/HFTN-CG/FIRE-CG
REM
REM
REM
REM
REM
REM ./C.cell (11c1c37f851c82e70ff6c80c92926a4b)
REM AIRSS Version 0.9.1 bugfix July 2018 build 013d7b7c2542+ Fri, 06 Jul 2018 19:26:36 +0100
REM compiler GCC version 9.2.1 20190827 (Red Hat 9.2.1-1)
REM options -cpp -mtune=generic -march=x86-64 -g -O0 -fpre-include=/usr/include/finclude/math-vector-fortran.h
REM seed -1907291564 220512223 -1840077336 623205271 -1989019778 1926385584 750824568 -1140099028 1945203534 868896747 85439463 1749431962 -360206820 1714208730 -458931824 -1136967263 755946022 -1754633185 1930546077 1200651790 -1083794825 955823258 609045063 -725713147 1515619296 493528684 1491528256 -178105495 1274931236 1355391759 -625985072 1126878916 -485669027
REM
CELL 1.54180   50.00000   50.00000   50.00000   90.00000   90.00000   90.00000
LATT -1
SFAC C  
C      1  0.5647650000000  0.4426640000000  0.4370780000000 1.0
C      1  0.5008690000000  0.4602340000000  0.4923040000000 1.0
C      1  0.4697300000000  0.4305750000000  0.5107340000000 1.0
C      1  0.3962510000000  0.5426360000000  0.4972520000000 1.0
C      1  0.4227180000000  0.4406610000000  0.5207010000000 1.0
C      1  0.5805300000000  0.5892350000000  0.4095550000000 1.0
C      1  0.4968030000000  0.4927450000000  0.5831040000000 1.0
C      1  0.4622570000000  0.6030640000000  0.5313890000000 1.0
C      1  0.6345940000000  0.5157990000000  0.4714050000000 1.0
C      1  0.5452760000000  0.4679860000000  0.6075930000000 1.0
C      1  0.5158230000000  0.5065980000000  0.5685160000000 1.0
C      1  0.5712960000000  0.4399550000000  0.4652890000000 1.0
C      1  0.5366540000000  0.4959860000000  0.4973940000000 1.0
C      1  0.5885280000000  0.4608900000000  0.4781560000000 1.0
C      1  0.6141140000000  0.5011440000000  0.5134150000000 1.0
C      1  0.5221330000000  0.3949320000000  0.4483490000000 1.0
C      1  0.5029080000000  0.3646460000000  0.4785080000000 1.0
C      1  0.5225800000000  0.4283330000000  0.5684440000000 1.0
C      1  0.4655130000000  0.6001110000000  0.5041490000000 1.0
C      1  0.5067800000000  0.3708770000000  0.4519850000000 1.0
C      1  0.3670930000000  0.5032250000000  0.5053680000000 1.0
C      1  0.5312200000000  0.4662190000000  0.4014150000000 1.0
C      1  0.4233440000000  0.5690810000000  0.4617720000000 1.0
C      1  0.5046070000000  0.5181420000000  0.5459130000000 1.0
C      1  0.4724460000000  0.4896550000000  0.5193390000000 1.0
C      1  0.5566380000000  0.5353690000000  0.4156950000000 1.0
C      1  0.4809560000000  0.4843650000000  0.4395900000000 1.0
C      1  0.4951300000000  0.4365140000000  0.3928070000000 1.0
C      1  0.5595950000000  0.6029620000000  0.4232960000000 1.0
C      1  0.5257500000000  0.5513720000000  0.5870550000000 1.0
C      1  0.5083670000000  0.3988560000000  0.5179440000000 1.0
C      1  0.5104600000000  0.5058940000000  0.4990000000000 1.0
C      1  0.5013990000000  0.5061630000000  0.4469410000000 1.0
C      1  0.4774120000000  0.4511230000000  0.5556710000000 1.0
C      1  0.5714720000000  0.5539030000000  0.5280270000000 1.0
C      1  0.5111660000000  0.5584040000000  0.5052820000000 1.0
C      1  0.5838300000000  0.4380460000000  0.6152110000000 1.0
C      1  0.4949970000000  0.5442780000000  0.5466780000000 1.0
C      1  0.5799650000000  0.5986240000000  0.4662300000000 1.0
C      1  0.3747530000000  0.4848050000000  0.5238470000000 1.0
C      1  0.4884090000000  0.5571530000000  0.5228000000000 1.0
C      1  0.5538290000000  0.5090080000000  0.5151710000000 1.0
C      1  0.4580820000000  0.5579970000000  0.5984260000000 1.0
C      1  0.4950240000000  0.5123120000000  0.4764060000000 1.0
C      1  0.4489830000000  0.5009430000000  0.5296060000000 1.0
C      1  0.4803420000000  0.5412170000000  0.3986430000000 1.0
C      1  0.4811750000000  0.5589380000000  0.4726110000000 1.0
C      1  0.5285660000000  0.4988350000000  0.4353300000000 1.0
C      1  0.5983610000000  0.5471710000000  0.5315120000000 1.0
C      1  0.4837590000000  0.5613750000000  0.6098660000000 1.0
C      1  0.4484390000000  0.4054440000000  0.4021010000000 1.0
C      1  0.4464230000000  0.5858270000000  0.4580170000000 1.0
C      1  0.4467080000000  0.5216430000000  0.4854220000000 1.0
C      1  0.5480660000000  0.4967750000000  0.6069620000000 1.0
C      1  0.4967320000000  0.6013760000000  0.6434280000000 1.0
C      1  0.4335120000000  0.3958980000000  0.5023110000000 1.0
C      1  0.5880330000000  0.5548030000000  0.4442190000000 1.0
C      1  0.5466060000000  0.5499210000000  0.5663940000000 1.0
C      1  0.5998090000000  0.4569090000000  0.5046680000000 1.0
C      1  0.4344960000000  0.5157790000000  0.5106780000000 1.0
C      1  0.4850710000000  0.4439240000000  0.5295680000000 1.0
C      1  0.6135030000000  0.5254240000000  0.5274930000000 1.0
C      1  0.5278610000000  0.6052520000000  0.5118050000000 1.0
C      1  0.4634990000000  0.5863320000000  0.4333220000000 1.0
C      1  0.5152510000000  0.3825200000000  0.4962030000000 1.0
C      1  0.4627890000000  0.5078790000000  0.6100870000000 1.0
C      1  0.4676830000000  0.5116580000000  0.3972990000000 1.0
C      1  0.5937430000000  0.4890950000000  0.4688550000000 1.0
C      1  0.5563900000000  0.5212490000000  0.5629200000000 1.0
C      1  0.4902850000000  0.5131480000000  0.6030470000000 1.0
C      1  0.5004020000000  0.5587900000000  0.4503730000000 1.0
C      1  0.4265330000000  0.4937610000000  0.4280000000000 1.0
C      1  0.5059030000000  0.4071090000000  0.5640930000000 1.0
C      1  0.4570250000000  0.5931530000000  0.5564610000000 1.0
C      1  0.5493060000000  0.4927150000000  0.4526630000000 1.0
C      1  0.5682400000000  0.4322510000000  0.5301660000000 1.0
C      1  0.5370210000000  0.5514540000000  0.4954540000000 1.0
C      1  0.3811430000000  0.4548100000000  0.4734310000000 1.0
C      1  0.4609350000000  0.4778150000000  0.6104230000000 1.0
C      1  0.4393960000000  0.4658440000000  0.5940140000000 1.0
C      1  0.5096070000000  0.5367080000000  0.3934780000000 1.0
C      1  0.4891140000000  0.6014020000000  0.4416950000000 1.0
C      1  0.4257460000000  0.4557400000000  0.4940720000000 1.0
C      1  0.5143190000000  0.6134090000000  0.4891280000000 1.0
C      1  0.3729690000000  0.5266850000000  0.4923890000000 1.0
C      1  0.4903080000000  0.5818930000000  0.6273580000000 1.0
C      1  0.5840090000000  0.4582980000000  0.5704520000000 1.0
C      1  0.5752260000000  0.5042640000000  0.4518840000000 1.0
C      1  0.4580690000000  0.4453430000000  0.4599620000000 1.0
C      1  0.5575710000000  0.5107110000000  0.6283920000000 1.0
C      1  0.4417460000000  0.3990050000000  0.4768150000000 1.0
C      1  0.4421500000000  0.5058240000000  0.5563100000000 1.0
C      1  0.5557470000000  0.5370250000000  0.5113590000000 1.0
C      1  0.5709900000000  0.4549920000000  0.5974250000000 1.0
C      1  0.4344710000000  0.5263640000000  0.5737390000000 1.0
C      1  0.4251830000000  0.5448930000000  0.4466270000000 1.0
C      1  0.5110240000000  0.4175040000000  0.4352840000000 1.0
C      1  0.5335470000000  0.5919590000000  0.4243330000000 1.0
C      1  0.5135200000000  0.5083690000000  0.3901600000000 1.0
C      1  0.5506310000000  0.4501210000000  0.4149300000000 1.0
C      1  0.4889110000000  0.3992960000000  0.5416300000000 1.0
C      1  0.4501610000000  0.4531510000000  0.4138690000000 1.0
C      1  0.5023760000000  0.5409100000000  0.6017600000000 1.0
C      1  0.4472290000000  0.5296270000000  0.5996330000000 1.0
C      1  0.4288410000000  0.5229260000000  0.4638890000000 1.0
C      1  0.5548070000000  0.4997160000000  0.5420280000000 1.0
C      1  0.5404550000000  0.5084930000000  0.5829060000000 1.0
C      1  0.4953000000000  0.4152440000000  0.4114920000000 1.0
C      1  0.4526580000000  0.4592230000000  0.4842800000000 1.0
C      1  0.5655650000000  0.4520010000000  0.5495640000000 1.0
C      1  0.6085010000000  0.4753340000000  0.5253170000000 1.0
C      1  0.4391370000000  0.5417950000000  0.4221930000000 1.0
C      1  0.4550620000000  0.4349240000000  0.5624980000000 1.0
C      1  0.4322720000000  0.4514340000000  0.5692860000000 1.0
C      1  0.5002720000000  0.5341980000000  0.4372980000000 1.0
C      1  0.5444960000000  0.4715650000000  0.5495280000000 1.0
C      1  0.5189630000000  0.4598290000000  0.4709750000000 1.0
C      1  0.4426270000000  0.5135910000000  0.4135010000000 1.0
C      1  0.6143140000000  0.5025280000000  0.4842780000000 1.0
C      1  0.5243980000000  0.4232440000000  0.5162410000000 1.0
C      1  0.5096680000000  0.4468540000000  0.5159700000000 1.0
C      1  0.4143540000000  0.5639260000000  0.4893610000000 1.0
C      1  0.5031220000000  0.4631510000000  0.3915410000000 1.0
C      1  0.5562210000000  0.4196140000000  0.4813600000000 1.0
C      1  0.4097900000000  0.5275240000000  0.5183330000000 1.0
C      1  0.4657950000000  0.5834670000000  0.4801870000000 1.0
C      1  0.5497760000000  0.5626060000000  0.4734750000000 1.0
C      1  0.5538310000000  0.5690360000000  0.5453450000000 1.0
C      1  0.4070270000000  0.4641950000000  0.4728360000000 1.0
C      1  0.5753340000000  0.5705430000000  0.4648500000000 1.0
C      1  0.4296220000000  0.5529870000000  0.5637570000000 1.0
C      1  0.5400810000000  0.5913490000000  0.5323960000000 1.0
C      1  0.4891830000000  0.4911010000000  0.3890510000000 1.0
C      1  0.4142600000000  0.4550840000000  0.5453390000000 1.0
C      1  0.3966170000000  0.5263050000000  0.5423440000000 1.0
C      1  0.5400150000000  0.4790510000000  0.4751300000000 1.0
C      1  0.4883410000000  0.4640780000000  0.6176060000000 1.0
C      1  0.5374120000000  0.3998930000000  0.4720070000000 1.0
C      1  0.5518270000000  0.4240200000000  0.5093450000000 1.0
C      1  0.5167400000000  0.4603340000000  0.6158500000000 1.0
C      1  0.5691530000000  0.6150940000000  0.4473670000000 1.0
C      1  0.4601370000000  0.5593170000000  0.5182730000000 1.0
C      1  0.4967550000000  0.5034680000000  0.5233800000000 1.0
C      1  0.4958210000000  0.4673190000000  0.5698180000000 1.0
C      1  0.4334980000000  0.4126170000000  0.5253220000000 1.0
C      1  0.5756430000000  0.5297510000000  0.4371400000000 1.0
C      1  0.4396650000000  0.4310040000000  0.4026960000000 1.0
C      1  0.5223140000000  0.4569640000000  0.5635680000000 1.0
C      1  0.4733580000000  0.5313630000000  0.4800570000000 1.0
C      1  0.5105070000000  0.5821300000000  0.4369100000000 1.0
C      1  0.5141260000000  0.4420020000000  0.4495960000000 1.0
C      1  0.4354460000000  0.5666330000000  0.5091550000000 1.0
C      1  0.5313410000000  0.4941120000000  0.4076140000000 1.0
C      1  0.4742870000000  0.4719320000000  0.4965660000000 1.0
C      1  0.6060250000000  0.4698900000000  0.5543380000000 1.0
C      1  0.5352870000000  0.5460630000000  0.4024270000000 1.0
C      1  0.4550670000000  0.4104650000000  0.5461690000000 1.0
C      1  0.4735540000000  0.3973740000000  0.4083490000000 1.0
C      1  0.4156500000000  0.4793480000000  0.4490730000000 1.0
C      1  0.4481970000000  0.5725650000000  0.5742940000000 1.0
C      1  0.5962230000000  0.5703020000000  0.4214570000000 1.0
C      1  0.4988830000000  0.6155650000000  0.4661120000000 1.0
C      1  0.4619460000000  0.5601840000000  0.4152580000000 1.0
C      1  0.4522750000000  0.4176830000000  0.4605610000000 1.0
C      1  0.3912490000000  0.4713730000000  0.5407130000000 1.0
C      1  0.4642300000000  0.4612520000000  0.4370930000000 1.0
END
