TITL C-3866670-4165-51 -0.00131741624141562 125000 -694.580505047168 0 0 115 (C1) n - 1
REM
REM in /home/nfs/bkarasulu/CARBON/AIRSS/Generating-Clusters/LCBOP/Only-C1/SD-CG/HFTN-CG/FIRE-CG
REM
REM
REM
REM
REM
REM ./C.cell (11c1c37f851c82e70ff6c80c92926a4b)
REM AIRSS Version 0.9.1 bugfix July 2018 build 013d7b7c2542+ Fri, 06 Jul 2018 19:26:36 +0100
REM compiler GCC version 9.2.1 20190827 (Red Hat 9.2.1-1)
REM options -cpp -mtune=generic -march=x86-64 -g -O0 -fpre-include=/usr/include/finclude/math-vector-fortran.h
REM seed 20686731 953453835 -1613583174 -1689361936 1886741253 749006950 -1677646709 -1357555893 -843675110 -1439531398 -971620500 437772 -1550927804 -1470597586 -956974037 -575626738 -452189358 -238912171 -2048975546 1809532197 1643287021 1686492258 158327982 687732117 1710867465 -252136737 -1177905707 -1422373292 -1390608039 -252938660 -1104274834 1356388278 705402589
REM
CELL 1.54180   50.00000   50.00000   50.00000   90.00000   90.00000   90.00000
LATT -1
SFAC C  
C      1  0.5868040000000  0.5290260000000  0.4502740000000 1.0
C      1  0.4506330000000  0.4342220000000  0.5882310000000 1.0
C      1  0.4799970000000  0.4105550000000  0.4543910000000 1.0
C      1  0.5036270000000  0.4126870000000  0.5242860000000 1.0
C      1  0.5241640000000  0.4356360000000  0.5783030000000 1.0
C      1  0.5080280000000  0.4650920000000  0.5295270000000 1.0
C      1  0.4732060000000  0.4767390000000  0.5914910000000 1.0
C      1  0.4752440000000  0.4484030000000  0.5850310000000 1.0
C      1  0.4310690000000  0.4687720000000  0.4321620000000 1.0
C      1  0.4777550000000  0.4627690000000  0.5234550000000 1.0
C      1  0.5178430000000  0.4969430000000  0.4889960000000 1.0
C      1  0.5325600000000  0.4551310000000  0.4406270000000 1.0
C      1  0.5457950000000  0.3855900000000  0.3760100000000 1.0
C      1  0.5311150000000  0.5344910000000  0.5373940000000 1.0
C      1  0.5039920000000  0.4135450000000  0.4973820000000 1.0
C      1  0.4359900000000  0.4762590000000  0.5526830000000 1.0
C      1  0.4581630000000  0.5016300000000  0.5865640000000 1.0
C      1  0.5295240000000  0.5171400000000  0.5844070000000 1.0
C      1  0.4218270000000  0.5622830000000  0.4838970000000 1.0
C      1  0.4309420000000  0.4954470000000  0.4315070000000 1.0
C      1  0.5232800000000  0.5475570000000  0.6211630000000 1.0
C      1  0.4142080000000  0.5503710000000  0.4590140000000 1.0
C      1  0.3873860000000  0.5446890000000  0.4538020000000 1.0
C      1  0.5191950000000  0.4388260000000  0.4571110000000 1.0
C      1  0.4726140000000  0.5246160000000  0.5755480000000 1.0
C      1  0.5192160000000  0.5521210000000  0.4760330000000 1.0
C      1  0.4575110000000  0.4555140000000  0.5023440000000 1.0
C      1  0.6344200000000  0.5040490000000  0.5070170000000 1.0
C      1  0.5408710000000  0.4996510000000  0.5645260000000 1.0
C      1  0.4920780000000  0.4131940000000  0.5502700000000 1.0
C      1  0.5618260000000  0.4341400000000  0.3836710000000 1.0
C      1  0.5735130000000  0.4410770000000  0.5206550000000 1.0
C      1  0.5558510000000  0.5918030000000  0.4819570000000 1.0
C      1  0.5623780000000  0.4755340000000  0.4852980000000 1.0
C      1  0.4341490000000  0.5447500000000  0.4393830000000 1.0
C      1  0.4438220000000  0.4044680000000  0.5501680000000 1.0
C      1  0.5412650000000  0.5467060000000  0.4940550000000 1.0
C      1  0.4703450000000  0.3953340000000  0.5530600000000 1.0
C      1  0.4611690000000  0.5506460000000  0.5702740000000 1.0
C      1  0.4832930000000  0.3854640000000  0.4424230000000 1.0
C      1  0.4856830000000  0.5761270000000  0.5352390000000 1.0
C      1  0.4284420000000  0.4989310000000  0.4904660000000 1.0
C      1  0.5426290000000  0.5173380000000  0.4201540000000 1.0
C      1  0.5658540000000  0.4362970000000  0.5474180000000 1.0
C      1  0.4127510000000  0.4757230000000  0.5348620000000 1.0
C      1  0.6100530000000  0.5125010000000  0.5032490000000 1.0
C      1  0.5117970000000  0.5634890000000  0.5772370000000 1.0
C      1  0.5975530000000  0.4322600000000  0.5111210000000 1.0
C      1  0.5826240000000  0.4802790000000  0.4657890000000 1.0
C      1  0.5816410000000  0.5313490000000  0.5466770000000 1.0
C      1  0.5584960000000  0.4954780000000  0.4273040000000 1.0
C      1  0.4615450000000  0.5261840000000  0.5154210000000 1.0
C      1  0.5382470000000  0.5564650000000  0.5212740000000 1.0
C      1  0.4609950000000  0.4799220000000  0.5395000000000 1.0
C      1  0.5552180000000  0.4551460000000  0.5039360000000 1.0
C      1  0.4345080000000  0.5877810000000  0.4831610000000 1.0
C      1  0.4462530000000  0.5489960000000  0.5236360000000 1.0
C      1  0.5843510000000  0.5541100000000  0.4611050000000 1.0
C      1  0.5663030000000  0.5098970000000  0.5544120000000 1.0
C      1  0.4353370000000  0.4382970000000  0.5112050000000 1.0
C      1  0.4666580000000  0.5068260000000  0.5351120000000 1.0
C      1  0.4413500000000  0.4449720000000  0.4382670000000 1.0
C      1  0.5304800000000  0.6018390000000  0.4861800000000 1.0
C      1  0.4294650000000  0.5792250000000  0.4054340000000 1.0
C      1  0.5575220000000  0.4094160000000  0.3749550000000 1.0
C      1  0.5850240000000  0.5206350000000  0.4993250000000 1.0
C      1  0.5098590000000  0.3622820000000  0.4046060000000 1.0
C      1  0.5497850000000  0.4686490000000  0.4226550000000 1.0
C      1  0.5173750000000  0.5552820000000  0.4478290000000 1.0
C      1  0.4349270000000  0.4180440000000  0.5733430000000 1.0
C      1  0.4942270000000  0.5543130000000  0.4905210000000 1.0
C      1  0.5013790000000  0.4211530000000  0.4702020000000 1.0
C      1  0.4578100000000  0.4263580000000  0.4477680000000 1.0
C      1  0.5801230000000  0.5797870000000  0.5528020000000 1.0
C      1  0.4057340000000  0.5047140000000  0.5330300000000 1.0
C      1  0.4937120000000  0.3686040000000  0.4247440000000 1.0
C      1  0.4467870000000  0.4786930000000  0.4879840000000 1.0
C      1  0.5489070000000  0.4348730000000  0.5680320000000 1.0
C      1  0.4370940000000  0.4135920000000  0.5243760000000 1.0
C      1  0.5797180000000  0.5011470000000  0.4460040000000 1.0
C      1  0.5021240000000  0.6011220000000  0.4929530000000 1.0
C      1  0.4797140000000  0.6144700000000  0.4816020000000 1.0
C      1  0.4714890000000  0.5739010000000  0.4285360000000 1.0
C      1  0.4877800000000  0.5161930000000  0.5524970000000 1.0
C      1  0.5588700000000  0.4547860000000  0.4000940000000 1.0
C      1  0.4829370000000  0.5297510000000  0.4976930000000 1.0
C      1  0.5276670000000  0.4543180000000  0.5114680000000 1.0
C      1  0.3626110000000  0.5380090000000  0.4492600000000 1.0
C      1  0.5094370000000  0.5179840000000  0.5343200000000 1.0
C      1  0.5781720000000  0.5726510000000  0.4827400000000 1.0
C      1  0.4141240000000  0.5172900000000  0.5081900000000 1.0
C      1  0.4124570000000  0.5140900000000  0.5604350000000 1.0
C      1  0.5029020000000  0.5116470000000  0.5068650000000 1.0
C      1  0.4326220000000  0.4971610000000  0.5734810000000 1.0
C      1  0.4538650000000  0.6062510000000  0.4800270000000 1.0
C      1  0.5286350000000  0.3683980000000  0.3868090000000 1.0
C      1  0.5453190000000  0.4982890000000  0.4869050000000 1.0
C      1  0.5316500000000  0.5394520000000  0.4298800000000 1.0
C      1  0.4448290000000  0.5664000000000  0.4240530000000 1.0
C      1  0.5876330000000  0.5578980000000  0.5362450000000 1.0
C      1  0.4225270000000  0.5457590000000  0.5075070000000 1.0
C      1  0.4456740000000  0.5188970000000  0.4361140000000 1.0
C      1  0.5089520000000  0.5772510000000  0.5524720000000 1.0
C      1  0.5228220000000  0.4800000000000  0.5512260000000 1.0
C      1  0.4729480000000  0.5160640000000  0.4377990000000 1.0
C      1  0.4964300000000  0.5707870000000  0.4372050000000 1.0
C      1  0.4118280000000  0.4535510000000  0.5177180000000 1.0
C      1  0.5898130000000  0.5660070000000  0.5085140000000 1.0
C      1  0.5578550000000  0.5231140000000  0.4921460000000 1.0
C      1  0.4607590000000  0.5634840000000  0.5440710000000 1.0
C      1  0.4923550000000  0.5776310000000  0.5069220000000 1.0
C      1  0.5338160000000  0.5798810000000  0.5378260000000 1.0
C      1  0.5215290000000  0.5427180000000  0.5942140000000 1.0
C      1  0.5561810000000  0.5920460000000  0.5498270000000 1.0
C      1  0.4967900000000  0.4329020000000  0.5716590000000 1.0
END
