TITL C-3866669-3764-211 0.000142565986992061 125000 -448.455303950733 0 0 74 (C1) n - 1
REM
REM in /home/nfs/bkarasulu/CARBON/AIRSS/Generating-Clusters/LCBOP/Only-C1/SD-CG/HFTN-CG/FIRE-CG
REM
REM
REM
REM
REM
REM ./C.cell (11c1c37f851c82e70ff6c80c92926a4b)
REM AIRSS Version 0.9.1 bugfix July 2018 build 013d7b7c2542+ Fri, 06 Jul 2018 19:26:36 +0100
REM compiler GCC version 9.2.1 20190827 (Red Hat 9.2.1-1)
REM options -cpp -mtune=generic -march=x86-64 -g -O0 -fpre-include=/usr/include/finclude/math-vector-fortran.h
REM seed 551014161 -1689287474 -381194174 802262224 -753729733 1865374913 -1311599209 -1713105758 -69880498 1096417977 -1648304903 2083021469 684757502 -1549804540 2126433862 -711039627 -398270812 -948405894 913126244 1968238119 1097870450 -320945730 1325226444 111632613 1761340096 -1056787494 427816577 -792200374 -1625465758 -1277457500 510677091 -1673135357 1100124851
REM
CELL 1.54180   50.00000   50.00000   50.00000   90.00000   90.00000   90.00000
LATT -1
SFAC C  
C      1  0.5801080000000  0.6292960000000  0.5145610000000 1.0
C      1  0.4927460000000  0.4994730000000  0.5168160000000 1.0
C      1  0.5725230000000  0.5179000000000  0.5400170000000 1.0
C      1  0.4326350000000  0.4623040000000  0.4998040000000 1.0
C      1  0.5352530000000  0.4896850000000  0.4734880000000 1.0
C      1  0.4710400000000  0.4952820000000  0.4710180000000 1.0
C      1  0.5803840000000  0.5261880000000  0.4192880000000 1.0
C      1  0.5439040000000  0.4633050000000  0.4818240000000 1.0
C      1  0.5315530000000  0.5322430000000  0.4548590000000 1.0
C      1  0.4952540000000  0.4646560000000  0.5924140000000 1.0
C      1  0.5401200000000  0.4672190000000  0.4343000000000 1.0
C      1  0.4009340000000  0.4424450000000  0.4714450000000 1.0
C      1  0.5076920000000  0.5912970000000  0.4770620000000 1.0
C      1  0.5781710000000  0.5502730000000  0.4311410000000 1.0
C      1  0.4811010000000  0.5552450000000  0.5631380000000 1.0
C      1  0.5137250000000  0.5769940000000  0.4538310000000 1.0
C      1  0.5410140000000  0.4477020000000  0.4567060000000 1.0
C      1  0.5112440000000  0.4542900000000  0.5735490000000 1.0
C      1  0.4784510000000  0.5102880000000  0.5912830000000 1.0
C      1  0.5162340000000  0.5148180000000  0.4372580000000 1.0
C      1  0.5364030000000  0.5598340000000  0.4526990000000 1.0
C      1  0.5765070000000  0.5152270000000  0.5668840000000 1.0
C      1  0.3905840000000  0.4570950000000  0.5644070000000 1.0
C      1  0.3889580000000  0.4464950000000  0.4975650000000 1.0
C      1  0.3654790000000  0.4371530000000  0.5096050000000 1.0
C      1  0.4048100000000  0.4652120000000  0.5414650000000 1.0
C      1  0.5570110000000  0.5394140000000  0.5289810000000 1.0
C      1  0.4026040000000  0.4604480000000  0.5893210000000 1.0
C      1  0.4945450000000  0.5721940000000  0.4337560000000 1.0
C      1  0.5916830000000  0.5113240000000  0.4967490000000 1.0
C      1  0.5759510000000  0.5786190000000  0.4724210000000 1.0
C      1  0.5011060000000  0.4815330000000  0.5365410000000 1.0
C      1  0.4741380000000  0.4398520000000  0.4991790000000 1.0
C      1  0.5111880000000  0.5983270000000  0.5040130000000 1.0
C      1  0.4944840000000  0.5884490000000  0.5242330000000 1.0
C      1  0.5234360000000  0.4883500000000  0.4456870000000 1.0
C      1  0.5467790000000  0.5160490000000  0.4732040000000 1.0
C      1  0.5740140000000  0.5193210000000  0.4782680000000 1.0
C      1  0.4086150000000  0.4599610000000  0.5145200000000 1.0
C      1  0.4496350000000  0.4743020000000  0.6063490000000 1.0
C      1  0.4822110000000  0.4208360000000  0.5176940000000 1.0
C      1  0.3885170000000  0.4318180000000  0.4497590000000 1.0
C      1  0.5629610000000  0.6089530000000  0.5086240000000 1.0
C      1  0.5225160000000  0.4265070000000  0.4557400000000 1.0
C      1  0.4853760000000  0.5738620000000  0.5445710000000 1.0
C      1  0.5698000000000  0.5620100000000  0.5181350000000 1.0
C      1  0.5350720000000  0.6115430000000  0.5106170000000 1.0
C      1  0.4960040000000  0.4234950000000  0.4585510000000 1.0
C      1  0.5721310000000  0.5833780000000  0.4999710000000 1.0
C      1  0.4530670000000  0.4515210000000  0.4578860000000 1.0
C      1  0.4737180000000  0.4891440000000  0.4986870000000 1.0
C      1  0.4978020000000  0.5234650000000  0.4177590000000 1.0
C      1  0.4735400000000  0.4349960000000  0.4706190000000 1.0
C      1  0.3563850000000  0.4357990000000  0.5349380000000 1.0
C      1  0.4624610000000  0.4779360000000  0.4516880000000 1.0
C      1  0.4243510000000  0.4665990000000  0.6033970000000 1.0
C      1  0.5295700000000  0.5356620000000  0.5239790000000 1.0
C      1  0.5744960000000  0.4729800000000  0.5187550000000 1.0
C      1  0.4797000000000  0.5338000000000  0.5788630000000 1.0
C      1  0.5611790000000  0.4772520000000  0.4184520000000 1.0
C      1  0.5160740000000  0.4601390000000  0.5465790000000 1.0
C      1  0.4893770000000  0.5070680000000  0.3976240000000 1.0
C      1  0.5346140000000  0.4490480000000  0.5286220000000 1.0
C      1  0.4870270000000  0.4007700000000  0.5336160000000 1.0
C      1  0.4887440000000  0.5500890000000  0.4196840000000 1.0
C      1  0.5521450000000  0.4587810000000  0.5087110000000 1.0
C      1  0.5071740000000  0.5234500000000  0.5160150000000 1.0
C      1  0.5834560000000  0.4995390000000  0.5210150000000 1.0
C      1  0.4748540000000  0.4832220000000  0.5980180000000 1.0
C      1  0.4282160000000  0.4516660000000  0.4723930000000 1.0
C      1  0.5746550000000  0.5003240000000  0.4146960000000 1.0
C      1  0.3663500000000  0.4437750000000  0.5587390000000 1.0
C      1  0.5641830000000  0.5661200000000  0.4501230000000 1.0
C      1  0.4602600000000  0.4643940000000  0.5058310000000 1.0
END
