TITL C-3866670-4165-367 0.000901297439825262 125000 -575.459594292804 0 0 96 (C1) n - 1
REM
REM in /home/nfs/bkarasulu/CARBON/AIRSS/Generating-Clusters/LCBOP/Only-C1/SD-CG/FIRE-CG
REM
REM
REM
REM
REM
REM ./C.cell (11c1c37f851c82e70ff6c80c92926a4b)
REM AIRSS Version 0.9.1 bugfix July 2018 build 013d7b7c2542+ Fri, 06 Jul 2018 19:26:36 +0100
REM compiler GCC version 9.2.1 20190827 (Red Hat 9.2.1-1)
REM options -cpp -mtune=generic -march=x86-64 -g -O0 -fpre-include=/usr/include/finclude/math-vector-fortran.h
REM seed -934649821 -527573320 -746814180 -1862441425 -913270384 1221677041 -1350054254 220677310 193270698 -253855939 246262781 -266467031 -1583506716 1720748205 -124385562 111335148 1623650678 999889559 -1226471124 -145255175 -376109056 616336893 748188883 -886661203 41031312 536095313 -1971498989 -1225123634 -714217284 446851573 1698936047 759411620 337393296
REM
CELL 1.54180   50.00000   50.00000   50.00000   90.00000   90.00000   90.00000
LATT -1
SFAC C  
C      1  0.5896920000000  0.5130420000000  0.5119680000000 1.0
C      1  0.5452100000000  0.4169730000000  0.5090720000000 1.0
C      1  0.5731670000000  0.5609040000000  0.4626190000000 1.0
C      1  0.4178030000000  0.4639780000000  0.4991730000000 1.0
C      1  0.4817640000000  0.4988190000000  0.4527820000000 1.0
C      1  0.5310800000000  0.4073630000000  0.5298700000000 1.0
C      1  0.5240620000000  0.4444740000000  0.4219430000000 1.0
C      1  0.4485100000000  0.4218680000000  0.5095460000000 1.0
C      1  0.5105370000000  0.5382360000000  0.4174780000000 1.0
C      1  0.5104410000000  0.5829370000000  0.4916730000000 1.0
C      1  0.4952910000000  0.4573110000000  0.5090210000000 1.0
C      1  0.5877450000000  0.4853410000000  0.5056360000000 1.0
C      1  0.4759390000000  0.5256130000000  0.5745490000000 1.0
C      1  0.5270090000000  0.4887530000000  0.5477280000000 1.0
C      1  0.4442230000000  0.4682360000000  0.5794610000000 1.0
C      1  0.5319560000000  0.5173140000000  0.4079500000000 1.0
C      1  0.5513990000000  0.5437760000000  0.5634160000000 1.0
C      1  0.4657150000000  0.5918530000000  0.5380080000000 1.0
C      1  0.5027380000000  0.4812330000000  0.4665590000000 1.0
C      1  0.4862160000000  0.5008500000000  0.5704400000000 1.0
C      1  0.4250120000000  0.4389610000000  0.5116760000000 1.0
C      1  0.5403190000000  0.5084330000000  0.4509650000000 1.0
C      1  0.5209340000000  0.4723770000000  0.4198600000000 1.0
C      1  0.5844240000000  0.4756150000000  0.4791100000000 1.0
C      1  0.5237740000000  0.4842710000000  0.4897750000000 1.0
C      1  0.3985720000000  0.5354450000000  0.5131120000000 1.0
C      1  0.5672380000000  0.4623090000000  0.5486940000000 1.0
C      1  0.5503200000000  0.6131690000000  0.5765560000000 1.0
C      1  0.4308310000000  0.5298510000000  0.4772020000000 1.0
C      1  0.4796800000000  0.4357410000000  0.5749600000000 1.0
C      1  0.5829410000000  0.4680970000000  0.5276750000000 1.0
C      1  0.4586760000000  0.4791080000000  0.4872690000000 1.0
C      1  0.4347730000000  0.4680420000000  0.4768520000000 1.0
C      1  0.4708030000000  0.4600770000000  0.5865730000000 1.0
C      1  0.4890620000000  0.5451100000000  0.4381120000000 1.0
C      1  0.5357710000000  0.5300460000000  0.4681850000000 1.0
C      1  0.4409030000000  0.4233480000000  0.4617650000000 1.0
C      1  0.5077420000000  0.4164500000000  0.4593200000000 1.0
C      1  0.4918250000000  0.4781560000000  0.3249390000000 1.0
C      1  0.4565910000000  0.5195000000000  0.5222040000000 1.0
C      1  0.5232250000000  0.4582410000000  0.5024870000000 1.0
C      1  0.4830910000000  0.4645250000000  0.4826180000000 1.0
C      1  0.5228880000000  0.4849140000000  0.4455360000000 1.0
C      1  0.4895420000000  0.4816740000000  0.5918840000000 1.0
C      1  0.5406960000000  0.5305070000000  0.5844900000000 1.0
C      1  0.5089770000000  0.5299750000000  0.4775020000000 1.0
C      1  0.5434370000000  0.4698170000000  0.5616290000000 1.0
C      1  0.5174930000000  0.4846480000000  0.6002270000000 1.0
C      1  0.5370400000000  0.5040990000000  0.5035450000000 1.0
C      1  0.4886280000000  0.6072070000000  0.5351840000000 1.0
C      1  0.5494980000000  0.4434410000000  0.4642620000000 1.0
C      1  0.5095980000000  0.4095700000000  0.5457030000000 1.0
C      1  0.5034130000000  0.6175170000000  0.5577670000000 1.0
C      1  0.5390700000000  0.5062900000000  0.5299150000000 1.0
C      1  0.5309400000000  0.6085950000000  0.5574890000000 1.0
C      1  0.4635350000000  0.4164150000000  0.5327750000000 1.0
C      1  0.4124740000000  0.5157570000000  0.4970160000000 1.0
C      1  0.4891000000000  0.5796820000000  0.4727370000000 1.0
C      1  0.4328330000000  0.4495410000000  0.4552710000000 1.0
C      1  0.4578820000000  0.5665030000000  0.5385280000000 1.0
C      1  0.5709200000000  0.4831400000000  0.4313640000000 1.0
C      1  0.4901530000000  0.5244130000000  0.4578270000000 1.0
C      1  0.5693950000000  0.4653410000000  0.4564440000000 1.0
C      1  0.5423060000000  0.4396560000000  0.4926570000000 1.0
C      1  0.5288840000000  0.4315720000000  0.4469160000000 1.0
C      1  0.5690800000000  0.6160310000000  0.5944170000000 1.0
C      1  0.5017920000000  0.4825960000000  0.3486160000000 1.0
C      1  0.5333230000000  0.5937670000000  0.5329800000000 1.0
C      1  0.5551320000000  0.5084520000000  0.4262880000000 1.0
C      1  0.3727360000000  0.5429230000000  0.5093740000000 1.0
C      1  0.4986520000000  0.4899430000000  0.5475240000000 1.0
C      1  0.4159730000000  0.5453350000000  0.5327870000000 1.0
C      1  0.4842480000000  0.4782360000000  0.5265110000000 1.0
C      1  0.4469090000000  0.4783220000000  0.4187240000000 1.0
C      1  0.5370210000000  0.5692250000000  0.4943220000000 1.0
C      1  0.5354320000000  0.4656760000000  0.5884630000000 1.0
C      1  0.4118710000000  0.4891130000000  0.5117160000000 1.0
C      1  0.4259560000000  0.4787670000000  0.5627180000000 1.0
C      1  0.5498290000000  0.5535230000000  0.4745390000000 1.0
C      1  0.4839810000000  0.4195380000000  0.5521160000000 1.0
C      1  0.5117830000000  0.4870900000000  0.3727360000000 1.0
C      1  0.4474860000000  0.5496010000000  0.4658180000000 1.0
C      1  0.5475050000000  0.5714830000000  0.5218880000000 1.0
C      1  0.4662230000000  0.4923050000000  0.4306420000000 1.0
C      1  0.5085210000000  0.5977750000000  0.5164310000000 1.0
C      1  0.4856490000000  0.4113630000000  0.4742180000000 1.0
C      1  0.4724250000000  0.5640120000000  0.4543820000000 1.0
C      1  0.4312790000000  0.4591380000000  0.4290830000000 1.0
C      1  0.4140180000000  0.4878670000000  0.5403460000000 1.0
C      1  0.4586550000000  0.4157460000000  0.4827250000000 1.0
C      1  0.5286020000000  0.5115030000000  0.5997530000000 1.0
C      1  0.4442200000000  0.5430560000000  0.5325150000000 1.0
C      1  0.4637160000000  0.4938210000000  0.5126230000000 1.0
C      1  0.5607360000000  0.5511820000000  0.5371880000000 1.0
C      1  0.5209450000000  0.4915470000000  0.3984970000000 1.0
C      1  0.5805990000000  0.5350440000000  0.5245870000000 1.0
END
