TITL C-3866676-3738-826 -0.431341882603041 125000 -170.082640583225 0 0 30 (C1) n - 1
REM
REM in /home/nfs/bkarasulu/CARBON/AIRSS/Generating-Clusters/LCBOP/Only-C1/SD-CG/FIRE-CG
REM
REM
REM
REM
REM
REM ./C.cell (11c1c37f851c82e70ff6c80c92926a4b)
REM AIRSS Version 0.9.1 bugfix July 2018 build 013d7b7c2542+ Fri, 06 Jul 2018 19:26:36 +0100
REM compiler GCC version 9.2.1 20190827 (Red Hat 9.2.1-1)
REM options -cpp -mtune=generic -march=x86-64 -g -O0 -fpre-include=/usr/include/finclude/math-vector-fortran.h
REM seed 643942501 1224767867 989184983 1171212882 990654925 2007745720 847014835 -546633596 -1488771867 63466811 -578034087 -510155344 -1890521164 -1162136180 -1154504249 1381074526 -703404789 840379606 947169821 -1424725714 96937361 1165770349 949038063 899700945 -409232434 1808502314 36686358 -1264007376 1663555958 1815371196 1888095441 -1421038425 1543713064
REM
CELL 1.54180   50.00000   50.00000   50.00000   90.00000   90.00000   90.00000
LATT -1
SFAC C  
C      1  0.4855020000000  0.5641760000000  0.4967320000000 1.0
C      1  0.4679590000000  0.4994050000000  0.3957270000000 1.0
C      1  0.5232160000000  0.4549820000000  0.6061500000000 1.0
C      1  0.4901620000000  0.4947930000000  0.4094350000000 1.0
C      1  0.5265660000000  0.4796670000000  0.5593700000000 1.0
C      1  0.3775210000000  0.5173060000000  0.3442820000000 1.0
C      1  0.4770810000000  0.5167270000000  0.4868230000000 1.0
C      1  0.5715270000000  0.4695500000000  0.4609930000000 1.0
C      1  0.4453090000000  0.5039110000000  0.3827320000000 1.0
C      1  0.5281910000000  0.4920560000000  0.5360170000000 1.0
C      1  0.5404970000000  0.6020380000000  0.5280000000000 1.0
C      1  0.5188110000000  0.5316270000000  0.5093380000000 1.0
C      1  0.4503550000000  0.4763940000000  0.4662980000000 1.0
C      1  0.5329200000000  0.5543930000000  0.5188150000000 1.0
C      1  0.4998630000000  0.5851460000000  0.5061880000000 1.0
C      1  0.5301240000000  0.4858390000000  0.4429240000000 1.0
C      1  0.5181900000000  0.4179540000000  0.6763270000000 1.0
C      1  0.4633170000000  0.4964920000000  0.4766740000000 1.0
C      1  0.5110660000000  0.4900970000000  0.4250280000000 1.0
C      1  0.3998700000000  0.5128900000000  0.3569580000000 1.0
C      1  0.4225930000000  0.5084000000000  0.3698450000000 1.0
C      1  0.5248910000000  0.4673240000000  0.5827600000000 1.0
C      1  0.5165420000000  0.4058130000000  0.6993390000000 1.0
C      1  0.5198650000000  0.4302990000000  0.6529310000000 1.0
C      1  0.5294050000000  0.5055340000000  0.5115970000000 1.0
C      1  0.5408460000000  0.4932560000000  0.4892940000000 1.0
C      1  0.4931570000000  0.5368470000000  0.4972780000000 1.0
C      1  0.5478010000000  0.4827170000000  0.4643640000000 1.0
C      1  0.5253150000000  0.5817250000000  0.5182400000000 1.0
C      1  0.5215410000000  0.4426410000000  0.6295400000000 1.0
END
