TITL C-3866673-4222-765 0.00317080397884918 125000 -1136.96942386004 0 0 188 (C1) n - 1
REM
REM in /home/nfs/bkarasulu/CARBON/AIRSS/Generating-Clusters/LCBOP/Only-C1/SD-CG/FIRE-CG
REM
REM
REM
REM
REM
REM ./C.cell (11c1c37f851c82e70ff6c80c92926a4b)
REM AIRSS Version 0.9.1 bugfix July 2018 build 013d7b7c2542+ Fri, 06 Jul 2018 19:26:36 +0100
REM compiler GCC version 9.2.1 20190827 (Red Hat 9.2.1-1)
REM options -cpp -mtune=generic -march=x86-64 -g -O0 -fpre-include=/usr/include/finclude/math-vector-fortran.h
REM seed -1372662321 1911372557 1455668221 -2082051914 1813707322 31366285 -582583154 -190766985 77328219 1710938952 -1871133160 -373834350 80819539 122934958 1747842364 744538014 -1049003222 1088874437 -813425216 -157261729 -806568956 -610101448 1447496225 -1378968071 399291265 -140387624 2065173643 -1794523410 1854326690 -1087671684 -2072160368 -86182437 983496919
REM
CELL 1.54180   50.00000   50.00000   50.00000   90.00000   90.00000   90.00000
LATT -1
SFAC C  
C      1  0.4305910000000  0.4698350000000  0.4482660000000 1.0
C      1  0.5189720000000  0.5611040000000  0.3973790000000 1.0
C      1  0.5925950000000  0.5013900000000  0.5752340000000 1.0
C      1  0.5675460000000  0.4827460000000  0.6140360000000 1.0
C      1  0.5014170000000  0.4315470000000  0.6222960000000 1.0
C      1  0.4877440000000  0.5527950000000  0.5457090000000 1.0
C      1  0.5362870000000  0.5663200000000  0.4421760000000 1.0
C      1  0.5831310000000  0.5101390000000  0.4221730000000 1.0
C      1  0.4161290000000  0.4950600000000  0.4932300000000 1.0
C      1  0.5269680000000  0.5135200000000  0.3817510000000 1.0
C      1  0.4097200000000  0.5189000000000  0.4821490000000 1.0
C      1  0.4942050000000  0.3926180000000  0.4997340000000 1.0
C      1  0.5214040000000  0.3252570000000  0.4961690000000 1.0
C      1  0.5905220000000  0.5755400000000  0.5691550000000 1.0
C      1  0.5869100000000  0.5935430000000  0.5494430000000 1.0
C      1  0.5531210000000  0.4352070000000  0.4803480000000 1.0
C      1  0.4991550000000  0.5952810000000  0.4288610000000 1.0
C      1  0.5261060000000  0.4112290000000  0.5584140000000 1.0
C      1  0.4877960000000  0.4785180000000  0.3872730000000 1.0
C      1  0.4455930000000  0.6599800000000  0.4941170000000 1.0
C      1  0.5050730000000  0.4146180000000  0.6006560000000 1.0
C      1  0.4796960000000  0.4276070000000  0.5307360000000 1.0
C      1  0.4015520000000  0.4708570000000  0.4510340000000 1.0
C      1  0.5194810000000  0.5299230000000  0.6046550000000 1.0
C      1  0.5352080000000  0.5376300000000  0.5546780000000 1.0
C      1  0.5637510000000  0.4559500000000  0.6072720000000 1.0
C      1  0.4924300000000  0.5414280000000  0.3625910000000 1.0
C      1  0.4659900000000  0.5633210000000  0.5618920000000 1.0
C      1  0.4959740000000  0.4147940000000  0.5527060000000 1.0
C      1  0.5877830000000  0.5250920000000  0.5928100000000 1.0
C      1  0.4611990000000  0.3621220000000  0.5177850000000 1.0
C      1  0.5627400000000  0.5182660000000  0.3491980000000 1.0
C      1  0.5204770000000  0.5773890000000  0.4207480000000 1.0
C      1  0.4418360000000  0.5982980000000  0.5341040000000 1.0
C      1  0.4944420000000  0.4929150000000  0.5865440000000 1.0
C      1  0.5735080000000  0.5125620000000  0.3957860000000 1.0
C      1  0.5168270000000  0.4034640000000  0.4860850000000 1.0
C      1  0.6385530000000  0.4948490000000  0.5023910000000 1.0
C      1  0.4368950000000  0.3691490000000  0.5266090000000 1.0
C      1  0.5436610000000  0.5264170000000  0.6158340000000 1.0
C      1  0.4732930000000  0.5163880000000  0.4148070000000 1.0
C      1  0.5682620000000  0.5128390000000  0.6119080000000 1.0
C      1  0.5026730000000  0.4463390000000  0.4409270000000 1.0
C      1  0.4889670000000  0.4495130000000  0.3829630000000 1.0
C      1  0.4748630000000  0.5357940000000  0.4342850000000 1.0
C      1  0.4100280000000  0.4872690000000  0.4044710000000 1.0
C      1  0.3782700000000  0.4660770000000  0.6209650000000 1.0
C      1  0.6132140000000  0.4593610000000  0.5167270000000 1.0
C      1  0.4803690000000  0.4288810000000  0.4390310000000 1.0
C      1  0.6108870000000  0.5635600000000  0.5025280000000 1.0
C      1  0.5729830000000  0.5021790000000  0.4818470000000 1.0
C      1  0.5537690000000  0.4114540000000  0.5492440000000 1.0
C      1  0.4727360000000  0.4143780000000  0.4170990000000 1.0
C      1  0.6367570000000  0.4755710000000  0.4804920000000 1.0
C      1  0.5058860000000  0.4741730000000  0.4781770000000 1.0
C      1  0.6361800000000  0.4762260000000  0.5256000000000 1.0
C      1  0.4183950000000  0.5412690000000  0.4700240000000 1.0
C      1  0.5057130000000  0.5286190000000  0.5549180000000 1.0
C      1  0.4690600000000  0.5736890000000  0.4731510000000 1.0
C      1  0.6138700000000  0.5075180000000  0.5568270000000 1.0
C      1  0.5711580000000  0.4225100000000  0.5682360000000 1.0
C      1  0.5125900000000  0.5385920000000  0.3810900000000 1.0
C      1  0.5402670000000  0.4686040000000  0.5125220000000 1.0
C      1  0.5013720000000  0.5039520000000  0.5363730000000 1.0
C      1  0.4901870000000  0.4749960000000  0.5429830000000 1.0
C      1  0.5198320000000  0.4612010000000  0.4575340000000 1.0
C      1  0.4494150000000  0.4799150000000  0.5713380000000 1.0
C      1  0.5034520000000  0.6100930000000  0.4531020000000 1.0
C      1  0.5072020000000  0.6028070000000  0.5542100000000 1.0
C      1  0.5414360000000  0.5445220000000  0.4927200000000 1.0
C      1  0.4508350000000  0.5153200000000  0.5126290000000 1.0
C      1  0.5570390000000  0.4313870000000  0.5925390000000 1.0
C      1  0.4868470000000  0.3658910000000  0.5062210000000 1.0
C      1  0.4010030000000  0.4067340000000  0.5247910000000 1.0
C      1  0.5277670000000  0.5887240000000  0.5673820000000 1.0
C      1  0.6226520000000  0.4515370000000  0.4893540000000 1.0
C      1  0.5763890000000  0.4635730000000  0.4175450000000 1.0
C      1  0.4403090000000  0.4878780000000  0.5066510000000 1.0
C      1  0.4354780000000  0.6162650000000  0.4735300000000 1.0
C      1  0.3707340000000  0.5343100000000  0.4504830000000 1.0
C      1  0.5312750000000  0.4257790000000  0.4980590000000 1.0
C      1  0.4323830000000  0.5148040000000  0.4318200000000 1.0
C      1  0.5225100000000  0.4854790000000  0.4984540000000 1.0
C      1  0.3900640000000  0.4762070000000  0.5744530000000 1.0
C      1  0.5294760000000  0.4642210000000  0.5702360000000 1.0
C      1  0.5562780000000  0.5194690000000  0.5487960000000 1.0
C      1  0.4776710000000  0.4757750000000  0.4803800000000 1.0
C      1  0.4305020000000  0.5615090000000  0.4235420000000 1.0
C      1  0.4346560000000  0.6331510000000  0.4960120000000 1.0
C      1  0.3919000000000  0.4531240000000  0.5028790000000 1.0
C      1  0.5058110000000  0.6154420000000  0.4795380000000 1.0
C      1  0.6251380000000  0.4268930000000  0.4784050000000 1.0
C      1  0.4852330000000  0.4109460000000  0.5798510000000 1.0
C      1  0.5626340000000  0.4682980000000  0.5302650000000 1.0
C      1  0.4594020000000  0.5909770000000  0.5565730000000 1.0
C      1  0.4376030000000  0.4563550000000  0.5803860000000 1.0
C      1  0.5750660000000  0.4193220000000  0.4766660000000 1.0
C      1  0.5785330000000  0.4852740000000  0.4354530000000 1.0
C      1  0.4748590000000  0.4120660000000  0.5073000000000 1.0
C      1  0.5387100000000  0.3065520000000  0.4906690000000 1.0
C      1  0.4245490000000  0.5529610000000  0.5316430000000 1.0
C      1  0.3892290000000  0.4711010000000  0.5251420000000 1.0
C      1  0.4656870000000  0.4926610000000  0.3992450000000 1.0
C      1  0.5609170000000  0.5276610000000  0.4819410000000 1.0
C      1  0.4794840000000  0.5678550000000  0.4982070000000 1.0
C      1  0.5736240000000  0.5846190000000  0.4755650000000 1.0
C      1  0.5160970000000  0.4874560000000  0.3868720000000 1.0
C      1  0.3921300000000  0.4885630000000  0.4289350000000 1.0
C      1  0.5635380000000  0.5727270000000  0.4512890000000 1.0
C      1  0.5385830000000  0.5641930000000  0.5645430000000 1.0
C      1  0.5449770000000  0.5635120000000  0.5115880000000 1.0
C      1  0.5905900000000  0.5833780000000  0.4988530000000 1.0
C      1  0.5672530000000  0.4816730000000  0.4618280000000 1.0
C      1  0.5774650000000  0.5224510000000  0.5300050000000 1.0
C      1  0.4560170000000  0.4196430000000  0.4875950000000 1.0
C      1  0.5030700000000  0.5195980000000  0.5840800000000 1.0
C      1  0.5926860000000  0.5337300000000  0.4333840000000 1.0
C      1  0.5219950000000  0.3980330000000  0.4581320000000 1.0
C      1  0.5657290000000  0.4973380000000  0.5652280000000 1.0
C      1  0.6179510000000  0.5144740000000  0.5037830000000 1.0
C      1  0.5322000000000  0.4628710000000  0.3907210000000 1.0
C      1  0.4340750000000  0.5557970000000  0.4519440000000 1.0
C      1  0.4969020000000  0.4589430000000  0.6175950000000 1.0
C      1  0.4305430000000  0.5259050000000  0.5303930000000 1.0
C      1  0.4764160000000  0.4818950000000  0.5680810000000 1.0
C      1  0.4242080000000  0.4590100000000  0.6051960000000 1.0
C      1  0.4539070000000  0.5972880000000  0.4689360000000 1.0
C      1  0.4694580000000  0.5199280000000  0.4900860000000 1.0
C      1  0.4178790000000  0.5069280000000  0.5485760000000 1.0
C      1  0.5254710000000  0.4447150000000  0.5208550000000 1.0
C      1  0.4734030000000  0.4563600000000  0.5262720000000 1.0
C      1  0.5943310000000  0.5479990000000  0.5720240000000 1.0
C      1  0.5548080000000  0.5149300000000  0.3751550000000 1.0
C      1  0.5223700000000  0.4168170000000  0.4080770000000 1.0
C      1  0.5307730000000  0.4171330000000  0.5883280000000 1.0
C      1  0.3968750000000  0.4670550000000  0.6009920000000 1.0
C      1  0.4409250000000  0.5259500000000  0.5870500000000 1.0
C      1  0.4392040000000  0.4788360000000  0.4026050000000 1.0
C      1  0.5121780000000  0.4714980000000  0.5949180000000 1.0
C      1  0.4707320000000  0.4674720000000  0.6264480000000 1.0
C      1  0.5252850000000  0.4032810000000  0.4315990000000 1.0
C      1  0.6040440000000  0.5337900000000  0.5437920000000 1.0
C      1  0.5102570000000  0.5073450000000  0.5104350000000 1.0
C      1  0.5234140000000  0.5422430000000  0.4516290000000 1.0
C      1  0.5481250000000  0.4587930000000  0.4642410000000 1.0
C      1  0.5837710000000  0.5584600000000  0.4376370000000 1.0
C      1  0.4431000000000  0.4961690000000  0.4510120000000 1.0
C      1  0.4151890000000  0.3844580000000  0.5303190000000 1.0
C      1  0.4614430000000  0.4687770000000  0.5036500000000 1.0
C      1  0.5239970000000  0.5192240000000  0.4369070000000 1.0
C      1  0.3833160000000  0.5723600000000  0.4861410000000 1.0
C      1  0.4654750000000  0.4242740000000  0.4620060000000 1.0
C      1  0.4258780000000  0.5349930000000  0.4142060000000 1.0
C      1  0.4498100000000  0.6209370000000  0.5186920000000 1.0
C      1  0.4005240000000  0.5830080000000  0.5043740000000 1.0
C      1  0.4711090000000  0.6600130000000  0.5049560000000 1.0
C      1  0.3969820000000  0.4862970000000  0.5481250000000 1.0
C      1  0.5892090000000  0.5018240000000  0.5073120000000 1.0
C      1  0.4345390000000  0.5037410000000  0.5714890000000 1.0
C      1  0.5166130000000  0.5411340000000  0.4790410000000 1.0
C      1  0.4648250000000  0.4995630000000  0.4689100000000 1.0
C      1  0.4215240000000  0.5797880000000  0.5237400000000 1.0
C      1  0.5048920000000  0.5962290000000  0.5263280000000 1.0
C      1  0.5148930000000  0.4393110000000  0.3920580000000 1.0
C      1  0.4986640000000  0.6166660000000  0.5071880000000 1.0
C      1  0.4933690000000  0.5699570000000  0.5223780000000 1.0
C      1  0.6184050000000  0.5405840000000  0.5174670000000 1.0
C      1  0.4731670000000  0.5924340000000  0.4169150000000 1.0
C      1  0.4974920000000  0.5257760000000  0.4931290000000 1.0
C      1  0.4400600000000  0.4586980000000  0.4237290000000 1.0
C      1  0.4770830000000  0.6335620000000  0.5152630000000 1.0
C      1  0.4436010000000  0.4640410000000  0.6257060000000 1.0
C      1  0.3768170000000  0.5117520000000  0.4365340000000 1.0
C      1  0.3893810000000  0.4613230000000  0.4751030000000 1.0
C      1  0.4811520000000  0.6080220000000  0.5650290000000 1.0
C      1  0.5851220000000  0.5975730000000  0.5228610000000 1.0
C      1  0.4294030000000  0.4250500000000  0.4927340000000 1.0
C      1  0.5039730000000  0.3444630000000  0.5015680000000 1.0
C      1  0.4057020000000  0.4283100000000  0.5072590000000 1.0
C      1  0.5139980000000  0.4561480000000  0.5467680000000 1.0
C      1  0.3726770000000  0.5553100000000  0.4677390000000 1.0
C      1  0.5588820000000  0.4594270000000  0.3977940000000 1.0
C      1  0.4710390000000  0.4356180000000  0.3678350000000 1.0
C      1  0.5883590000000  0.4736330000000  0.5192830000000 1.0
C      1  0.4632270000000  0.5532180000000  0.4542460000000 1.0
C      1  0.4534590000000  0.5489460000000  0.5821590000000 1.0
C      1  0.4486580000000  0.5810840000000  0.4133950000000 1.0
C      1  0.5550320000000  0.4727070000000  0.5582260000000 1.0
END
