TITL C-3866674-3872-641 20828.4028725076 125000 -1215.9482043163 0 0 198 (C1) n - 1
REM
REM in /home/nfs/bkarasulu/CARBON/AIRSS/Generating-Clusters/LCBOP/Only-C1/SD-CG/FIRE-CG
REM
REM
REM
REM
REM
REM ./C.cell (11c1c37f851c82e70ff6c80c92926a4b)
REM AIRSS Version 0.9.1 bugfix July 2018 build 013d7b7c2542+ Fri, 06 Jul 2018 19:26:36 +0100
REM compiler GCC version 9.2.1 20190827 (Red Hat 9.2.1-1)
REM options -cpp -mtune=generic -march=x86-64 -g -O0 -fpre-include=/usr/include/finclude/math-vector-fortran.h
REM seed 286063237 289462361 1345932685 617986960 -1846447029 -1816336275 -1570763227 -922003078 -1802737209 799096203 1901973822 -1435529913 540600054 1065198435 -1440202498 -525915884 1978477895 1279460748 1987725663 1468162118 1186433622 -493983264 1659538624 -411047521 1808054471 -700406902 -1548108247 1702899294 -1301700517 1608389360 -1560181482 -1518204643 -1438385470
REM
CELL 1.54180   50.00000   50.00000   50.00000   90.00000   90.00000   90.00000
LATT -1
SFAC C  
C      1  0.5713300000000  0.4677050000000  0.5704180000000 1.0
C      1  0.4984100000000  0.5852370000000  0.5098250000000 1.0
C      1  0.5643980000000  0.4677080000000  0.4753980000000 1.0
C      1  0.5286930000000  0.4634040000000  0.5578640000000 1.0
C      1  0.4288910000000  0.5293420000000  0.4186210000000 1.0
C      1  0.4232290000000  0.4525470000000  0.4716950000000 1.0
C      1  0.4830770000000  0.5161000000000  0.4017940000000 1.0
C      1  0.5739080000000  0.6880460000000  0.4161850000000 1.0
C      1  0.6133350000000  0.4532140000000  0.5034600000000 1.0
C      1  0.4756850000000  0.3697450000000  0.4514100000000 1.0
C      1  0.5587020000000  0.4880120000000  0.5229930000000 1.0
C      1  0.4786940000000  0.4799710000000  0.6192600000000 1.0
C      1  0.4963690000000  0.4164420000000  0.6039170000000 1.0
C      1  0.5251770000000  0.4865140000000  0.5998370000000 1.0
C      1  0.4660850000000  0.3939290000000  0.4399060000000 1.0
C      1  0.5383970000000  0.5311230000000  0.4116930000000 1.0
C      1  0.4207550000000  0.5119480000000  0.5275810000000 1.0
C      1  0.4199370000000  0.3771390000000  0.5485440000000 1.0
C      1  0.4391380000000  0.3786100000000  0.4972170000000 1.0
C      1  0.5896620000000  0.5393830000000  0.6030590000000 1.0
C      1  0.4309990000000  0.5541500000000  0.4089420000000 1.0
C      1  0.5663160000000  0.3944180000000  0.4621930000000 1.0
C      1  0.4859830000000  0.3707000000000  0.4774720000000 1.0
C      1  0.5435410000000  0.4749610000000  0.5793740000000 1.0
C      1  0.4088910000000  0.4534050000000  0.5280020000000 1.0
C      1  0.4311360000000  0.5093700000000  0.4382150000000 1.0
C      1  0.4402560000000  0.6062560000000  0.4664840000000 1.0
C      1  0.3823720000000  0.5508510000000  0.5514840000000 1.0
C      1  0.4703060000000  0.5938320000000  0.5118990000000 1.0
C      1  0.4587080000000  0.5971290000000  0.5390790000000 1.0
C      1  0.6250470000000  0.5009390000000  0.5067350000000 1.0
C      1  0.5389130000000  0.6278370000000  0.4204560000000 1.0
C      1  0.5339040000000  0.4283480000000  0.4882600000000 1.0
C      1  0.6061600000000  0.5389160000000  0.5808850000000 1.0
C      1  0.4625010000000  0.5876420000000  0.4298280000000 1.0
C      1  0.5546070000000  0.4456850000000  0.4159640000000 1.0
C      1  0.4817690000000  0.5461530000000  0.5824290000000 1.0
C      1  0.3982610000000  0.5706880000000  0.5400740000000 1.0
C      1  0.6013150000000  0.4336770000000  0.4591460000000 1.0
C      1  0.4905870000000  0.5355280000000  0.5013260000000 1.0
C      1  0.5329260000000  0.4805600000000  0.3804720000000 1.0
C      1  0.5395960000000  0.5341410000000  0.6035930000000 1.0
C      1  0.6235050000000  0.4772750000000  0.4920900000000 1.0
C      1  0.4453690000000  0.4444890000000  0.4126550000000 1.0
C      1  0.5049130000000  0.4689960000000  0.6120140000000 1.0
C      1  0.4844030000000  0.5052570000000  0.4288630000000 1.0
C      1  0.5186450000000  0.4253700000000  0.4463820000000 1.0
C      1  0.5006070000000  0.5601350000000  0.4190130000000 1.0
C      1  0.4730700000000  0.5471280000000  0.4559060000000 1.0
C      1  0.5354010000000  0.4846880000000  0.4322130000000 1.0
C      1  0.5227660000000  0.5585110000000  0.5599620000000 1.0
C      1  0.5776910000000  0.4726590000000  0.4497240000000 1.0
C      1  0.4761630000000  0.5106410000000  0.5037110000000 1.0
C      1  0.5311710000000  0.5457510000000  0.4562410000000 1.0
C      1  0.4258080000000  0.4631640000000  0.4208140000000 1.0
C      1  0.4353550000000  0.5362570000000  0.5207240000000 1.0
C      1  0.5363660000000  0.6543190000000  0.4182400000000 1.0
C      1  0.5767610000000  0.5469600000000  0.4657590000000 1.0
C      1  0.4582720000000  0.4614810000000  0.6263170000000 1.0
C      1  0.5106940000000  0.3850090000000  0.4820140000000 1.0
C      1  0.5902340000000  0.5286820000000  0.5349130000000 1.0
C      1  0.6099700000000  0.6533310000000  0.4215330000000 1.0
C      1  0.4896490000000  0.5228630000000  0.4514180000000 1.0
C      1  0.4185930000000  0.5206510000000  0.6859910000000 1.0
C      1  0.5525150000000  0.4883280000000  0.4914270000000 1.0
C      1  0.4694040000000  0.5049460000000  0.6077720000000 1.0
C      1  0.5740470000000  0.3990280000000  0.5650320000000 1.0
C      1  0.4342790000000  0.3959910000000  0.5647180000000 1.0
C      1  0.5674980000000  0.5609150000000  0.5683010000000 1.0
C      1  0.5456340000000  0.5748110000000  0.5561180000000 1.0
C      1  0.4678850000000  0.3736330000000  0.4998850000000 1.0
C      1  0.4826630000000  0.4764130000000  0.4315400000000 1.0
C      1  0.4876680000000  0.4971250000000  0.3812710000000 1.0
C      1  0.5846850000000  0.5275270000000  0.4170040000000 1.0
C      1  0.4596540000000  0.4997180000000  0.4831110000000 1.0
C      1  0.4190980000000  0.5136030000000  0.6059020000000 1.0
C      1  0.5789140000000  0.3878800000000  0.4896270000000 1.0
C      1  0.5909050000000  0.4194680000000  0.5254010000000 1.0
C      1  0.4585980000000  0.3899210000000  0.5783250000000 1.0
C      1  0.5154920000000  0.5231730000000  0.4641660000000 1.0
C      1  0.5238940000000  0.4797810000000  0.4571050000000 1.0
C      1  0.5147370000000  0.4220460000000  0.5330810000000 1.0
C      1  0.5836390000000  0.6107560000000  0.4254290000000 1.0
C      1  0.4737600000000  0.6332180000000  0.4433470000000 1.0
C      1  0.4441050000000  0.5134230000000  0.4632840000000 1.0
C      1  0.5760440000000  0.3979020000000  0.5371650000000 1.0
C      1  0.4006510000000  0.4675150000000  0.4796790000000 1.0
C      1  0.5629060000000  0.5478800000000  0.5955090000000 1.0
C      1  0.5022920000000  0.3977710000000  0.5261110000000 1.0
C      1  0.4022920000000  0.5768120000000  0.5116260000000 1.0
C      1  0.5559330000000  0.6055230000000  0.4227070000000 1.0
C      1  0.5241400000000  0.5341340000000  0.5456860000000 1.0
C      1  0.5505880000000  0.5518490000000  0.4761790000000 1.0
C      1  0.4471920000000  0.4552730000000  0.4605820000000 1.0
C      1  0.3845120000000  0.5613140000000  0.4505830000000 1.0
C      1  0.4755520000000  0.3978390000000  0.5160480000000 1.0
C      1  0.4303110000000  0.6077660000000  0.5358830000000 1.0
C      1  0.4714340000000  0.4779490000000  0.5689680000000 1.0
C      1  0.5570800000000  0.4399920000000  0.4770400000000 1.0
C      1  0.4595930000000  0.6102040000000  0.4463970000000 1.0
C      1  0.4397300000000  0.4909540000000  0.5382810000000 1.0
C      1  0.4906650000000  0.4562700000000  0.4749940000000 1.0
C      1  0.4237330000000  0.3747580000000  0.5205230000000 1.0
C      1  0.5596430000000  0.4707890000000  0.4277970000000 1.0
C      1  0.5873100000000  0.5372170000000  0.4424710000000 1.0
C      1  0.4746860000000  0.4340240000000  0.4105830000000 1.0
C      1  0.6123730000000  0.4295160000000  0.4853870000000 1.0
C      1  0.5821720000000  0.4452140000000  0.5842710000000 1.0
C      1  0.3971170000000  0.5199110000000  0.5897180000000 1.0
C      1  0.4895170000000  0.5234330000000  0.5990010000000 1.0
C      1  0.4461720000000  0.5993330000000  0.4934340000000 1.0
C      1  0.4442400000000  0.4905510000000  0.5691930000000 1.0
C      1  0.5545190000000  0.4982500000000  0.3828960000000 1.0
C      1  0.4055690000000  0.5554220000000  0.4920460000000 1.0
C      1  0.4427080000000  0.5781140000000  0.4121090000000 1.0
C      1  0.4734190000000  0.4629760000000  0.4551680000000 1.0
C      1  0.6037100000000  0.4611610000000  0.4500330000000 1.0
C      1  0.4171110000000  0.5163950000000  0.6336270000000 1.0
C      1  0.5412120000000  0.3849740000000  0.4395090000000 1.0
C      1  0.4464220000000  0.4062330000000  0.4567840000000 1.0
C      1  0.5948980000000  0.4487540000000  0.5263930000000 1.0
C      1  0.5671750000000  0.3800940000000  0.5157010000000 1.0
C      1  0.5993260000000  0.4081120000000  0.4990180000000 1.0
C      1  0.5738390000000  0.4228340000000  0.4601540000000 1.0
C      1  0.4867810000000  0.4954210000000  0.5517450000000 1.0
C      1  0.4175720000000  0.5185210000000  0.6600280000000 1.0
C      1  0.4144100000000  0.4859760000000  0.4367380000000 1.0
C      1  0.5062730000000  0.4405620000000  0.6106820000000 1.0
C      1  0.4808810000000  0.5680230000000  0.4380690000000 1.0
C      1  0.5096600000000  0.5114100000000  0.5528130000000 1.0
C      1  0.4180870000000  0.5830770000000  0.5566090000000 1.0
C      1  0.5183410000000  0.5152170000000  0.6017800000000 1.0
C      1  0.4359720000000  0.4633790000000  0.5258180000000 1.0
C      1  0.5420350000000  0.3683720000000  0.5167500000000 1.0
C      1  0.5256470000000  0.5071880000000  0.4195850000000 1.0
C      1  0.3819380000000  0.5140130000000  0.4685290000000 1.0
C      1  0.4485550000000  0.5415640000000  0.4707420000000 1.0
C      1  0.4614830000000  0.5503400000000  0.5621660000000 1.0
C      1  0.4911470000000  0.4590140000000  0.4087330000000 1.0
C      1  0.4500040000000  0.5758870000000  0.5593160000000 1.0
C      1  0.3924070000000  0.4615490000000  0.5062620000000 1.0
C      1  0.6131140000000  0.5195420000000  0.5216020000000 1.0
C      1  0.4136630000000  0.6027230000000  0.4568710000000 1.0
C      1  0.4431590000000  0.5044310000000  0.5943040000000 1.0
C      1  0.5209780000000  0.4360110000000  0.5567250000000 1.0
C      1  0.5289230000000  0.5000370000000  0.4769380000000 1.0
C      1  0.5458230000000  0.5796100000000  0.4224410000000 1.0
C      1  0.5158960000000  0.4653340000000  0.5131710000000 1.0
C      1  0.3960930000000  0.4890330000000  0.4607220000000 1.0
C      1  0.3833060000000  0.5324310000000  0.5707560000000 1.0
C      1  0.5651480000000  0.5173670000000  0.5274200000000 1.0
C      1  0.4425630000000  0.4457070000000  0.6110010000000 1.0
C      1  0.6187510000000  0.6217480000000  0.4573700000000 1.0
C      1  0.4215680000000  0.5990380000000  0.5099160000000 1.0
C      1  0.4557700000000  0.4425730000000  0.5217870000000 1.0
C      1  0.5185680000000  0.3809980000000  0.5095230000000 1.0
C      1  0.5991080000000  0.6789100000000  0.4178720000000 1.0
C      1  0.3943400000000  0.5863450000000  0.4479990000000 1.0
C      1  0.6246880000000  0.6451340000000  0.4445300000000 1.0
C      1  0.5336350000000  0.4312290000000  0.4247230000000 1.0
C      1  0.5316450000000  0.4771380000000  0.5329360000000 1.0
C      1  0.4901910000000  0.5432180000000  0.3986050000000 1.0
C      1  0.4666480000000  0.4501640000000  0.5693290000000 1.0
C      1  0.4799280000000  0.3985030000000  0.5923970000000 1.0
C      1  0.4016710000000  0.3606940000000  0.5607760000000 1.0
C      1  0.3550560000000  0.5099660000000  0.4747320000000 1.0
C      1  0.5211140000000  0.6522360000000  0.4961430000000 1.0
C      1  0.5781490000000  0.4690080000000  0.5401910000000 1.0
C      1  0.4717550000000  0.4389060000000  0.5446360000000 1.0
C      1  0.5794690000000  0.4184760000000  0.5828500000000 1.0
C      1  0.5401500000000  0.5951610000000  0.5372750000000 1.0
C      1  0.5204580000000  0.6291640000000  0.5082450000000 1.0
C      1  0.4436130000000  0.4396900000000  0.5835120000000 1.0
C      1  0.5628130000000  0.5214080000000  0.3995770000000 1.0
C      1  0.4579870000000  0.5345210000000  0.5390230000000 1.0
C      1  0.5956540000000  0.6314370000000  0.4096940000000 1.0
C      1  0.6234860000000  0.4765960000000  0.4635460000000 1.0
C      1  0.5912230000000  0.5464610000000  0.5570780000000 1.0
C      1  0.4846980000000  0.4066250000000  0.4213480000000 1.0
C      1  0.3903820000000  0.5423540000000  0.4709980000000 1.0
C      1  0.5196550000000  0.6032790000000  0.5188480000000 1.0
C      1  0.5491870000000  0.6777170000000  0.4165120000000 1.0
C      1  0.4254520000000  0.4233370000000  0.5678700000000 1.0
C      1  0.5047860000000  0.4744840000000  0.3869760000000 1.0
C      1  0.5429820000000  0.5345160000000  0.5240970000000 1.0
C      1  0.4405700000000  0.4057060000000  0.4848560000000 1.0
C      1  0.5030690000000  0.5641620000000  0.5785330000000 1.0
C      1  0.4328550000000  0.5466740000000  0.4943320000000 1.0
C      1  0.4572150000000  0.4196010000000  0.5052840000000 1.0
C      1  0.5991160000000  0.6048580000000  0.4486650000000 1.0
C      1  0.4066040000000  0.4354610000000  0.5499830000000 1.0
C      1  0.5294870000000  0.5556670000000  0.4271670000000 1.0
C      1  0.5076120000000  0.5585760000000  0.5025450000000 1.0
C      1  0.5158750000000  0.3885010000000  0.4239770000000 1.0
C      1  0.5201800000000  0.4379630000000  0.5101230000000 1.0
C      1  0.5187560000000  0.4109710000000  0.4710450000000 1.0
C      1  0.4673880000000  0.5059480000000  0.5317170000000 1.0
C      1  0.5366030000000  0.5514980000000  0.5019530000000 1.0
END
