TITL C-3866673-4222-130 2.65849113498969e-06 125000 -653.619743297311 0 0 109 (C1) n - 1
REM
REM in /home/nfs/bkarasulu/CARBON/AIRSS/Generating-Clusters/LCBOP/Only-C1/SD-CG/HFTN-CG/FIRE-CG
REM
REM
REM
REM
REM
REM ./C.cell (11c1c37f851c82e70ff6c80c92926a4b)
REM AIRSS Version 0.9.1 bugfix July 2018 build 013d7b7c2542+ Fri, 06 Jul 2018 19:26:36 +0100
REM compiler GCC version 9.2.1 20190827 (Red Hat 9.2.1-1)
REM options -cpp -mtune=generic -march=x86-64 -g -O0 -fpre-include=/usr/include/finclude/math-vector-fortran.h
REM seed 1715612877 -1386885221 583308136 -189044185 -454837572 1117965639 -1660423299 -1857596724 663869201 468996469 -199555384 38385765 841138503 -509256585 1511065240 1407729005 -1731519555 -697074646 -747640989 -599583027 1773314700 494248409 -126424669 -1752467219 1305744225 -1301207741 -602651458 -88702176 -292566458 1237723854 -256110190 -1258459373 -1165465141
REM
CELL 1.54180   50.00000   50.00000   50.00000   90.00000   90.00000   90.00000
LATT -1
SFAC C  
C      1  0.4624970000000  0.5206890000000  0.5871510000000 1.0
C      1  0.5640850000000  0.5679950000000  0.5038580000000 1.0
C      1  0.5127500000000  0.4904510000000  0.4022820000000 1.0
C      1  0.5565990000000  0.4454470000000  0.5601110000000 1.0
C      1  0.5036140000000  0.4522560000000  0.5607370000000 1.0
C      1  0.4580170000000  0.4932340000000  0.5782690000000 1.0
C      1  0.4818580000000  0.4551980000000  0.4697060000000 1.0
C      1  0.5739880000000  0.5213780000000  0.5310120000000 1.0
C      1  0.4034770000000  0.5054310000000  0.4728620000000 1.0
C      1  0.4355290000000  0.5696420000000  0.5368620000000 1.0
C      1  0.5031300000000  0.6079660000000  0.4717250000000 1.0
C      1  0.4529770000000  0.4364280000000  0.4040000000000 1.0
C      1  0.5179920000000  0.5356550000000  0.5500220000000 1.0
C      1  0.4726490000000  0.5437370000000  0.4219900000000 1.0
C      1  0.5078730000000  0.4577950000000  0.4593440000000 1.0
C      1  0.5265220000000  0.4691680000000  0.4785310000000 1.0
C      1  0.5690280000000  0.4284990000000  0.4836560000000 1.0
C      1  0.4899930000000  0.5612930000000  0.5732350000000 1.0
C      1  0.4905860000000  0.5379860000000  0.6264870000000 1.0
C      1  0.4413470000000  0.4725230000000  0.5299040000000 1.0
C      1  0.3878210000000  0.5689590000000  0.5252150000000 1.0
C      1  0.5439090000000  0.5821250000000  0.5298930000000 1.0
C      1  0.4920570000000  0.4503160000000  0.5135070000000 1.0
C      1  0.4831680000000  0.4917790000000  0.4421990000000 1.0
C      1  0.5008410000000  0.4914110000000  0.5301410000000 1.0
C      1  0.4159140000000  0.5143650000000  0.5327480000000 1.0
C      1  0.5207390000000  0.5620320000000  0.4391630000000 1.0
C      1  0.5295050000000  0.4379310000000  0.4216370000000 1.0
C      1  0.3947590000000  0.5234990000000  0.5163710000000 1.0
C      1  0.5550710000000  0.4387580000000  0.4347610000000 1.0
C      1  0.4870260000000  0.5033050000000  0.5087330000000 1.0
C      1  0.4948420000000  0.4762190000000  0.4196700000000 1.0
C      1  0.5427900000000  0.4998400000000  0.4788470000000 1.0
C      1  0.5881920000000  0.4777150000000  0.5487670000000 1.0
C      1  0.5691350000000  0.4623900000000  0.4278590000000 1.0
C      1  0.4596010000000  0.4190120000000  0.4619410000000 1.0
C      1  0.5218310000000  0.5422740000000  0.4995940000000 1.0
C      1  0.4964930000000  0.5402790000000  0.4873370000000 1.0
C      1  0.4418060000000  0.4516970000000  0.4246450000000 1.0
C      1  0.6007910000000  0.4620690000000  0.5054500000000 1.0
C      1  0.4712000000000  0.4541200000000  0.4953360000000 1.0
C      1  0.5329230000000  0.4055120000000  0.4613880000000 1.0
C      1  0.5409200000000  0.5672770000000  0.5776830000000 1.0
C      1  0.5033670000000  0.5061710000000  0.4556730000000 1.0
C      1  0.5295820000000  0.5164100000000  0.5695700000000 1.0
C      1  0.4486740000000  0.4955570000000  0.4849590000000 1.0
C      1  0.4411080000000  0.5020490000000  0.4318900000000 1.0
C      1  0.4186150000000  0.4541840000000  0.4661500000000 1.0
C      1  0.3772960000000  0.5437410000000  0.5260670000000 1.0
C      1  0.5706670000000  0.4337960000000  0.5354060000000 1.0
C      1  0.5914930000000  0.4458070000000  0.4846570000000 1.0
C      1  0.5921330000000  0.4535320000000  0.5315580000000 1.0
C      1  0.4150170000000  0.5703850000000  0.5166110000000 1.0
C      1  0.5297470000000  0.4475090000000  0.5512790000000 1.0
C      1  0.5085260000000  0.4536710000000  0.4312950000000 1.0
C      1  0.4564280000000  0.5853400000000  0.4727670000000 1.0
C      1  0.4637850000000  0.4220340000000  0.3851560000000 1.0
C      1  0.5934340000000  0.5008170000000  0.5314820000000 1.0
C      1  0.5555460000000  0.4228360000000  0.4587820000000 1.0
C      1  0.5433440000000  0.5318450000000  0.4818110000000 1.0
C      1  0.4393580000000  0.4399130000000  0.4514690000000 1.0
C      1  0.4511770000000  0.5268000000000  0.4208090000000 1.0
C      1  0.5137960000000  0.5644440000000  0.5913740000000 1.0
C      1  0.5358600000000  0.5006500000000  0.4162370000000 1.0
C      1  0.4310600000000  0.4784340000000  0.4185160000000 1.0
C      1  0.5261360000000  0.5130910000000  0.4399480000000 1.0
C      1  0.5342630000000  0.4618680000000  0.5259910000000 1.0
C      1  0.4059390000000  0.4783150000000  0.4695360000000 1.0
C      1  0.4051340000000  0.5289160000000  0.4893500000000 1.0
C      1  0.5094620000000  0.5551640000000  0.6177240000000 1.0
C      1  0.4109060000000  0.4808570000000  0.4000020000000 1.0
C      1  0.4566600000000  0.4952410000000  0.4552400000000 1.0
C      1  0.4917870000000  0.4558280000000  0.5856630000000 1.0
C      1  0.5475970000000  0.5116230000000  0.5256350000000 1.0
C      1  0.4431980000000  0.5231770000000  0.5308860000000 1.0
C      1  0.5741400000000  0.5497490000000  0.5348430000000 1.0
C      1  0.5305650000000  0.4895840000000  0.5289400000000 1.0
C      1  0.5571400000000  0.5669670000000  0.5525300000000 1.0
C      1  0.5156760000000  0.5815570000000  0.5327400000000 1.0
C      1  0.4709610000000  0.5243590000000  0.6140770000000 1.0
C      1  0.5034680000000  0.5609650000000  0.5482260000000 1.0
C      1  0.5196790000000  0.4545690000000  0.5030330000000 1.0
C      1  0.4727500000000  0.4735110000000  0.5926250000000 1.0
C      1  0.4679640000000  0.5431650000000  0.4920540000000 1.0
C      1  0.6187300000000  0.5055370000000  0.4883740000000 1.0
C      1  0.4839670000000  0.4088230000000  0.4733320000000 1.0
C      1  0.4446980000000  0.4825840000000  0.5550820000000 1.0
C      1  0.4477030000000  0.5604010000000  0.4824070000000 1.0
C      1  0.4492540000000  0.4709550000000  0.5021550000000 1.0
C      1  0.5600320000000  0.4859670000000  0.4179050000000 1.0
C      1  0.4966780000000  0.5549130000000  0.4283620000000 1.0
C      1  0.5567290000000  0.4210660000000  0.5100170000000 1.0
C      1  0.5292450000000  0.4069720000000  0.5079580000000 1.0
C      1  0.4493490000000  0.5466700000000  0.5468590000000 1.0
C      1  0.5476280000000  0.4955580000000  0.5745730000000 1.0
C      1  0.5130360000000  0.4059050000000  0.4822720000000 1.0
C      1  0.4769340000000  0.6024930000000  0.4714070000000 1.0
C      1  0.6054650000000  0.4906100000000  0.5068030000000 1.0
C      1  0.5281210000000  0.5985670000000  0.4684450000000 1.0
C      1  0.5384400000000  0.5737760000000  0.4590960000000 1.0
C      1  0.4592220000000  0.5167300000000  0.5060080000000 1.0
C      1  0.5659590000000  0.4735000000000  0.5670450000000 1.0
C      1  0.4905540000000  0.4649640000000  0.5384110000000 1.0
C      1  0.5200590000000  0.3928410000000  0.5297190000000 1.0
C      1  0.4972740000000  0.5111000000000  0.4823630000000 1.0
C      1  0.5289070000000  0.5328050000000  0.5246500000000 1.0
C      1  0.4656270000000  0.5445180000000  0.5707220000000 1.0
C      1  0.5561170000000  0.5577560000000  0.4771080000000 1.0
C      1  0.4209880000000  0.5549000000000  0.4917390000000 1.0
END
