TITL C-3866675-3766-736 -114.58275654065 125000 -1036.76868342511 0 0 168 (C1) n - 1
REM
REM in /home/nfs/bkarasulu/CARBON/AIRSS/Generating-Clusters/LCBOP/Only-C1/SD-CG/FIRE-CG
REM
REM
REM
REM
REM
REM ./C.cell (11c1c37f851c82e70ff6c80c92926a4b)
REM AIRSS Version 0.9.1 bugfix July 2018 build 013d7b7c2542+ Fri, 06 Jul 2018 19:26:36 +0100
REM compiler GCC version 9.2.1 20190827 (Red Hat 9.2.1-1)
REM options -cpp -mtune=generic -march=x86-64 -g -O0 -fpre-include=/usr/include/finclude/math-vector-fortran.h
REM seed -809011580 -1488820572 -2131628944 218125262 -534471380 -997261705 467511397 454355633 -1272172881 -157634819 -1023715604 -80999408 -1552183425 -1055984869 -206012548 244418654 1834618379 -909314181 -1292840168 1143918854 -519033779 735997482 1407186552 -1434822382 -279702985 1980851944 -2067586268 389043398 940736572 -1281827738 1358083107 2003784605 1194149091
REM
CELL 1.54180   50.00000   50.00000   50.00000   90.00000   90.00000   90.00000
LATT -1
SFAC C  
C      1  0.5221910000000  0.5081850000000  0.4560370000000 1.0
C      1  0.4549740000000  0.5053880000000  0.5514780000000 1.0
C      1  0.5354050000000  0.4599110000000  0.4591450000000 1.0
C      1  0.4098790000000  0.4292520000000  0.5114680000000 1.0
C      1  0.5257000000000  0.5561320000000  0.4780330000000 1.0
C      1  0.5518240000000  0.4373200000000  0.4470760000000 1.0
C      1  0.3848120000000  0.5265920000000  0.4468220000000 1.0
C      1  0.4983880000000  0.5044970000000  0.4128580000000 1.0
C      1  0.5028960000000  0.4693130000000  0.5125200000000 1.0
C      1  0.5624730000000  0.5651340000000  0.4411460000000 1.0
C      1  0.4609130000000  0.4136650000000  0.4189690000000 1.0
C      1  0.5702850000000  0.4664480000000  0.5312330000000 1.0
C      1  0.3616380000000  0.4936150000000  0.5687190000000 1.0
C      1  0.6772580000000  0.5400400000000  0.5748460000000 1.0
C      1  0.5227640000000  0.5837830000000  0.4687760000000 1.0
C      1  0.4810500000000  0.4312800000000  0.4100480000000 1.0
C      1  0.5298850000000  0.5744640000000  0.5216410000000 1.0
C      1  0.5281500000000  0.5285220000000  0.5169990000000 1.0
C      1  0.4732440000000  0.3926200000000  0.5378390000000 1.0
C      1  0.5252020000000  0.6090190000000  0.4213020000000 1.0
C      1  0.3956700000000  0.4996760000000  0.4863210000000 1.0
C      1  0.5017970000000  0.6165790000000  0.4991360000000 1.0
C      1  0.6192470000000  0.4661030000000  0.3944110000000 1.0
C      1  0.5962420000000  0.4493030000000  0.4310110000000 1.0
C      1  0.4315970000000  0.5305220000000  0.5068650000000 1.0
C      1  0.5099890000000  0.4876270000000  0.6102070000000 1.0
C      1  0.4914140000000  0.5671610000000  0.4264110000000 1.0
C      1  0.5429940000000  0.4629490000000  0.5369700000000 1.0
C      1  0.5068070000000  0.4206240000000  0.4158220000000 1.0
C      1  0.4282000000000  0.4584050000000  0.5867210000000 1.0
C      1  0.5297220000000  0.4306590000000  0.4029450000000 1.0
C      1  0.5298290000000  0.5118950000000  0.6116260000000 1.0
C      1  0.5718210000000  0.5933640000000  0.5114960000000 1.0
C      1  0.4182470000000  0.5872250000000  0.4652900000000 1.0
C      1  0.3824850000000  0.5489880000000  0.5197220000000 1.0
C      1  0.4365520000000  0.4675570000000  0.4961410000000 1.0
C      1  0.4931430000000  0.5255550000000  0.3931950000000 1.0
C      1  0.4045970000000  0.5357730000000  0.4307650000000 1.0
C      1  0.4210280000000  0.5082630000000  0.5849470000000 1.0
C      1  0.5506700000000  0.5499000000000  0.4178680000000 1.0
C      1  0.5327090000000  0.5529750000000  0.5047110000000 1.0
C      1  0.5907700000000  0.4032470000000  0.4877670000000 1.0
C      1  0.4931600000000  0.5469380000000  0.4470990000000 1.0
C      1  0.4824850000000  0.4494590000000  0.5176550000000 1.0
C      1  0.5518540000000  0.5899190000000  0.4579560000000 1.0
C      1  0.5331730000000  0.5168970000000  0.5628070000000 1.0
C      1  0.4205740000000  0.4743690000000  0.5422960000000 1.0
C      1  0.3686340000000  0.4077970000000  0.5263460000000 1.0
C      1  0.5375550000000  0.4091310000000  0.4517250000000 1.0
C      1  0.4527080000000  0.4429600000000  0.5837030000000 1.0
C      1  0.6125880000000  0.4950130000000  0.5562640000000 1.0
C      1  0.4420820000000  0.5887500000000  0.5123670000000 1.0
C      1  0.5160440000000  0.5397070000000  0.3833840000000 1.0
C      1  0.4873230000000  0.3838980000000  0.4839450000000 1.0
C      1  0.4879520000000  0.4114340000000  0.5856270000000 1.0
C      1  0.4503050000000  0.4112270000000  0.5383500000000 1.0
C      1  0.4614030000000  0.4047260000000  0.4459400000000 1.0
C      1  0.6030400000000  0.5512750000000  0.4684400000000 1.0
C      1  0.6213210000000  0.4597760000000  0.4214070000000 1.0
C      1  0.4426970000000  0.4762290000000  0.4658430000000 1.0
C      1  0.4099460000000  0.4526230000000  0.4949760000000 1.0
C      1  0.4714010000000  0.4932780000000  0.5353600000000 1.0
C      1  0.4774520000000  0.4844270000000  0.4219000000000 1.0
C      1  0.4524860000000  0.4211200000000  0.4902910000000 1.0
C      1  0.4895130000000  0.5751230000000  0.5768130000000 1.0
C      1  0.4882000000000  0.3915170000000  0.5637000000000 1.0
C      1  0.3770460000000  0.5135950000000  0.5583980000000 1.0
C      1  0.5151330000000  0.5791470000000  0.5662540000000 1.0
C      1  0.5938650000000  0.4270620000000  0.4756940000000 1.0
C      1  0.5464700000000  0.6116570000000  0.4379990000000 1.0
C      1  0.4014900000000  0.5636940000000  0.5366880000000 1.0
C      1  0.4486270000000  0.5138360000000  0.5766720000000 1.0
C      1  0.5525190000000  0.4405000000000  0.4154330000000 1.0
C      1  0.4434630000000  0.4188930000000  0.4630550000000 1.0
C      1  0.4119060000000  0.4574920000000  0.5631200000000 1.0
C      1  0.5064300000000  0.5899060000000  0.4197140000000 1.0
C      1  0.4660920000000  0.5657880000000  0.5680950000000 1.0
C      1  0.5354920000000  0.5347860000000  0.5852550000000 1.0
C      1  0.5778020000000  0.4496030000000  0.4071810000000 1.0
C      1  0.5163070000000  0.5907880000000  0.5397570000000 1.0
C      1  0.5043260000000  0.4308770000000  0.4829370000000 1.0
C      1  0.4667180000000  0.4814410000000  0.4499510000000 1.0
C      1  0.6545230000000  0.5505660000000  0.5282040000000 1.0
C      1  0.5710470000000  0.3855420000000  0.4829620000000 1.0
C      1  0.4683660000000  0.5051040000000  0.5955970000000 1.0
C      1  0.4568310000000  0.4334920000000  0.5560260000000 1.0
C      1  0.4783960000000  0.4316700000000  0.4958820000000 1.0
C      1  0.4533800000000  0.5386250000000  0.5242790000000 1.0
C      1  0.5872070000000  0.5621350000000  0.5744900000000 1.0
C      1  0.6112970000000  0.4879800000000  0.4836850000000 1.0
C      1  0.3899240000000  0.4241380000000  0.5310510000000 1.0
C      1  0.4303840000000  0.5459790000000  0.4350810000000 1.0
C      1  0.5688180000000  0.5873650000000  0.5381330000000 1.0
C      1  0.4943990000000  0.4974940000000  0.5870390000000 1.0
C      1  0.5673830000000  0.5950740000000  0.4845110000000 1.0
C      1  0.4872090000000  0.3951080000000  0.4564520000000 1.0
C      1  0.4297630000000  0.4847030000000  0.5180340000000 1.0
C      1  0.5458870000000  0.5207570000000  0.5378660000000 1.0
C      1  0.5913440000000  0.4519340000000  0.5435290000000 1.0
C      1  0.5265200000000  0.4307290000000  0.5013070000000 1.0
C      1  0.4079700000000  0.5642120000000  0.4797500000000 1.0
C      1  0.4358230000000  0.4167480000000  0.5135910000000 1.0
C      1  0.5916790000000  0.4247820000000  0.5454730000000 1.0
C      1  0.4980860000000  0.4587020000000  0.6117790000000 1.0
C      1  0.4892830000000  0.4718370000000  0.4637320000000 1.0
C      1  0.5935720000000  0.4602040000000  0.3855140000000 1.0
C      1  0.4769640000000  0.4592930000000  0.4076390000000 1.0
C      1  0.3938720000000  0.4373270000000  0.5557450000000 1.0
C      1  0.5499910000000  0.3889330000000  0.4666760000000 1.0
C      1  0.4534240000000  0.5528760000000  0.5485160000000 1.0
C      1  0.4792100000000  0.5385680000000  0.5111670000000 1.0
C      1  0.5819670000000  0.4394030000000  0.4536140000000 1.0
C      1  0.5152300000000  0.4952670000000  0.5661990000000 1.0
C      1  0.4196850000000  0.5829810000000  0.5264400000000 1.0
C      1  0.4791300000000  0.4377020000000  0.5981400000000 1.0
C      1  0.5085630000000  0.4522330000000  0.4646510000000 1.0
C      1  0.5041170000000  0.3692110000000  0.5677030000000 1.0
C      1  0.4162450000000  0.5067530000000  0.5070780000000 1.0
C      1  0.5038620000000  0.4496560000000  0.5600720000000 1.0
C      1  0.5156260000000  0.5359510000000  0.4611610000000 1.0
C      1  0.4286430000000  0.5441860000000  0.4825130000000 1.0
C      1  0.5384050000000  0.5636610000000  0.5752220000000 1.0
C      1  0.4936230000000  0.4944280000000  0.5189230000000 1.0
C      1  0.4173670000000  0.4651460000000  0.4529950000000 1.0
C      1  0.4517910000000  0.4905030000000  0.6146870000000 1.0
C      1  0.4619880000000  0.5815230000000  0.4936640000000 1.0
C      1  0.4671130000000  0.5639230000000  0.4115550000000 1.0
C      1  0.5107230000000  0.4055870000000  0.4408550000000 1.0
C      1  0.5281600000000  0.4558140000000  0.5143190000000 1.0
C      1  0.5761940000000  0.4903950000000  0.5163190000000 1.0
C      1  0.4707700000000  0.5443220000000  0.4638920000000 1.0
C      1  0.5045250000000  0.6126900000000  0.5260310000000 1.0
C      1  0.5995990000000  0.5398850000000  0.5668290000000 1.0
C      1  0.5409560000000  0.4875900000000  0.4651620000000 1.0
C      1  0.4241600000000  0.4366550000000  0.4503450000000 1.0
C      1  0.4443350000000  0.5899280000000  0.4502360000000 1.0
C      1  0.3849810000000  0.5489750000000  0.4906710000000 1.0
C      1  0.3701070000000  0.5275680000000  0.5342700000000 1.0
C      1  0.5846640000000  0.4921480000000  0.4890800000000 1.0
C      1  0.5513470000000  0.5209220000000  0.4242840000000 1.0
C      1  0.4988590000000  0.6014800000000  0.4742980000000 1.0
C      1  0.4805670000000  0.4446050000000  0.5451210000000 1.0
C      1  0.5011830000000  0.5204990000000  0.5141560000000 1.0
C      1  0.5803690000000  0.5454250000000  0.4536440000000 1.0
C      1  0.4437300000000  0.5383640000000  0.4594980000000 1.0
C      1  0.6224080000000  0.5538490000000  0.4863260000000 1.0
C      1  0.6394810000000  0.5534720000000  0.5065840000000 1.0
C      1  0.5711490000000  0.5187070000000  0.4471720000000 1.0
C      1  0.4693630000000  0.5415080000000  0.3940350000000 1.0
C      1  0.3974610000000  0.4707350000000  0.4752110000000 1.0
C      1  0.5671920000000  0.4984040000000  0.4673460000000 1.0
C      1  0.4442590000000  0.5703800000000  0.4272410000000 1.0
C      1  0.4749310000000  0.5560070000000  0.4898090000000 1.0
C      1  0.4058090000000  0.5508500000000  0.5622810000000 1.0
C      1  0.5245800000000  0.5075840000000  0.4265890000000 1.0
C      1  0.5364220000000  0.5542310000000  0.3939080000000 1.0
C      1  0.5242950000000  0.4690520000000  0.5581820000000 1.0
C      1  0.4825920000000  0.3834350000000  0.5113430000000 1.0
C      1  0.6868810000000  0.5340870000000  0.5983310000000 1.0
C      1  0.5639460000000  0.5734500000000  0.5634050000000 1.0
C      1  0.4006890000000  0.5238610000000  0.5714770000000 1.0
C      1  0.3825930000000  0.5233470000000  0.4751320000000 1.0
C      1  0.6115330000000  0.4682990000000  0.5543640000000 1.0
C      1  0.4689770000000  0.5959420000000  0.4684890000000 1.0
C      1  0.5732750000000  0.5132450000000  0.5335100000000 1.0
C      1  0.5956240000000  0.5170460000000  0.5515120000000 1.0
C      1  0.6669520000000  0.5458400000000  0.5511250000000 1.0
C      1  0.4264060000000  0.4832300000000  0.6015820000000 1.0
END
