TITL C-3866671-3735-415 -235.954231728259 125000 -1218.52412782619 0 0 198 (C1) n - 1
REM
REM in /home/nfs/bkarasulu/CARBON/AIRSS/Generating-Clusters/LCBOP/Only-C1/SD-CG/FIRE-CG
REM
REM
REM
REM
REM
REM ./C.cell (11c1c37f851c82e70ff6c80c92926a4b)
REM AIRSS Version 0.9.1 bugfix July 2018 build 013d7b7c2542+ Fri, 06 Jul 2018 19:26:36 +0100
REM compiler GCC version 9.2.1 20190827 (Red Hat 9.2.1-1)
REM options -cpp -mtune=generic -march=x86-64 -g -O0 -fpre-include=/usr/include/finclude/math-vector-fortran.h
REM seed 1846699731 463488960 -945743953 2081822426 1319376599 -560762697 -2065331311 -1293667852 -236765807 1222726200 -107303375 -1387360852 334160256 1670610878 1217539282 -929037950 -1680557529 1038189924 -705808443 1324768022 -165624561 -205066142 1429654012 -683830804 -1507705755 -190742909 -454641736 1400996186 -1877515736 -1677838944 -706222636 -1703594241 -1948096783
REM
CELL 1.54180   50.00000   50.00000   50.00000   90.00000   90.00000   90.00000
LATT -1
SFAC C  
C      1  0.5249270000000  0.4941340000000  0.5614960000000 1.0
C      1  0.4894850000000  0.4082910000000  0.4709930000000 1.0
C      1  0.5032630000000  0.5687400000000  0.4607450000000 1.0
C      1  0.5163650000000  0.5964260000000  0.6097630000000 1.0
C      1  0.4122990000000  0.5854280000000  0.5055030000000 1.0
C      1  0.4712650000000  0.3950530000000  0.5277790000000 1.0
C      1  0.5288870000000  0.6152610000000  0.4601140000000 1.0
C      1  0.4505740000000  0.5893010000000  0.4261380000000 1.0
C      1  0.4966460000000  0.5206170000000  0.4553120000000 1.0
C      1  0.4457050000000  0.4625310000000  0.3909200000000 1.0
C      1  0.4719460000000  0.4689290000000  0.3791900000000 1.0
C      1  0.5776520000000  0.5511970000000  0.5501560000000 1.0
C      1  0.5976320000000  0.5582220000000  0.4244270000000 1.0
C      1  0.4102970000000  0.4840060000000  0.4249470000000 1.0
C      1  0.5852570000000  0.4606070000000  0.5027470000000 1.0
C      1  0.5301690000000  0.4135400000000  0.5743220000000 1.0
C      1  0.4229590000000  0.5455720000000  0.5238000000000 1.0
C      1  0.6013210000000  0.4807310000000  0.4214100000000 1.0
C      1  0.5729230000000  0.4364460000000  0.5472640000000 1.0
C      1  0.4109850000000  0.5520110000000  0.4656670000000 1.0
C      1  0.4913040000000  0.5892750000000  0.4452760000000 1.0
C      1  0.4357730000000  0.6041820000000  0.5076330000000 1.0
C      1  0.4136160000000  0.4357840000000  0.4475330000000 1.0
C      1  0.5205160000000  0.5308510000000  0.3885000000000 1.0
C      1  0.5582380000000  0.5459180000000  0.4670570000000 1.0
C      1  0.6556390000000  0.4049620000000  0.4751120000000 1.0
C      1  0.4508160000000  0.6097700000000  0.4467150000000 1.0
C      1  0.5806080000000  0.4682280000000  0.4360400000000 1.0
C      1  0.5441420000000  0.5266400000000  0.5263750000000 1.0
C      1  0.5128750000000  0.5060070000000  0.5021260000000 1.0
C      1  0.4678200000000  0.4213810000000  0.5361610000000 1.0
C      1  0.5180040000000  0.4440990000000  0.4885260000000 1.0
C      1  0.6312510000000  0.4967130000000  0.5962080000000 1.0
C      1  0.5148390000000  0.4209500000000  0.4694120000000 1.0
C      1  0.4339980000000  0.5842410000000  0.5504930000000 1.0
C      1  0.4205180000000  0.4183550000000  0.4704350000000 1.0
C      1  0.4969720000000  0.5712440000000  0.4881190000000 1.0
C      1  0.3856200000000  0.4742940000000  0.4691210000000 1.0
C      1  0.4818960000000  0.5965050000000  0.4888140000000 1.0
C      1  0.5114800000000  0.4455260000000  0.5451710000000 1.0
C      1  0.5699440000000  0.5253340000000  0.4823080000000 1.0
C      1  0.4733200000000  0.4416910000000  0.5750020000000 1.0
C      1  0.5240480000000  0.5486930000000  0.6054000000000 1.0
C      1  0.5665150000000  0.4493220000000  0.4845140000000 1.0
C      1  0.4944190000000  0.4594140000000  0.4792770000000 1.0
C      1  0.5727290000000  0.5241730000000  0.5630440000000 1.0
C      1  0.4975060000000  0.4734270000000  0.4556950000000 1.0
C      1  0.5055990000000  0.4440520000000  0.4069120000000 1.0
C      1  0.3486260000000  0.5094770000000  0.5710430000000 1.0
C      1  0.5718570000000  0.3792650000000  0.5247480000000 1.0
C      1  0.4523530000000  0.4165980000000  0.6128960000000 1.0
C      1  0.4363440000000  0.4171640000000  0.6334500000000 1.0
C      1  0.5612010000000  0.4816980000000  0.5356750000000 1.0
C      1  0.5090720000000  0.3938560000000  0.5631330000000 1.0
C      1  0.5667420000000  0.5876270000000  0.4487830000000 1.0
C      1  0.4536410000000  0.6007000000000  0.5331060000000 1.0
C      1  0.4390980000000  0.5679230000000  0.5735400000000 1.0
C      1  0.4737930000000  0.4851770000000  0.5184810000000 1.0
C      1  0.5057170000000  0.4519330000000  0.6090090000000 1.0
C      1  0.5937950000000  0.5812430000000  0.4415160000000 1.0
C      1  0.5621890000000  0.4964130000000  0.3962340000000 1.0
C      1  0.4312540000000  0.4915470000000  0.5102570000000 1.0
C      1  0.5990050000000  0.5567310000000  0.5275450000000 1.0
C      1  0.4430710000000  0.5087220000000  0.3881290000000 1.0
C      1  0.4233030000000  0.5499760000000  0.5910430000000 1.0
C      1  0.5740350000000  0.5959680000000  0.5146610000000 1.0
C      1  0.5165310000000  0.4958630000000  0.4571890000000 1.0
C      1  0.4863390000000  0.6035310000000  0.5335630000000 1.0
C      1  0.3976620000000  0.5670580000000  0.4866750000000 1.0
C      1  0.5670660000000  0.4872020000000  0.4525170000000 1.0
C      1  0.5017830000000  0.5350430000000  0.5553730000000 1.0
C      1  0.5154900000000  0.4995950000000  0.6157890000000 1.0
C      1  0.4539400000000  0.5391320000000  0.4805120000000 1.0
C      1  0.3587680000000  0.4707800000000  0.5250980000000 1.0
C      1  0.4873730000000  0.5606470000000  0.4073520000000 1.0
C      1  0.5335650000000  0.4094530000000  0.4509030000000 1.0
C      1  0.6141430000000  0.5877200000000  0.4902860000000 1.0
C      1  0.4884990000000  0.5601760000000  0.5586070000000 1.0
C      1  0.3987170000000  0.5269350000000  0.4572190000000 1.0
C      1  0.5421330000000  0.4971830000000  0.4421720000000 1.0
C      1  0.3738560000000  0.4929100000000  0.5166780000000 1.0
C      1  0.4188530000000  0.5212120000000  0.5978850000000 1.0
C      1  0.4294270000000  0.4854090000000  0.4002060000000 1.0
C      1  0.4974680000000  0.5114540000000  0.3807560000000 1.0
C      1  0.5204520000000  0.4316940000000  0.5966510000000 1.0
C      1  0.6056410000000  0.3923570000000  0.4769490000000 1.0
C      1  0.4155060000000  0.5717680000000  0.5313180000000 1.0
C      1  0.4368830000000  0.4374790000000  0.4004620000000 1.0
C      1  0.4695550000000  0.5205540000000  0.3875200000000 1.0
C      1  0.4786390000000  0.5838350000000  0.4200940000000 1.0
C      1  0.5793980000000  0.4597100000000  0.5313890000000 1.0
C      1  0.4658010000000  0.4242520000000  0.4750160000000 1.0
C      1  0.3299460000000  0.4303250000000  0.5435070000000 1.0
C      1  0.6025600000000  0.5300460000000  0.4287480000000 1.0
C      1  0.5130830000000  0.5447560000000  0.4526510000000 1.0
C      1  0.6689320000000  0.4277980000000  0.4783410000000 1.0
C      1  0.5288010000000  0.4896560000000  0.4848450000000 1.0
C      1  0.5509980000000  0.5070340000000  0.5493600000000 1.0
C      1  0.4697050000000  0.4179680000000  0.5912810000000 1.0
C      1  0.6502730000000  0.4742720000000  0.4878090000000 1.0
C      1  0.6320860000000  0.3926290000000  0.4746650000000 1.0
C      1  0.4765110000000  0.5207560000000  0.4787880000000 1.0
C      1  0.4825900000000  0.4483940000000  0.4207520000000 1.0
C      1  0.5229670000000  0.5750270000000  0.5937930000000 1.0
C      1  0.4247610000000  0.4278490000000  0.4224490000000 1.0
C      1  0.6071040000000  0.5060750000000  0.5933200000000 1.0
C      1  0.5979110000000  0.4834060000000  0.4908230000000 1.0
C      1  0.4894370000000  0.4310170000000  0.5528770000000 1.0
C      1  0.5194910000000  0.5313830000000  0.5133530000000 1.0
C      1  0.5207270000000  0.4486410000000  0.5187960000000 1.0
C      1  0.4142540000000  0.5071950000000  0.4433200000000 1.0
C      1  0.5626660000000  0.3875640000000  0.5003660000000 1.0
C      1  0.4942960000000  0.4785370000000  0.6143670000000 1.0
C      1  0.5367900000000  0.3797690000000  0.4907260000000 1.0
C      1  0.6187030000000  0.5331920000000  0.4820950000000 1.0
C      1  0.3758050000000  0.5098040000000  0.5648020000000 1.0
C      1  0.4312610000000  0.5040340000000  0.5363070000000 1.0
C      1  0.4745430000000  0.5356280000000  0.4113000000000 1.0
C      1  0.4609920000000  0.4604800000000  0.5108680000000 1.0
C      1  0.4977960000000  0.6130950000000  0.5065780000000 1.0
C      1  0.4522150000000  0.5092150000000  0.5558010000000 1.0
C      1  0.5411070000000  0.4624540000000  0.4806830000000 1.0
C      1  0.5376900000000  0.4718950000000  0.5222570000000 1.0
C      1  0.5549300000000  0.4210810000000  0.5610440000000 1.0
C      1  0.3445350000000  0.4502040000000  0.5337870000000 1.0
C      1  0.5111470000000  0.3798530000000  0.5054600000000 1.0
C      1  0.5618460000000  0.5166660000000  0.6096030000000 1.0
C      1  0.5005830000000  0.3859450000000  0.5338860000000 1.0
C      1  0.5289000000000  0.5800580000000  0.5653630000000 1.0
C      1  0.5993290000000  0.5833990000000  0.5147820000000 1.0
C      1  0.5444040000000  0.5213660000000  0.4279890000000 1.0
C      1  0.3526450000000  0.5551630000000  0.5067920000000 1.0
C      1  0.4640160000000  0.5552230000000  0.5707950000000 1.0
C      1  0.4383410000000  0.5015680000000  0.6103140000000 1.0
C      1  0.5222250000000  0.4657290000000  0.5629360000000 1.0
C      1  0.3846290000000  0.5107300000000  0.5373500000000 1.0
C      1  0.5715920000000  0.4264210000000  0.4685030000000 1.0
C      1  0.5659650000000  0.5290830000000  0.5093300000000 1.0
C      1  0.4352420000000  0.4910970000000  0.4836510000000 1.0
C      1  0.3780420000000  0.4957550000000  0.4880610000000 1.0
C      1  0.6257810000000  0.4841540000000  0.4906090000000 1.0
C      1  0.4848850000000  0.5031050000000  0.5000540000000 1.0
C      1  0.3952750000000  0.5106080000000  0.5855230000000 1.0
C      1  0.5315420000000  0.5810390000000  0.4139170000000 1.0
C      1  0.5812980000000  0.5154550000000  0.5889250000000 1.0
C      1  0.4384260000000  0.5526130000000  0.4605400000000 1.0
C      1  0.4990070000000  0.4821640000000  0.3808890000000 1.0
C      1  0.4769060000000  0.4707290000000  0.4369900000000 1.0
C      1  0.4765860000000  0.5180950000000  0.4332250000000 1.0
C      1  0.5558780000000  0.4263970000000  0.4429260000000 1.0
C      1  0.5194760000000  0.6213660000000  0.4866600000000 1.0
C      1  0.4739190000000  0.6058090000000  0.4630910000000 1.0
C      1  0.5611380000000  0.4497120000000  0.4238140000000 1.0
C      1  0.4477020000000  0.5443340000000  0.5085240000000 1.0
C      1  0.4597920000000  0.4622900000000  0.5592290000000 1.0
C      1  0.5798570000000  0.4021580000000  0.4818990000000 1.0
C      1  0.3790860000000  0.5226860000000  0.4782390000000 1.0
C      1  0.5360780000000  0.3824340000000  0.4614820000000 1.0
C      1  0.4100860000000  0.5228220000000  0.5340740000000 1.0
C      1  0.6122110000000  0.5871580000000  0.4630420000000 1.0
C      1  0.5051940000000  0.5262510000000  0.6069880000000 1.0
C      1  0.5604210000000  0.5732650000000  0.4728960000000 1.0
C      1  0.4991380000000  0.5520830000000  0.5088720000000 1.0
C      1  0.4404280000000  0.5648030000000  0.4352690000000 1.0
C      1  0.5003500000000  0.5066980000000  0.5561350000000 1.0
C      1  0.5399380000000  0.5412340000000  0.4463830000000 1.0
C      1  0.4527020000000  0.4461050000000  0.5336580000000 1.0
C      1  0.4440600000000  0.4073880000000  0.4843530000000 1.0
C      1  0.3155430000000  0.4108790000000  0.5532040000000 1.0
C      1  0.5799210000000  0.4996530000000  0.4746560000000 1.0
C      1  0.6153890000000  0.5270930000000  0.4553550000000 1.0
C      1  0.5549510000000  0.5703840000000  0.5556390000000 1.0
C      1  0.4608500000000  0.4943810000000  0.4386230000000 1.0
C      1  0.3747380000000  0.5485450000000  0.4923030000000 1.0
C      1  0.3230410000000  0.5087570000000  0.5759460000000 1.0
C      1  0.4609990000000  0.3880750000000  0.5012380000000 1.0
C      1  0.4620760000000  0.5275350000000  0.5762040000000 1.0
C      1  0.5560440000000  0.5871260000000  0.4967120000000 1.0
C      1  0.5153750000000  0.5589170000000  0.3999140000000 1.0
C      1  0.4743100000000  0.4896060000000  0.5489470000000 1.0
C      1  0.5487440000000  0.4681850000000  0.4012090000000 1.0
C      1  0.4876830000000  0.3841970000000  0.4871790000000 1.0
C      1  0.4731800000000  0.5480710000000  0.5205600000000 1.0
C      1  0.4698020000000  0.4491930000000  0.4869680000000 1.0
C      1  0.4385690000000  0.4982430000000  0.4565370000000 1.0
C      1  0.6667170000000  0.4538800000000  0.4832080000000 1.0
C      1  0.6129470000000  0.5387660000000  0.5085950000000 1.0
C      1  0.5502910000000  0.5419780000000  0.6144090000000 1.0
C      1  0.5417960000000  0.5980210000000  0.4375560000000 1.0
C      1  0.5933750000000  0.5063800000000  0.4119280000000 1.0
C      1  0.5200530000000  0.4650750000000  0.3935060000000 1.0
C      1  0.5439340000000  0.5185100000000  0.3999440000000 1.0
C      1  0.4859370000000  0.3954160000000  0.5821750000000 1.0
C      1  0.4782550000000  0.5198300000000  0.5984100000000 1.0
C      1  0.5436510000000  0.4960250000000  0.6165530000000 1.0
C      1  0.5025740000000  0.5844580000000  0.5510150000000 1.0
C      1  0.4677390000000  0.4949740000000  0.6108060000000 1.0
C      1  0.4008360000000  0.4626130000000  0.4461210000000 1.0
END
