TITL C-3866672-3872-760 5.90908466779232e-05 125000 -865.468408350109 0 0 142 (C1) n - 1
REM
REM in /home/nfs/bkarasulu/CARBON/AIRSS/Generating-Clusters/LCBOP/Only-C1/SD-CG/FIRE-CG
REM
REM
REM
REM
REM
REM ./C.cell (11c1c37f851c82e70ff6c80c92926a4b)
REM AIRSS Version 0.9.1 bugfix July 2018 build 013d7b7c2542+ Fri, 06 Jul 2018 19:26:36 +0100
REM compiler GCC version 9.2.1 20190827 (Red Hat 9.2.1-1)
REM options -cpp -mtune=generic -march=x86-64 -g -O0 -fpre-include=/usr/include/finclude/math-vector-fortran.h
REM seed -1273785616 -575424340 -614153380 1320239635 -1502442560 1775854143 -1909993894 -1755474284 1546877873 -394485245 -1435534473 1583318659 1089078921 -455442673 -1442272380 721282037 797603642 -339410292 -2023307082 -82391731 -1845352557 -522553655 -1371125146 590141963 776373149 1824271814 1785776061 78111185 -1406480944 -648212733 -1672267620 1815910095 -556619845
REM
CELL 1.54180   50.00000   50.00000   50.00000   90.00000   90.00000   90.00000
LATT -1
SFAC C  
C      1  0.5208940000000  0.5191710000000  0.5512530000000 1.0
C      1  0.5197280000000  0.5629020000000  0.6061630000000 1.0
C      1  0.4049020000000  0.4430200000000  0.4949110000000 1.0
C      1  0.4665010000000  0.5380220000000  0.4963620000000 1.0
C      1  0.4466460000000  0.5208770000000  0.4098510000000 1.0
C      1  0.5507040000000  0.5999040000000  0.5276710000000 1.0
C      1  0.4268110000000  0.5158190000000  0.4636210000000 1.0
C      1  0.5646870000000  0.4926420000000  0.4244120000000 1.0
C      1  0.4138680000000  0.4375230000000  0.5207280000000 1.0
C      1  0.5332680000000  0.4075770000000  0.5136980000000 1.0
C      1  0.4072640000000  0.5321980000000  0.4762660000000 1.0
C      1  0.5210240000000  0.5854490000000  0.4374730000000 1.0
C      1  0.4417240000000  0.3552820000000  0.5218800000000 1.0
C      1  0.3962000000000  0.4929380000000  0.5075840000000 1.0
C      1  0.4489340000000  0.5042240000000  0.4765420000000 1.0
C      1  0.5814510000000  0.5344280000000  0.4769340000000 1.0
C      1  0.5919800000000  0.5076700000000  0.4767820000000 1.0
C      1  0.4486700000000  0.5078720000000  0.5302170000000 1.0
C      1  0.4817820000000  0.5417780000000  0.6288660000000 1.0
C      1  0.6083150000000  0.5285890000000  0.5976570000000 1.0
C      1  0.6036060000000  0.4984890000000  0.4526370000000 1.0
C      1  0.4651500000000  0.4176030000000  0.4282000000000 1.0
C      1  0.4746990000000  0.5992910000000  0.4662170000000 1.0
C      1  0.4620820000000  0.3989290000000  0.5198820000000 1.0
C      1  0.5451460000000  0.3900320000000  0.4686990000000 1.0
C      1  0.5387710000000  0.4064880000000  0.4484970000000 1.0
C      1  0.4693560000000  0.5985540000000  0.5437200000000 1.0
C      1  0.4260120000000  0.4756940000000  0.4019090000000 1.0
C      1  0.4545830000000  0.4531720000000  0.4576210000000 1.0
C      1  0.5053800000000  0.5428630000000  0.5584860000000 1.0
C      1  0.4684540000000  0.5349300000000  0.6501880000000 1.0
C      1  0.4017960000000  0.5578820000000  0.4690730000000 1.0
C      1  0.4326640000000  0.4447220000000  0.5402520000000 1.0
C      1  0.5075950000000  0.5095410000000  0.4767140000000 1.0
C      1  0.5404930000000  0.5323000000000  0.4516680000000 1.0
C      1  0.6044320000000  0.4870340000000  0.5180860000000 1.0
C      1  0.4320990000000  0.3850140000000  0.4852110000000 1.0
C      1  0.5582370000000  0.5725030000000  0.5715820000000 1.0
C      1  0.5413880000000  0.4706160000000  0.4743280000000 1.0
C      1  0.4498580000000  0.4252120000000  0.6089480000000 1.0
C      1  0.5056720000000  0.4508980000000  0.5156950000000 1.0
C      1  0.5486010000000  0.5157440000000  0.5583840000000 1.0
C      1  0.4354870000000  0.4503880000000  0.4010420000000 1.0
C      1  0.5924390000000  0.5019800000000  0.4269270000000 1.0
C      1  0.5894420000000  0.5615090000000  0.4711810000000 1.0
C      1  0.5195520000000  0.5086700000000  0.4033730000000 1.0
C      1  0.4951440000000  0.5486910000000  0.6054250000000 1.0
C      1  0.5437780000000  0.5757130000000  0.5442390000000 1.0
C      1  0.4924510000000  0.4375720000000  0.5877890000000 1.0
C      1  0.4604090000000  0.5865680000000  0.4894810000000 1.0
C      1  0.5042650000000  0.4684720000000  0.4220750000000 1.0
C      1  0.4960860000000  0.3961120000000  0.5534990000000 1.0
C      1  0.4963110000000  0.5923790000000  0.5500300000000 1.0
C      1  0.4450480000000  0.5626540000000  0.5610110000000 1.0
C      1  0.4801970000000  0.4599280000000  0.4109320000000 1.0
C      1  0.4452280000000  0.3792260000000  0.5092300000000 1.0
C      1  0.5192340000000  0.4283210000000  0.4448430000000 1.0
C      1  0.5234570000000  0.3618350000000  0.5824570000000 1.0
C      1  0.4599340000000  0.4402820000000  0.4108880000000 1.0
C      1  0.4805060000000  0.4120200000000  0.5363570000000 1.0
C      1  0.4969020000000  0.5420560000000  0.4395830000000 1.0
C      1  0.5127480000000  0.5182520000000  0.4490570000000 1.0
C      1  0.5538250000000  0.4788490000000  0.4474820000000 1.0
C      1  0.5973800000000  0.5049960000000  0.6039720000000 1.0
C      1  0.4720960000000  0.4612400000000  0.4778290000000 1.0
C      1  0.4984200000000  0.5173880000000  0.3862290000000 1.0
C      1  0.5225530000000  0.4903090000000  0.4904280000000 1.0
C      1  0.6231810000000  0.5695890000000  0.5769720000000 1.0
C      1  0.5135490000000  0.4813080000000  0.5169490000000 1.0
C      1  0.5519500000000  0.6003570000000  0.4744730000000 1.0
C      1  0.5527210000000  0.5356170000000  0.4776900000000 1.0
C      1  0.4532160000000  0.5344780000000  0.5206600000000 1.0
C      1  0.4569600000000  0.5592310000000  0.4811520000000 1.0
C      1  0.4282890000000  0.4041420000000  0.4653240000000 1.0
C      1  0.4555050000000  0.5399470000000  0.5749240000000 1.0
C      1  0.5075440000000  0.5835160000000  0.5081660000000 1.0
C      1  0.5859430000000  0.4876450000000  0.4967000000000 1.0
C      1  0.5012320000000  0.6112940000000  0.4724560000000 1.0
C      1  0.5141900000000  0.5701210000000  0.5510840000000 1.0
C      1  0.4846580000000  0.5413140000000  0.5795560000000 1.0
C      1  0.6038890000000  0.5506350000000  0.5807720000000 1.0
C      1  0.5639720000000  0.4676320000000  0.4957040000000 1.0
C      1  0.5239980000000  0.4477000000000  0.4222140000000 1.0
C      1  0.5572560000000  0.4492210000000  0.5174810000000 1.0
C      1  0.5094530000000  0.4957980000000  0.4277150000000 1.0
C      1  0.5980960000000  0.4517600000000  0.5490990000000 1.0
C      1  0.4575830000000  0.4831360000000  0.5191700000000 1.0
C      1  0.4711960000000  0.5162170000000  0.3956060000000 1.0
C      1  0.5180380000000  0.5605240000000  0.5001340000000 1.0
C      1  0.4573550000000  0.5859160000000  0.5191620000000 1.0
C      1  0.3993530000000  0.4713090000000  0.4880250000000 1.0
C      1  0.4916400000000  0.4162150000000  0.4389720000000 1.0
C      1  0.4515980000000  0.5902150000000  0.5653290000000 1.0
C      1  0.5409030000000  0.3899150000000  0.4951350000000 1.0
C      1  0.4504050000000  0.5713390000000  0.4290810000000 1.0
C      1  0.5038610000000  0.5268450000000  0.3611340000000 1.0
C      1  0.4966080000000  0.4491570000000  0.4863070000000 1.0
C      1  0.4573600000000  0.4572100000000  0.5321180000000 1.0
C      1  0.5264180000000  0.6027210000000  0.4593910000000 1.0
C      1  0.4974770000000  0.5698620000000  0.4356880000000 1.0
C      1  0.4169420000000  0.4976610000000  0.4440140000000 1.0
C      1  0.5095790000000  0.4949350000000  0.5420600000000 1.0
C      1  0.4728300000000  0.5835720000000  0.4415190000000 1.0
C      1  0.5096730000000  0.3785610000000  0.5679740000000 1.0
C      1  0.4042750000000  0.4945580000000  0.5356250000000 1.0
C      1  0.4764610000000  0.4276910000000  0.6067790000000 1.0
C      1  0.4998390000000  0.4788900000000  0.5630390000000 1.0
C      1  0.4273930000000  0.5052210000000  0.5492690000000 1.0
C      1  0.4462230000000  0.5599120000000  0.5317900000000 1.0
C      1  0.4615390000000  0.4837620000000  0.4913270000000 1.0
C      1  0.5752030000000  0.4429840000000  0.5382310000000 1.0
C      1  0.6117570000000  0.4729820000000  0.5397010000000 1.0
C      1  0.4282880000000  0.4992730000000  0.4175170000000 1.0
C      1  0.4372320000000  0.5173770000000  0.5735680000000 1.0
C      1  0.5320040000000  0.4353860000000  0.5180550000000 1.0
C      1  0.5199040000000  0.4473750000000  0.4689560000000 1.0
C      1  0.4930660000000  0.4518100000000  0.5638170000000 1.0
C      1  0.4300780000000  0.4310890000000  0.5919130000000 1.0
C      1  0.5782470000000  0.5468610000000  0.4183900000000 1.0
C      1  0.5420790000000  0.5726890000000  0.5948600000000 1.0
C      1  0.5531210000000  0.6081930000000  0.5020410000000 1.0
C      1  0.5667970000000  0.5348470000000  0.5479220000000 1.0
C      1  0.5789900000000  0.5523460000000  0.5678340000000 1.0
C      1  0.4840710000000  0.4419590000000  0.5364940000000 1.0
C      1  0.5975710000000  0.5276780000000  0.4151780000000 1.0
C      1  0.5422800000000  0.4432250000000  0.4024770000000 1.0
C      1  0.4162610000000  0.4289350000000  0.4719300000000 1.0
C      1  0.5548350000000  0.5509080000000  0.5270810000000 1.0
C      1  0.4896040000000  0.5246930000000  0.4909090000000 1.0
C      1  0.5526920000000  0.5369040000000  0.4254960000000 1.0
C      1  0.4423650000000  0.5477970000000  0.4184680000000 1.0
C      1  0.5471050000000  0.5122830000000  0.4101060000000 1.0
C      1  0.4265280000000  0.4509000000000  0.4561280000000 1.0
C      1  0.3921170000000  0.5184400000000  0.4956670000000 1.0
C      1  0.4093990000000  0.4741750000000  0.4592130000000 1.0
C      1  0.5570200000000  0.4965440000000  0.5768980000000 1.0
C      1  0.4443720000000  0.4037600000000  0.4417300000000 1.0
C      1  0.4263390000000  0.4397540000000  0.5670290000000 1.0
C      1  0.5757740000000  0.4917090000000  0.5953260000000 1.0
C      1  0.5743860000000  0.5839920000000  0.4667460000000 1.0
C      1  0.5421580000000  0.5466310000000  0.5018470000000 1.0
C      1  0.5038870000000  0.6090450000000  0.5005080000000 1.0
END
