TITL C-3866670-4165-533 0.0555004635422279 125000 -1030.14104337587 0 0 169 (C1) n - 1
REM
REM in /home/nfs/bkarasulu/CARBON/AIRSS/Generating-Clusters/LCBOP/Only-C1/SD-CG/FIRE-CG
REM
REM
REM
REM
REM
REM ./C.cell (11c1c37f851c82e70ff6c80c92926a4b)
REM AIRSS Version 0.9.1 bugfix July 2018 build 013d7b7c2542+ Fri, 06 Jul 2018 19:26:36 +0100
REM compiler GCC version 9.2.1 20190827 (Red Hat 9.2.1-1)
REM options -cpp -mtune=generic -march=x86-64 -g -O0 -fpre-include=/usr/include/finclude/math-vector-fortran.h
REM seed 1894779955 -181706575 -1433388898 55346356 1505508030 -184812731 150405094 16080621 1987371906 154946069 -1667658381 -1210104481 -658434129 -700269359 -825941062 1290568952 -730733116 1115838289 -1761023035 -138301697 -758263938 -1504054985 -1030753307 -1111027214 609384738 932450617 736376545 -2122517009 2007184715 -1397963126 2117676136 102632327 -877925514
REM
CELL 1.54180   50.00000   50.00000   50.00000   90.00000   90.00000   90.00000
LATT -1
SFAC C  
C      1  0.4980200000000  0.5049250000000  0.5812980000000 1.0
C      1  0.5154700000000  0.5193100000000  0.4217520000000 1.0
C      1  0.5641210000000  0.5641650000000  0.4381500000000 1.0
C      1  0.4392980000000  0.5625000000000  0.4473310000000 1.0
C      1  0.4545800000000  0.5657210000000  0.4234880000000 1.0
C      1  0.3983860000000  0.5065380000000  0.5365950000000 1.0
C      1  0.5879910000000  0.4626290000000  0.4897830000000 1.0
C      1  0.5701290000000  0.5330370000000  0.4701160000000 1.0
C      1  0.3982330000000  0.4705950000000  0.5633790000000 1.0
C      1  0.3876500000000  0.5239250000000  0.4961120000000 1.0
C      1  0.4716550000000  0.4097500000000  0.4274720000000 1.0
C      1  0.5898000000000  0.5155710000000  0.5912930000000 1.0
C      1  0.5083250000000  0.5038900000000  0.3979440000000 1.0
C      1  0.5029360000000  0.4361980000000  0.5352320000000 1.0
C      1  0.4637220000000  0.4001500000000  0.5197190000000 1.0
C      1  0.4421080000000  0.5438380000000  0.5343680000000 1.0
C      1  0.6064710000000  0.4258400000000  0.3887030000000 1.0
C      1  0.5222510000000  0.5541540000000  0.6077570000000 1.0
C      1  0.5417180000000  0.4660680000000  0.4605450000000 1.0
C      1  0.4902790000000  0.4739780000000  0.5115130000000 1.0
C      1  0.4100950000000  0.5205430000000  0.5144300000000 1.0
C      1  0.5442160000000  0.4707440000000  0.5340370000000 1.0
C      1  0.4783660000000  0.5716260000000  0.5827730000000 1.0
C      1  0.4414170000000  0.5287330000000  0.5799100000000 1.0
C      1  0.4162190000000  0.4447570000000  0.5241990000000 1.0
C      1  0.5850440000000  0.5501210000000  0.5528460000000 1.0
C      1  0.4808340000000  0.4360030000000  0.5537440000000 1.0
C      1  0.4160840000000  0.5156740000000  0.5842390000000 1.0
C      1  0.4670130000000  0.5283570000000  0.3926150000000 1.0
C      1  0.4781640000000  0.3854930000000  0.4425610000000 1.0
C      1  0.4562520000000  0.4305320000000  0.4399950000000 1.0
C      1  0.4863560000000  0.5295920000000  0.5735950000000 1.0
C      1  0.3960030000000  0.4608430000000  0.5355540000000 1.0
C      1  0.5893880000000  0.5120910000000  0.4600210000000 1.0
C      1  0.4720270000000  0.5452340000000  0.4142160000000 1.0
C      1  0.4752220000000  0.4948350000000  0.4523640000000 1.0
C      1  0.5143510000000  0.5656580000000  0.5829860000000 1.0
C      1  0.4468260000000  0.5202060000000  0.5520560000000 1.0
C      1  0.5749660000000  0.5042930000000  0.4363050000000 1.0
C      1  0.5335160000000  0.6024590000000  0.4639240000000 1.0
C      1  0.4574610000000  0.5049160000000  0.5062370000000 1.0
C      1  0.5154200000000  0.5126300000000  0.5104210000000 1.0
C      1  0.3851630000000  0.4836550000000  0.5210960000000 1.0
C      1  0.4147140000000  0.4602470000000  0.4359410000000 1.0
C      1  0.5317850000000  0.5121090000000  0.4460630000000 1.0
C      1  0.4274300000000  0.6073390000000  0.5124710000000 1.0
C      1  0.6071940000000  0.5228130000000  0.5213630000000 1.0
C      1  0.4037140000000  0.4855700000000  0.4263550000000 1.0
C      1  0.5361530000000  0.5275220000000  0.4999210000000 1.0
C      1  0.4339450000000  0.5157710000000  0.4696170000000 1.0
C      1  0.4390970000000  0.4490060000000  0.4256220000000 1.0
C      1  0.5937090000000  0.4448980000000  0.5313560000000 1.0
C      1  0.5568280000000  0.5307320000000  0.5198610000000 1.0
C      1  0.4658050000000  0.5450280000000  0.5860590000000 1.0
C      1  0.4883320000000  0.3988890000000  0.5034490000000 1.0
C      1  0.4365170000000  0.5843950000000  0.5589950000000 1.0
C      1  0.5057010000000  0.3818870000000  0.4436400000000 1.0
C      1  0.5417320000000  0.5073470000000  0.6205520000000 1.0
C      1  0.4383990000000  0.4521690000000  0.5070890000000 1.0
C      1  0.5222930000000  0.4808000000000  0.3892870000000 1.0
C      1  0.4591620000000  0.4864090000000  0.5496100000000 1.0
C      1  0.5409780000000  0.5841460000000  0.4414710000000 1.0
C      1  0.4213540000000  0.4181080000000  0.5339680000000 1.0
C      1  0.4014960000000  0.4553490000000  0.4622370000000 1.0
C      1  0.5668760000000  0.5364680000000  0.4229570000000 1.0
C      1  0.4969900000000  0.4138120000000  0.4121210000000 1.0
C      1  0.6150250000000  0.4668280000000  0.5300030000000 1.0
C      1  0.4651220000000  0.5881850000000  0.5632510000000 1.0
C      1  0.4395040000000  0.4436780000000  0.5721060000000 1.0
C      1  0.6158070000000  0.5746720000000  0.5196900000000 1.0
C      1  0.5328850000000  0.4788390000000  0.5564300000000 1.0
C      1  0.5610240000000  0.4184780000000  0.4998920000000 1.0
C      1  0.4470490000000  0.4966000000000  0.4533730000000 1.0
C      1  0.4755090000000  0.5203180000000  0.4912980000000 1.0
C      1  0.6273540000000  0.4822180000000  0.5079170000000 1.0
C      1  0.5167150000000  0.5861410000000  0.4253340000000 1.0
C      1  0.5413580000000  0.4195720000000  0.4352550000000 1.0
C      1  0.4645190000000  0.4802410000000  0.3900960000000 1.0
C      1  0.6095490000000  0.4832290000000  0.5536230000000 1.0
C      1  0.5503190000000  0.4890430000000  0.4430770000000 1.0
C      1  0.5097290000000  0.4878970000000  0.4981200000000 1.0
C      1  0.4797510000000  0.5909520000000  0.5384960000000 1.0
C      1  0.4547950000000  0.5993360000000  0.4743570000000 1.0
C      1  0.5294300000000  0.4262920000000  0.5441280000000 1.0
C      1  0.4899780000000  0.5932420000000  0.4342890000000 1.0
C      1  0.5570710000000  0.3966810000000  0.5178620000000 1.0
C      1  0.5463820000000  0.3891840000000  0.5655720000000 1.0
C      1  0.4247640000000  0.5672460000000  0.5383740000000 1.0
C      1  0.5252100000000  0.6082730000000  0.5179640000000 1.0
C      1  0.4965870000000  0.5417550000000  0.4562340000000 1.0
C      1  0.4662240000000  0.5913490000000  0.4187380000000 1.0
C      1  0.5573360000000  0.5768190000000  0.5034350000000 1.0
C      1  0.3926900000000  0.5451580000000  0.4765770000000 1.0
C      1  0.5422380000000  0.5266890000000  0.4715270000000 1.0
C      1  0.5049910000000  0.4319760000000  0.3921110000000 1.0
C      1  0.4899100000000  0.5631970000000  0.4766790000000 1.0
C      1  0.5528320000000  0.4346620000000  0.5630910000000 1.0
C      1  0.5550560000000  0.4114980000000  0.5816450000000 1.0
C      1  0.5790750000000  0.5124380000000  0.5144090000000 1.0
C      1  0.5024760000000  0.6176780000000  0.5036550000000 1.0
C      1  0.5757240000000  0.4862650000000  0.5019260000000 1.0
C      1  0.4617740000000  0.5539500000000  0.5165140000000 1.0
C      1  0.5319920000000  0.4749460000000  0.4865380000000 1.0
C      1  0.4687460000000  0.4869990000000  0.5233600000000 1.0
C      1  0.6032300000000  0.5527540000000  0.5291400000000 1.0
C      1  0.4311580000000  0.5099070000000  0.4982200000000 1.0
C      1  0.4886730000000  0.4459860000000  0.5105910000000 1.0
C      1  0.5370440000000  0.4218380000000  0.4832820000000 1.0
C      1  0.5775830000000  0.4483550000000  0.5566000000000 1.0
C      1  0.4801880000000  0.5037040000000  0.3900770000000 1.0
C      1  0.4967840000000  0.5404180000000  0.4281260000000 1.0
C      1  0.4153380000000  0.5809020000000  0.5136050000000 1.0
C      1  0.4644250000000  0.4117030000000  0.5478960000000 1.0
C      1  0.5856490000000  0.4222360000000  0.4039700000000 1.0
C      1  0.4949780000000  0.5393520000000  0.5468540000000 1.0
C      1  0.5384610000000  0.3979690000000  0.5391590000000 1.0
C      1  0.5787820000000  0.4891390000000  0.5920090000000 1.0
C      1  0.5504370000000  0.4755240000000  0.5078660000000 1.0
C      1  0.4500170000000  0.4614950000000  0.4025500000000 1.0
C      1  0.5316140000000  0.5321840000000  0.6199950000000 1.0
C      1  0.6113960000000  0.5112220000000  0.5495880000000 1.0
C      1  0.4835920000000  0.4753970000000  0.6236520000000 1.0
C      1  0.3901720000000  0.5013180000000  0.4465700000000 1.0
C      1  0.4563590000000  0.6105080000000  0.4022730000000 1.0
C      1  0.6109750000000  0.5516490000000  0.4666850000000 1.0
C      1  0.4632840000000  0.4424300000000  0.4950890000000 1.0
C      1  0.4916960000000  0.4895990000000  0.6033560000000 1.0
C      1  0.5192130000000  0.4027680000000  0.4287790000000 1.0
C      1  0.5348260000000  0.5603930000000  0.5614400000000 1.0
C      1  0.5567190000000  0.5476440000000  0.5453440000000 1.0
C      1  0.5882680000000  0.4718700000000  0.5708740000000 1.0
C      1  0.4881160000000  0.5629670000000  0.5284600000000 1.0
C      1  0.5632170000000  0.4120040000000  0.6079940000000 1.0
C      1  0.4064150000000  0.4297030000000  0.4743480000000 1.0
C      1  0.4024200000000  0.4994450000000  0.5647190000000 1.0
C      1  0.4774090000000  0.6107960000000  0.5167160000000 1.0
C      1  0.4879470000000  0.5157630000000  0.4665310000000 1.0
C      1  0.5712420000000  0.4144550000000  0.6326660000000 1.0
C      1  0.3871170000000  0.4815450000000  0.4693670000000 1.0
C      1  0.5823820000000  0.5583390000000  0.4612700000000 1.0
C      1  0.4372210000000  0.4184400000000  0.5579190000000 1.0
C      1  0.4202620000000  0.4094000000000  0.4867930000000 1.0
C      1  0.5061300000000  0.4608990000000  0.4278690000000 1.0
C      1  0.4532050000000  0.6107560000000  0.5010200000000 1.0
C      1  0.3795840000000  0.4943530000000  0.4940880000000 1.0
C      1  0.5826290000000  0.4378020000000  0.5049270000000 1.0
C      1  0.4445000000000  0.5420460000000  0.4661980000000 1.0
C      1  0.4894660000000  0.4729670000000  0.4441810000000 1.0
C      1  0.5643520000000  0.4192750000000  0.4194410000000 1.0
C      1  0.5070290000000  0.6095860000000  0.4757700000000 1.0
C      1  0.5403010000000  0.4365810000000  0.4584060000000 1.0
C      1  0.5143990000000  0.4986060000000  0.5591580000000 1.0
C      1  0.5143230000000  0.4567540000000  0.4012430000000 1.0
C      1  0.6226620000000  0.5100590000000  0.4982090000000 1.0
C      1  0.4621360000000  0.4354010000000  0.4675760000000 1.0
C      1  0.5976660000000  0.5288730000000  0.5682210000000 1.0
C      1  0.4342050000000  0.4030970000000  0.5114470000000 1.0
C      1  0.4623420000000  0.4594690000000  0.5623930000000 1.0
C      1  0.4306510000000  0.5833570000000  0.4656350000000 1.0
C      1  0.4646980000000  0.5484740000000  0.4882130000000 1.0
C      1  0.6145260000000  0.5218810000000  0.4723520000000 1.0
C      1  0.4842770000000  0.5918920000000  0.4644740000000 1.0
C      1  0.5314260000000  0.5815590000000  0.5101730000000 1.0
C      1  0.5117460000000  0.4081190000000  0.4913220000000 1.0
C      1  0.3894750000000  0.5300400000000  0.4512300000000 1.0
C      1  0.5568020000000  0.4878520000000  0.6095460000000 1.0
C      1  0.5096720000000  0.5167710000000  0.5373640000000 1.0
C      1  0.5071720000000  0.5664320000000  0.5040810000000 1.0
C      1  0.4097680000000  0.5708630000000  0.4854620000000 1.0
END
