TITL C-3866674-3872-302 0.0567124653497689 125000 -1027.76591696899 0 0 168 (C1) n - 1
REM
REM in /home/nfs/bkarasulu/CARBON/AIRSS/Generating-Clusters/LCBOP/Only-C1/SD-CG/FIRE-CG
REM
REM
REM
REM
REM
REM ./C.cell (11c1c37f851c82e70ff6c80c92926a4b)
REM AIRSS Version 0.9.1 bugfix July 2018 build 013d7b7c2542+ Fri, 06 Jul 2018 19:26:36 +0100
REM compiler GCC version 9.2.1 20190827 (Red Hat 9.2.1-1)
REM options -cpp -mtune=generic -march=x86-64 -g -O0 -fpre-include=/usr/include/finclude/math-vector-fortran.h
REM seed 505103136 1061272532 -2007801369 1193372588 -1438291499 1166778875 -1325947398 847925589 -331227155 -1281212733 2083691823 -431298352 956627948 162237460 -1476603755 1631016 -1676821020 -1282642164 137537722 -1604266968 134176310 -288791198 -410065516 -1164589518 -672039819 1324625817 -590820814 866045721 -1149441299 -1543711002 -1111740594 289280109 151904628
REM
CELL 1.54180   50.00000   50.00000   50.00000   90.00000   90.00000   90.00000
LATT -1
SFAC C  
C      1  0.4387120000000  0.5503280000000  0.5759070000000 1.0
C      1  0.5015590000000  0.6338870000000  0.4862980000000 1.0
C      1  0.4008840000000  0.4499870000000  0.5389820000000 1.0
C      1  0.5419620000000  0.5495620000000  0.5777600000000 1.0
C      1  0.6149760000000  0.4562080000000  0.5130070000000 1.0
C      1  0.3898260000000  0.4675810000000  0.5202080000000 1.0
C      1  0.4704650000000  0.4441310000000  0.5376430000000 1.0
C      1  0.5646520000000  0.5390810000000  0.5363180000000 1.0
C      1  0.4189350000000  0.5033830000000  0.4681230000000 1.0
C      1  0.5302170000000  0.5499960000000  0.4530690000000 1.0
C      1  0.5567670000000  0.5528830000000  0.4110240000000 1.0
C      1  0.4939210000000  0.3802360000000  0.5468570000000 1.0
C      1  0.5066200000000  0.5081840000000  0.4760150000000 1.0
C      1  0.5373140000000  0.5563260000000  0.4796030000000 1.0
C      1  0.4008130000000  0.4457590000000  0.5876190000000 1.0
C      1  0.5681980000000  0.4860730000000  0.4154120000000 1.0
C      1  0.4215560000000  0.4013680000000  0.5373110000000 1.0
C      1  0.4658440000000  0.4693080000000  0.4928970000000 1.0
C      1  0.4445380000000  0.5293890000000  0.5083910000000 1.0
C      1  0.5727380000000  0.5817440000000  0.4503240000000 1.0
C      1  0.4557510000000  0.5183750000000  0.5308630000000 1.0
C      1  0.6015400000000  0.4650440000000  0.4509440000000 1.0
C      1  0.4280180000000  0.5601020000000  0.5497600000000 1.0
C      1  0.5203430000000  0.5225470000000  0.3843940000000 1.0
C      1  0.4740360000000  0.6061280000000  0.4569150000000 1.0
C      1  0.4510810000000  0.5897710000000  0.4476350000000 1.0
C      1  0.5148040000000  0.6218150000000  0.5095100000000 1.0
C      1  0.4910430000000  0.6161330000000  0.5255680000000 1.0
C      1  0.4746420000000  0.5737090000000  0.5566530000000 1.0
C      1  0.5408800000000  0.3929070000000  0.5427290000000 1.0
C      1  0.5106880000000  0.4787460000000  0.4093340000000 1.0
C      1  0.4922090000000  0.4318920000000  0.4893590000000 1.0
C      1  0.5282640000000  0.4962470000000  0.3910790000000 1.0
C      1  0.5067450000000  0.5555870000000  0.4127070000000 1.0
C      1  0.4429600000000  0.5212240000000  0.4619910000000 1.0
C      1  0.5562170000000  0.4910190000000  0.3916240000000 1.0
C      1  0.4036730000000  0.5396900000000  0.4316410000000 1.0
C      1  0.5066360000000  0.5569290000000  0.4404960000000 1.0
C      1  0.5034830000000  0.5162690000000  0.5619700000000 1.0
C      1  0.4506620000000  0.4378160000000  0.4069810000000 1.0
C      1  0.4647630000000  0.4944210000000  0.5413420000000 1.0
C      1  0.5186830000000  0.4406480000000  0.5362800000000 1.0
C      1  0.5292760000000  0.5715360000000  0.5611590000000 1.0
C      1  0.4505980000000  0.5259010000000  0.4340220000000 1.0
C      1  0.4600010000000  0.4552760000000  0.5153430000000 1.0
C      1  0.4114180000000  0.5091520000000  0.5734230000000 1.0
C      1  0.4884890000000  0.4860640000000  0.5293360000000 1.0
C      1  0.5295580000000  0.5848390000000  0.4821570000000 1.0
C      1  0.5904680000000  0.5166500000000  0.4595900000000 1.0
C      1  0.5007900000000  0.4560140000000  0.6210520000000 1.0
C      1  0.5429570000000  0.5240850000000  0.5215970000000 1.0
C      1  0.5313440000000  0.5451830000000  0.4002750000000 1.0
C      1  0.4909420000000  0.3788370000000  0.4795320000000 1.0
C      1  0.5408280000000  0.4942680000000  0.5210630000000 1.0
C      1  0.5881590000000  0.4417800000000  0.4472810000000 1.0
C      1  0.5255170000000  0.5990360000000  0.4565780000000 1.0
C      1  0.4521490000000  0.4878300000000  0.5660560000000 1.0
C      1  0.5457680000000  0.4180050000000  0.5685460000000 1.0
C      1  0.5056350000000  0.5121330000000  0.4479890000000 1.0
C      1  0.4952740000000  0.4465240000000  0.5507680000000 1.0
C      1  0.5482710000000  0.4977940000000  0.6248360000000 1.0
C      1  0.5563480000000  0.5921590000000  0.5207240000000 1.0
C      1  0.5112400000000  0.4473740000000  0.5962370000000 1.0
C      1  0.5001640000000  0.5671110000000  0.5200560000000 1.0
C      1  0.5928120000000  0.5383340000000  0.4417200000000 1.0
C      1  0.4498760000000  0.5773910000000  0.5392650000000 1.0
C      1  0.5273920000000  0.5163890000000  0.6201000000000 1.0
C      1  0.3963350000000  0.5238150000000  0.5544050000000 1.0
C      1  0.4529180000000  0.5750390000000  0.4233360000000 1.0
C      1  0.4423280000000  0.3869890000000  0.5455740000000 1.0
C      1  0.5757260000000  0.5589410000000  0.4322570000000 1.0
C      1  0.6044600000000  0.4312200000000  0.5170020000000 1.0
C      1  0.5515600000000  0.4788520000000  0.4372130000000 1.0
C      1  0.3887220000000  0.4167580000000  0.6297520000000 1.0
C      1  0.4853350000000  0.5601090000000  0.4569540000000 1.0
C      1  0.4986280000000  0.5396800000000  0.5137790000000 1.0
C      1  0.4317040000000  0.5829760000000  0.4919260000000 1.0
C      1  0.4970700000000  0.4104080000000  0.4182410000000 1.0
C      1  0.4084660000000  0.4597350000000  0.5646650000000 1.0
C      1  0.4344520000000  0.4310750000000  0.4494410000000 1.0
C      1  0.4088940000000  0.5419850000000  0.5360690000000 1.0
C      1  0.5973610000000  0.5025220000000  0.5502540000000 1.0
C      1  0.4324490000000  0.5244270000000  0.5864720000000 1.0
C      1  0.4946470000000  0.4803100000000  0.6311290000000 1.0
C      1  0.5829260000000  0.4789680000000  0.5451970000000 1.0
C      1  0.4676100000000  0.3806400000000  0.5507790000000 1.0
C      1  0.5088180000000  0.3793370000000  0.5012300000000 1.0
C      1  0.5489500000000  0.4465180000000  0.5008350000000 1.0
C      1  0.4754150000000  0.6204500000000  0.4815980000000 1.0
C      1  0.5008220000000  0.4624350000000  0.5738730000000 1.0
C      1  0.4887000000000  0.5248660000000  0.4910760000000 1.0
C      1  0.3896870000000  0.4895630000000  0.5051180000000 1.0
C      1  0.5888240000000  0.4091710000000  0.5219200000000 1.0
C      1  0.4612490000000  0.4696650000000  0.4650250000000 1.0
C      1  0.4705030000000  0.4833080000000  0.4408250000000 1.0
C      1  0.5288800000000  0.4626440000000  0.4278670000000 1.0
C      1  0.5405700000000  0.4850890000000  0.5653270000000 1.0
C      1  0.5161620000000  0.3838070000000  0.5296210000000 1.0
C      1  0.4038570000000  0.5163620000000  0.4163370000000 1.0
C      1  0.4155080000000  0.4764170000000  0.4554320000000 1.0
C      1  0.4423370000000  0.4862530000000  0.4016820000000 1.0
C      1  0.4537110000000  0.4996320000000  0.4240060000000 1.0
C      1  0.5379960000000  0.4358600000000  0.5919930000000 1.0
C      1  0.4703710000000  0.4166600000000  0.4901540000000 1.0
C      1  0.5479720000000  0.4488950000000  0.5309880000000 1.0
C      1  0.5131340000000  0.4866040000000  0.5196010000000 1.0
C      1  0.5320190000000  0.5381130000000  0.6020810000000 1.0
C      1  0.5651370000000  0.5150880000000  0.4730390000000 1.0
C      1  0.5014230000000  0.6163390000000  0.4177610000000 1.0
C      1  0.4692470000000  0.4177220000000  0.4209610000000 1.0
C      1  0.5497970000000  0.5331080000000  0.4918770000000 1.0
C      1  0.5774880000000  0.5765500000000  0.5068350000000 1.0
C      1  0.5585850000000  0.4545450000000  0.6028150000000 1.0
C      1  0.5003830000000  0.6064740000000  0.4435160000000 1.0
C      1  0.5148050000000  0.5282190000000  0.5355920000000 1.0
C      1  0.4809020000000  0.5272140000000  0.5773370000000 1.0
C      1  0.4356410000000  0.4565560000000  0.4632050000000 1.0
C      1  0.5281660000000  0.4612400000000  0.4875390000000 1.0
C      1  0.5667440000000  0.3942400000000  0.5290000000000 1.0
C      1  0.4592480000000  0.4627190000000  0.3948850000000 1.0
C      1  0.4677870000000  0.6108050000000  0.5084980000000 1.0
C      1  0.5022010000000  0.5741140000000  0.5482650000000 1.0
C      1  0.4878080000000  0.4663760000000  0.3931870000000 1.0
C      1  0.5656650000000  0.4820770000000  0.6091690000000 1.0
C      1  0.4599200000000  0.5268660000000  0.4848490000000 1.0
C      1  0.4921620000000  0.5278300000000  0.3802320000000 1.0
C      1  0.4821020000000  0.5453680000000  0.4004440000000 1.0
C      1  0.4252450000000  0.4410490000000  0.4225120000000 1.0
C      1  0.4292310000000  0.5787290000000  0.4638260000000 1.0
C      1  0.4113360000000  0.5599010000000  0.4492720000000 1.0
C      1  0.4562930000000  0.4103930000000  0.4469780000000 1.0
C      1  0.5024540000000  0.5061070000000  0.6286980000000 1.0
C      1  0.5129110000000  0.4891080000000  0.5698960000000 1.0
C      1  0.5546000000000  0.4768920000000  0.5400920000000 1.0
C      1  0.4693140000000  0.3967640000000  0.4697910000000 1.0
C      1  0.6128480000000  0.5082940000000  0.5267950000000 1.0
C      1  0.5853120000000  0.5516510000000  0.5201090000000 1.0
C      1  0.5472760000000  0.4119500000000  0.4382070000000 1.0
C      1  0.6037240000000  0.4915750000000  0.4559250000000 1.0
C      1  0.4958220000000  0.4924230000000  0.4317050000000 1.0
C      1  0.4045950000000  0.5101310000000  0.4929960000000 1.0
C      1  0.5836110000000  0.4990510000000  0.5951610000000 1.0
C      1  0.5664840000000  0.4250910000000  0.4555470000000 1.0
C      1  0.5491520000000  0.5878530000000  0.5478690000000 1.0
C      1  0.6081290000000  0.5345840000000  0.5164850000000 1.0
C      1  0.5145220000000  0.4463620000000  0.4460840000000 1.0
C      1  0.5818910000000  0.5808290000000  0.4782220000000 1.0
C      1  0.4483410000000  0.5908700000000  0.5138950000000 1.0
C      1  0.4162640000000  0.5306750000000  0.5100460000000 1.0
C      1  0.5497590000000  0.4935140000000  0.4621480000000 1.0
C      1  0.4099420000000  0.4674640000000  0.4272850000000 1.0
C      1  0.5653220000000  0.5363910000000  0.5648880000000 1.0
C      1  0.5104700000000  0.4448160000000  0.4735490000000 1.0
C      1  0.3946540000000  0.4312600000000  0.6089170000000 1.0
C      1  0.4233530000000  0.4833050000000  0.5669910000000 1.0
C      1  0.4135200000000  0.4893630000000  0.4083270000000 1.0
C      1  0.4585620000000  0.5092350000000  0.5851410000000 1.0
C      1  0.4680900000000  0.5535010000000  0.5757430000000 1.0
C      1  0.5853670000000  0.5163450000000  0.5726930000000 1.0
C      1  0.5609920000000  0.4277230000000  0.4834430000000 1.0
C      1  0.6200220000000  0.4832690000000  0.5136830000000 1.0
C      1  0.4591400000000  0.5480130000000  0.4170600000000 1.0
C      1  0.5274780000000  0.4878480000000  0.4786070000000 1.0
C      1  0.5514360000000  0.6000320000000  0.4441340000000 1.0
C      1  0.5346460000000  0.6016480000000  0.5046060000000 1.0
C      1  0.5623020000000  0.4340460000000  0.5525070000000 1.0
C      1  0.5232960000000  0.4069830000000  0.4257120000000 1.0
C      1  0.4071180000000  0.4233160000000  0.5331690000000 1.0
END
