TITL C-3866671-3735-217 -5.44560067532465e-07 125000 -206.927063117741 0 0 34 (C1) n - 1
REM
REM in /home/nfs/bkarasulu/CARBON/AIRSS/Generating-Clusters/LCBOP/Only-C1/SD-CG/HFTN-CG/FIRE-CG
REM
REM
REM
REM
REM
REM ./C.cell (11c1c37f851c82e70ff6c80c92926a4b)
REM AIRSS Version 0.9.1 bugfix July 2018 build 013d7b7c2542+ Fri, 06 Jul 2018 19:26:36 +0100
REM compiler GCC version 9.2.1 20190827 (Red Hat 9.2.1-1)
REM options -cpp -mtune=generic -march=x86-64 -g -O0 -fpre-include=/usr/include/finclude/math-vector-fortran.h
REM seed -1478761708 -285760676 -166746011 -2080685091 -1353711360 -45698962 439174538 2024357781 -623211296 748307212 1453259434 1403471918 -1274798776 -995198239 -1797992075 811029796 695297159 677363055 843202429 485744145 822141139 1358846082 2123613940 -1133322215 695541658 -1225647308 1205925845 2072386518 -1653510112 -1742872385 -1634673511 2086884591 -1887695024
REM
CELL 1.54180   50.00000   50.00000   50.00000   90.00000   90.00000   90.00000
LATT -1
SFAC C  
C      1  0.5411120000000  0.4431230000000  0.5460370000000 1.0
C      1  0.4950510000000  0.4500060000000  0.5270320000000 1.0
C      1  0.5117230000000  0.5018680000000  0.4258400000000 1.0
C      1  0.5252520000000  0.5504290000000  0.5165570000000 1.0
C      1  0.5602020000000  0.4624480000000  0.5404280000000 1.0
C      1  0.5089250000000  0.5340590000000  0.4639230000000 1.0
C      1  0.4903690000000  0.5463680000000  0.4814910000000 1.0
C      1  0.5519570000000  0.5093050000000  0.5200270000000 1.0
C      1  0.5208350000000  0.4842340000000  0.5500160000000 1.0
C      1  0.5239390000000  0.5504150000000  0.5447500000000 1.0
C      1  0.5364470000000  0.4930820000000  0.4367560000000 1.0
C      1  0.4514800000000  0.4806450000000  0.4474410000000 1.0
C      1  0.4536170000000  0.5418700000000  0.5130800000000 1.0
C      1  0.4912340000000  0.4852680000000  0.4165440000000 1.0
C      1  0.4657720000000  0.5329990000000  0.4886010000000 1.0
C      1  0.4662290000000  0.5040250000000  0.4880370000000 1.0
C      1  0.5038270000000  0.5615330000000  0.5015390000000 1.0
C      1  0.4669340000000  0.4787810000000  0.4257530000000 1.0
C      1  0.4824400000000  0.4942420000000  0.5095450000000 1.0
C      1  0.4506710000000  0.4836380000000  0.4752690000000 1.0
C      1  0.5031230000000  0.5062830000000  0.5525510000000 1.0
C      1  0.5461360000000  0.5034480000000  0.4600330000000 1.0
C      1  0.4963700000000  0.4702110000000  0.5069840000000 1.0
C      1  0.5480600000000  0.4886530000000  0.5385740000000 1.0
C      1  0.5331900000000  0.5230330000000  0.4761140000000 1.0
C      1  0.4806710000000  0.5078300000000  0.5350130000000 1.0
C      1  0.5394150000000  0.5286310000000  0.5035580000000 1.0
C      1  0.4611940000000  0.5286990000000  0.5358800000000 1.0
C      1  0.4421650000000  0.4618270000000  0.4915440000000 1.0
C      1  0.4702360000000  0.4365890000000  0.5258860000000 1.0
C      1  0.4492300000000  0.4435920000000  0.5101410000000 1.0
C      1  0.5138850000000  0.5311640000000  0.5608410000000 1.0
C      1  0.5037310000000  0.5267550000000  0.4372200000000 1.0
C      1  0.5145780000000  0.4549500000000  0.5469940000000 1.0
END
