TITL C-3866675-3766-169 48945.6497076538 125000 -1213.32743706688 0 0 199 (C1) n - 1
REM
REM in /home/nfs/bkarasulu/CARBON/AIRSS/Generating-Clusters/LCBOP/Only-C1/SD-CG/HFTN-CG/FIRE-CG
REM
REM
REM
REM
REM
REM ./C.cell (11c1c37f851c82e70ff6c80c92926a4b)
REM AIRSS Version 0.9.1 bugfix July 2018 build 013d7b7c2542+ Fri, 06 Jul 2018 19:26:36 +0100
REM compiler GCC version 9.2.1 20190827 (Red Hat 9.2.1-1)
REM options -cpp -mtune=generic -march=x86-64 -g -O0 -fpre-include=/usr/include/finclude/math-vector-fortran.h
REM seed -2088525839 -970033071 856446505 953432055 -1273463409 -132902225 1420784662 1976982081 591541783 -720049855 -792872831 -907293246 -2022018440 -844322689 762264719 220658640 2036402796 978180331 839155058 2000192881 432715644 853286580 320677336 -956694802 -1517003086 -53511341 1205271402 690561931 1181295847 -879336167 -806202151 481180802 517441252
REM
CELL 1.54180   50.00000   50.00000   50.00000   90.00000   90.00000   90.00000
LATT -1
SFAC C  
C      1  0.3920210000000  0.4875230000000  0.5613150000000 1.0
C      1  0.5400300000000  0.5308650000000  0.4256530000000 1.0
C      1  0.4840110000000  0.6046670000000  0.5681400000000 1.0
C      1  0.4309410000000  0.6376230000000  0.4931990000000 1.0
C      1  0.4736410000000  0.3807310000000  0.5108130000000 1.0
C      1  0.4772030000000  0.4475830000000  0.5549620000000 1.0
C      1  0.5358580000000  0.5809460000000  0.4466640000000 1.0
C      1  0.6280890000000  0.4522250000000  0.5045760000000 1.0
C      1  0.3887830000000  0.5293600000000  0.5382120000000 1.0
C      1  0.5999550000000  0.5164380000000  0.4729870000000 1.0
C      1  0.4797650000000  0.4023560000000  0.4693120000000 1.0
C      1  0.6068010000000  0.4907040000000  0.4834230000000 1.0
C      1  0.4608330000000  0.5451180000000  0.6052780000000 1.0
C      1  0.4014550000000  0.5382640000000  0.5634870000000 1.0
C      1  0.5205070000000  0.5436290000000  0.5812450000000 1.0
C      1  0.5158680000000  0.5257230000000  0.4401400000000 1.0
C      1  0.5252100000000  0.3950590000000  0.4329140000000 1.0
C      1  0.5518850000000  0.4318940000000  0.4693320000000 1.0
C      1  0.5118930000000  0.6461860000000  0.4737530000000 1.0
C      1  0.5616940000000  0.4956660000000  0.4431850000000 1.0
C      1  0.5186750000000  0.3955340000000  0.5618290000000 1.0
C      1  0.5482700000000  0.3913210000000  0.4477480000000 1.0
C      1  0.5928750000000  0.4567750000000  0.5756500000000 1.0
C      1  0.5032920000000  0.5034070000000  0.3983420000000 1.0
C      1  0.5627410000000  0.6105750000000  0.5194940000000 1.0
C      1  0.4826320000000  0.4203510000000  0.4076710000000 1.0
C      1  0.4488010000000  0.5621600000000  0.5843250000000 1.0
C      1  0.5034450000000  0.5176950000000  0.5016000000000 1.0
C      1  0.3978130000000  0.4970030000000  0.4792570000000 1.0
C      1  0.5012560000000  0.4043530000000  0.4231320000000 1.0
C      1  0.5641550000000  0.5305800000000  0.5803330000000 1.0
C      1  0.3937340000000  0.4440960000000  0.4580530000000 1.0
C      1  0.4387350000000  0.4979420000000  0.5557930000000 1.0
C      1  0.5631200000000  0.4040600000000  0.4696870000000 1.0
C      1  0.5280900000000  0.5281340000000  0.4935790000000 1.0
C      1  0.5113870000000  0.5798730000000  0.4658120000000 1.0
C      1  0.5431710000000  0.4437840000000  0.5517760000000 1.0
C      1  0.4456740000000  0.3424560000000  0.5358910000000 1.0
C      1  0.4030820000000  0.4533560000000  0.4836250000000 1.0
C      1  0.5613920000000  0.5253810000000  0.3776850000000 1.0
C      1  0.4263300000000  0.4189840000000  0.5070050000000 1.0
C      1  0.5023330000000  0.4625510000000  0.4307740000000 1.0
C      1  0.5511130000000  0.6000110000000  0.5439150000000 1.0
C      1  0.4593570000000  0.5120760000000  0.3951870000000 1.0
C      1  0.4955550000000  0.6106840000000  0.5139040000000 1.0
C      1  0.5976130000000  0.5610090000000  0.4374030000000 1.0
C      1  0.4390190000000  0.4381210000000  0.5261250000000 1.0
C      1  0.4913220000000  0.6183530000000  0.5910690000000 1.0
C      1  0.4872400000000  0.5640500000000  0.4533010000000 1.0
C      1  0.4659160000000  0.5038520000000  0.5596150000000 1.0
C      1  0.4500700000000  0.4354030000000  0.5536080000000 1.0
C      1  0.5495860000000  0.4359810000000  0.5811110000000 1.0
C      1  0.4547960000000  0.4358600000000  0.4106820000000 1.0
C      1  0.5692170000000  0.5711230000000  0.4554640000000 1.0
C      1  0.4532160000000  0.4029390000000  0.4629720000000 1.0
C      1  0.4287590000000  0.4368740000000  0.4252360000000 1.0
C      1  0.5065430000000  0.4104610000000  0.5840120000000 1.0
C      1  0.5969330000000  0.5279370000000  0.4374480000000 1.0
C      1  0.5439030000000  0.4498740000000  0.3864420000000 1.0
C      1  0.4824340000000  0.5252470000000  0.5512850000000 1.0
C      1  0.4830160000000  0.4557220000000  0.5262050000000 1.0
C      1  0.4165550000000  0.6164030000000  0.4524310000000 1.0
C      1  0.6102680000000  0.4607980000000  0.4018990000000 1.0
C      1  0.5001280000000  0.6106520000000  0.5439790000000 1.0
C      1  0.5100530000000  0.5298800000000  0.5579980000000 1.0
C      1  0.5459860000000  0.4765310000000  0.4001580000000 1.0
C      1  0.4262610000000  0.5017950000000  0.4846380000000 1.0
C      1  0.5727890000000  0.3999060000000  0.4982440000000 1.0
C      1  0.5142680000000  0.3765960000000  0.4879610000000 1.0
C      1  0.6233540000000  0.4396790000000  0.3939850000000 1.0
C      1  0.4257510000000  0.4618950000000  0.5867120000000 1.0
C      1  0.4081520000000  0.5690490000000  0.4698260000000 1.0
C      1  0.4734300000000  0.5449650000000  0.5335990000000 1.0
C      1  0.4234630000000  0.5557530000000  0.5684630000000 1.0
C      1  0.4939190000000  0.5434500000000  0.4289360000000 1.0
C      1  0.4409180000000  0.5950470000000  0.5507990000000 1.0
C      1  0.4956690000000  0.4318740000000  0.3832580000000 1.0
C      1  0.4785080000000  0.4520950000000  0.3726750000000 1.0
C      1  0.4240180000000  0.5736680000000  0.5451970000000 1.0
C      1  0.4506100000000  0.4466110000000  0.6222230000000 1.0
C      1  0.5263740000000  0.4001720000000  0.4923170000000 1.0
C      1  0.5754920000000  0.5275760000000  0.4823570000000 1.0
C      1  0.5160300000000  0.5013810000000  0.4562030000000 1.0
C      1  0.6153530000000  0.4867740000000  0.5352060000000 1.0
C      1  0.4820390000000  0.5213260000000  0.4094720000000 1.0
C      1  0.5063840000000  0.5642880000000  0.4090850000000 1.0
C      1  0.4597520000000  0.5679110000000  0.4598750000000 1.0
C      1  0.4866750000000  0.3794790000000  0.4853220000000 1.0
C      1  0.4558220000000  0.4552500000000  0.4614540000000 1.0
C      1  0.4081980000000  0.4015010000000  0.5177000000000 1.0
C      1  0.4701110000000  0.5079350000000  0.4698530000000 1.0
C      1  0.5305720000000  0.5308090000000  0.5371390000000 1.0
C      1  0.5052860000000  0.5393990000000  0.3649470000000 1.0
C      1  0.5276790000000  0.6141200000000  0.5511730000000 1.0
C      1  0.5514050000000  0.4838580000000  0.5995040000000 1.0
C      1  0.5312050000000  0.5766660000000  0.4181920000000 1.0
C      1  0.5681950000000  0.4794050000000  0.4209130000000 1.0
C      1  0.5845580000000  0.4708220000000  0.4818470000000 1.0
C      1  0.5255540000000  0.4265400000000  0.4797760000000 1.0
C      1  0.4769600000000  0.4881830000000  0.5799900000000 1.0
C      1  0.5469860000000  0.5084730000000  0.5343230000000 1.0
C      1  0.4873770000000  0.5525810000000  0.6153530000000 1.0
C      1  0.5794560000000  0.5877170000000  0.4767800000000 1.0
C      1  0.4197560000000  0.5612400000000  0.5207100000000 1.0
C      1  0.5433850000000  0.4915680000000  0.5556940000000 1.0
C      1  0.5618950000000  0.5514870000000  0.3844990000000 1.0
C      1  0.5368390000000  0.3924230000000  0.5410900000000 1.0
C      1  0.6080580000000  0.5067830000000  0.4205400000000 1.0
C      1  0.5526960000000  0.5718820000000  0.3998090000000 1.0
C      1  0.4329830000000  0.4583460000000  0.4790820000000 1.0
C      1  0.5566900000000  0.4054450000000  0.5236430000000 1.0
C      1  0.5960440000000  0.4816720000000  0.4134490000000 1.0
C      1  0.5658770000000  0.5254440000000  0.4381780000000 1.0
C      1  0.5477870000000  0.5542170000000  0.5752660000000 1.0
C      1  0.4846970000000  0.6391180000000  0.4759870000000 1.0
C      1  0.5093890000000  0.5358290000000  0.6062400000000 1.0
C      1  0.5035820000000  0.4885700000000  0.5006990000000 1.0
C      1  0.4562610000000  0.5166800000000  0.6118620000000 1.0
C      1  0.4934110000000  0.4856900000000  0.4711830000000 1.0
C      1  0.4390290000000  0.4792340000000  0.4987760000000 1.0
C      1  0.5985170000000  0.4663830000000  0.5486780000000 1.0
C      1  0.6068040000000  0.4345640000000  0.5119290000000 1.0
C      1  0.4514460000000  0.6348480000000  0.5107530000000 1.0
C      1  0.5291470000000  0.4682580000000  0.5454570000000 1.0
C      1  0.5365250000000  0.5572960000000  0.5292260000000 1.0
C      1  0.4795630000000  0.5012950000000  0.6045930000000 1.0
C      1  0.5504740000000  0.6331190000000  0.5068250000000 1.0
C      1  0.3745090000000  0.4842780000000  0.5178210000000 1.0
C      1  0.4400600000000  0.5558080000000  0.5019610000000 1.0
C      1  0.5234710000000  0.4821560000000  0.6071930000000 1.0
C      1  0.5520660000000  0.5104030000000  0.4888980000000 1.0
C      1  0.5709620000000  0.4522000000000  0.4659300000000 1.0
C      1  0.4310040000000  0.4858850000000  0.4188500000000 1.0
C      1  0.5162890000000  0.4805280000000  0.4109770000000 1.0
C      1  0.4362420000000  0.5642000000000  0.4752950000000 1.0
C      1  0.4777990000000  0.6292850000000  0.5023240000000 1.0
C      1  0.4595660000000  0.3605290000000  0.5232550000000 1.0
C      1  0.4908250000000  0.5664490000000  0.5316530000000 1.0
C      1  0.4344680000000  0.4697980000000  0.6137150000000 1.0
C      1  0.4292520000000  0.4135550000000  0.4713820000000 1.0
C      1  0.4793640000000  0.4111420000000  0.5945080000000 1.0
C      1  0.5225230000000  0.4330370000000  0.5928230000000 1.0
C      1  0.4867950000000  0.4314850000000  0.5087380000000 1.0
C      1  0.4878960000000  0.4627580000000  0.5769650000000 1.0
C      1  0.5235240000000  0.4334980000000  0.3800280000000 1.0
C      1  0.5665070000000  0.4611590000000  0.5905640000000 1.0
C      1  0.5069870000000  0.5065950000000  0.6111640000000 1.0
C      1  0.3949850000000  0.5470160000000  0.5155380000000 1.0
C      1  0.3883490000000  0.4753830000000  0.4954740000000 1.0
C      1  0.4145820000000  0.4252820000000  0.4493780000000 1.0
C      1  0.4492180000000  0.4857890000000  0.3979390000000 1.0
C      1  0.4351240000000  0.6331720000000  0.4652700000000 1.0
C      1  0.4430360000000  0.5089960000000  0.4618730000000 1.0
C      1  0.5539320000000  0.4996560000000  0.3809500000000 1.0
C      1  0.4035780000000  0.5929770000000  0.4556190000000 1.0
C      1  0.4624730000000  0.6384820000000  0.4578940000000 1.0
C      1  0.5965430000000  0.4278910000000  0.5800720000000 1.0
C      1  0.5018470000000  0.5607280000000  0.3812680000000 1.0
C      1  0.5094910000000  0.4582560000000  0.5957140000000 1.0
C      1  0.4787240000000  0.4067260000000  0.5207320000000 1.0
C      1  0.5717130000000  0.4153770000000  0.5831090000000 1.0
C      1  0.5429100000000  0.4946950000000  0.4645330000000 1.0
C      1  0.5842130000000  0.4499330000000  0.5262450000000 1.0
C      1  0.5790720000000  0.5957860000000  0.5022210000000 1.0
C      1  0.6278520000000  0.5344560000000  0.5567630000000 1.0
C      1  0.5084240000000  0.5132800000000  0.3718510000000 1.0
C      1  0.4533980000000  0.4637030000000  0.5176670000000 1.0
C      1  0.4613190000000  0.5396180000000  0.5090640000000 1.0
C      1  0.5629400000000  0.5440640000000  0.4627480000000 1.0
C      1  0.4609620000000  0.5878390000000  0.5705380000000 1.0
C      1  0.3916580000000  0.4672070000000  0.4402050000000 1.0
C      1  0.5613150000000  0.4323810000000  0.5332270000000 1.0
C      1  0.4778190000000  0.5254730000000  0.4916690000000 1.0
C      1  0.5999610000000  0.4088930000000  0.5021810000000 1.0
C      1  0.6225010000000  0.4806170000000  0.5070020000000 1.0
C      1  0.4381940000000  0.4364720000000  0.5791610000000 1.0
C      1  0.4954950000000  0.4320870000000  0.4776280000000 1.0
C      1  0.5146640000000  0.5697710000000  0.5164120000000 1.0
C      1  0.4871880000000  0.4579150000000  0.4594060000000 1.0
C      1  0.4948520000000  0.5904210000000  0.6529070000000 1.0
C      1  0.5499610000000  0.5717270000000  0.5506860000000 1.0
C      1  0.4910120000000  0.5729800000000  0.6339260000000 1.0
C      1  0.6228210000000  0.5106110000000  0.5475200000000 1.0
C      1  0.4185460000000  0.4819130000000  0.5680020000000 1.0
C      1  0.5730360000000  0.4719930000000  0.5084270000000 1.0
C      1  0.3896310000000  0.5546690000000  0.4876780000000 1.0
C      1  0.3888010000000  0.4946450000000  0.4516940000000 1.0
C      1  0.4362040000000  0.4977930000000  0.6197920000000 1.0
C      1  0.5347210000000  0.6440010000000  0.4879530000000 1.0
C      1  0.5581770000000  0.4954780000000  0.5126610000000 1.0
C      1  0.4146990000000  0.4633120000000  0.4225450000000 1.0
C      1  0.5091980000000  0.5895460000000  0.4959180000000 1.0
C      1  0.4581740000000  0.4595000000000  0.3912520000000 1.0
C      1  0.4559000000000  0.4266960000000  0.6011050000000 1.0
C      1  0.5551340000000  0.5033530000000  0.5794000000000 1.0
C      1  0.4015500000000  0.5155240000000  0.4368780000000 1.0
C      1  0.5074760000000  0.4724400000000  0.5242610000000 1.0
C      1  0.3814570000000  0.5014140000000  0.5390090000000 1.0
C      1  0.4295890000000  0.5086000000000  0.4364190000000 1.0
END
