TITL C-3866673-4222-724 -7.54913168930724e-09 125000 -792.744291340422 0 0 131 (C1) n - 1
REM
REM in /home/nfs/bkarasulu/CARBON/AIRSS/Generating-Clusters/LCBOP/Only-C1/SD-CG/FIRE-CG
REM
REM
REM
REM
REM
REM ./C.cell (11c1c37f851c82e70ff6c80c92926a4b)
REM AIRSS Version 0.9.1 bugfix July 2018 build 013d7b7c2542+ Fri, 06 Jul 2018 19:26:36 +0100
REM compiler GCC version 9.2.1 20190827 (Red Hat 9.2.1-1)
REM options -cpp -mtune=generic -march=x86-64 -g -O0 -fpre-include=/usr/include/finclude/math-vector-fortran.h
REM seed -490419223 578776062 280916065 -156379898 1911961157 1698334596 -796374820 -797587068 79872198 -1794680914 -1304378357 -1440385443 -557843723 -505446299 1948316118 66038388 1413069857 -1438077441 1616317012 265228670 74744315 -209078686 -380958791 -1917522397 1165573994 1357127298 -1376767289 755448438 -461545470 -374010395 -2061218721 -171799082 632799569
REM
CELL 1.54180   50.00000   50.00000   50.00000   90.00000   90.00000   90.00000
LATT -1
SFAC C  
C      1  0.4569420000000  0.4070580000000  0.5003810000000 1.0
C      1  0.5185240000000  0.4598430000000  0.4500350000000 1.0
C      1  0.4347860000000  0.4562910000000  0.4651140000000 1.0
C      1  0.3837030000000  0.4053270000000  0.4882860000000 1.0
C      1  0.5325460000000  0.4875540000000  0.4086900000000 1.0
C      1  0.5592490000000  0.4260700000000  0.4338770000000 1.0
C      1  0.4328510000000  0.4763810000000  0.5544630000000 1.0
C      1  0.4540630000000  0.5263960000000  0.4168050000000 1.0
C      1  0.5612280000000  0.5386650000000  0.4343380000000 1.0
C      1  0.4089510000000  0.4102630000000  0.4969710000000 1.0
C      1  0.4857800000000  0.4517490000000  0.6084340000000 1.0
C      1  0.5902210000000  0.4904000000000  0.4604060000000 1.0
C      1  0.4944710000000  0.5587230000000  0.4113060000000 1.0
C      1  0.5246670000000  0.6274200000000  0.4351940000000 1.0
C      1  0.4908180000000  0.5021610000000  0.4809340000000 1.0
C      1  0.4861910000000  0.4181320000000  0.5465970000000 1.0
C      1  0.4699430000000  0.5479480000000  0.4691540000000 1.0
C      1  0.5578780000000  0.4902280000000  0.4222120000000 1.0
C      1  0.5240860000000  0.4714390000000  0.4725970000000 1.0
C      1  0.5110650000000  0.5365400000000  0.4033560000000 1.0
C      1  0.4296380000000  0.5669880000000  0.4920300000000 1.0
C      1  0.4148830000000  0.4685480000000  0.4815940000000 1.0
C      1  0.5731380000000  0.5658040000000  0.4975810000000 1.0
C      1  0.5513320000000  0.4376940000000  0.4779810000000 1.0
C      1  0.4332260000000  0.3984540000000  0.4864300000000 1.0
C      1  0.4312330000000  0.5508840000000  0.5158830000000 1.0
C      1  0.4165740000000  0.4283270000000  0.5186560000000 1.0
C      1  0.4421700000000  0.5073380000000  0.4820020000000 1.0
C      1  0.5845080000000  0.5614760000000  0.5844490000000 1.0
C      1  0.4367800000000  0.5265670000000  0.4392330000000 1.0
C      1  0.4059170000000  0.5139120000000  0.5739060000000 1.0
C      1  0.5571530000000  0.4799110000000  0.5721950000000 1.0
C      1  0.5400090000000  0.4086360000000  0.4437710000000 1.0
C      1  0.4731310000000  0.4629810000000  0.5307550000000 1.0
C      1  0.4087090000000  0.5303190000000  0.4431030000000 1.0
C      1  0.4993950000000  0.4175580000000  0.4723500000000 1.0
C      1  0.4873460000000  0.5045840000000  0.4530490000000 1.0
C      1  0.4451720000000  0.4234630000000  0.5227420000000 1.0
C      1  0.6021060000000  0.4656870000000  0.5559440000000 1.0
C      1  0.6079420000000  0.4527560000000  0.4874020000000 1.0
C      1  0.5446980000000  0.6447590000000  0.5038890000000 1.0
C      1  0.4645900000000  0.4980840000000  0.4139290000000 1.0
C      1  0.5630030000000  0.5650990000000  0.5701830000000 1.0
C      1  0.5456220000000  0.4381290000000  0.6198000000000 1.0
C      1  0.4838980000000  0.4293130000000  0.4486850000000 1.0
C      1  0.5902450000000  0.4469150000000  0.5083910000000 1.0
C      1  0.5163550000000  0.5078810000000  0.5738080000000 1.0
C      1  0.4086770000000  0.4823340000000  0.4340290000000 1.0
C      1  0.4988050000000  0.4728360000000  0.5428100000000 1.0
C      1  0.4555940000000  0.5380510000000  0.5254970000000 1.0
C      1  0.4592050000000  0.4535990000000  0.4786440000000 1.0
C      1  0.5641290000000  0.4483580000000  0.4521060000000 1.0
C      1  0.5188700000000  0.4967790000000  0.4818710000000 1.0
C      1  0.4018810000000  0.5041600000000  0.4527580000000 1.0
C      1  0.5617060000000  0.4452810000000  0.5036480000000 1.0
C      1  0.5443780000000  0.4089730000000  0.5459880000000 1.0
C      1  0.5323220000000  0.4424760000000  0.5962790000000 1.0
C      1  0.4860270000000  0.4078600000000  0.4975480000000 1.0
C      1  0.3920830000000  0.5235270000000  0.5311530000000 1.0
C      1  0.4666380000000  0.5026070000000  0.4966700000000 1.0
C      1  0.5380880000000  0.6146360000000  0.5406780000000 1.0
C      1  0.5131610000000  0.5091540000000  0.4110960000000 1.0
C      1  0.5220200000000  0.4683040000000  0.5273360000000 1.0
C      1  0.4735330000000  0.4591360000000  0.5005890000000 1.0
C      1  0.5044770000000  0.4362190000000  0.5939980000000 1.0
C      1  0.4066360000000  0.4755620000000  0.5420400000000 1.0
C      1  0.5416990000000  0.5874700000000  0.5331240000000 1.0
C      1  0.5401740000000  0.5999790000000  0.4830300000000 1.0
C      1  0.5090860000000  0.5428940000000  0.5096200000000 1.0
C      1  0.5343650000000  0.5309000000000  0.5190310000000 1.0
C      1  0.5984170000000  0.5293320000000  0.5175420000000 1.0
C      1  0.4154660000000  0.4956350000000  0.5934020000000 1.0
C      1  0.4585420000000  0.5673030000000  0.4490880000000 1.0
C      1  0.5272380000000  0.5869980000000  0.4605940000000 1.0
C      1  0.6008230000000  0.4502820000000  0.5341900000000 1.0
C      1  0.5424460000000  0.6288950000000  0.4809790000000 1.0
C      1  0.4648250000000  0.4353690000000  0.5392530000000 1.0
C      1  0.4676580000000  0.5535410000000  0.4212810000000 1.0
C      1  0.4024680000000  0.4508930000000  0.5286870000000 1.0
C      1  0.4323780000000  0.4658670000000  0.4376730000000 1.0
C      1  0.5700790000000  0.4757690000000  0.4444110000000 1.0
C      1  0.5289750000000  0.4179310000000  0.4694810000000 1.0
C      1  0.4542150000000  0.4852970000000  0.5383360000000 1.0
C      1  0.4644890000000  0.5505640000000  0.5489520000000 1.0
C      1  0.5265080000000  0.5593520000000  0.4590310000000 1.0
C      1  0.5368860000000  0.6401690000000  0.4556570000000 1.0
C      1  0.4987980000000  0.4490850000000  0.4058840000000 1.0
C      1  0.6103710000000  0.4732430000000  0.4703500000000 1.0
C      1  0.5444500000000  0.4515810000000  0.5255310000000 1.0
C      1  0.3938740000000  0.5009320000000  0.5491020000000 1.0
C      1  0.4303250000000  0.5710060000000  0.4623800000000 1.0
C      1  0.5381250000000  0.5165920000000  0.4749270000000 1.0
C      1  0.5390310000000  0.5691910000000  0.5557760000000 1.0
C      1  0.4229000000000  0.5366870000000  0.5654810000000 1.0
C      1  0.5411370000000  0.6388670000000  0.5297730000000 1.0
C      1  0.5796670000000  0.5354680000000  0.4951140000000 1.0
C      1  0.5517290000000  0.5839980000000  0.5051220000000 1.0
C      1  0.5403230000000  0.5357550000000  0.4538300000000 1.0
C      1  0.4308450000000  0.4757990000000  0.5827720000000 1.0
C      1  0.4567300000000  0.4695810000000  0.4225540000000 1.0
C      1  0.4123010000000  0.5437240000000  0.5370040000000 1.0
C      1  0.5058290000000  0.5840280000000  0.4170060000000 1.0
C      1  0.5211420000000  0.4630910000000  0.4000170000000 1.0
C      1  0.5258980000000  0.3971340000000  0.5299880000000 1.0
C      1  0.4899610000000  0.5495570000000  0.4904090000000 1.0
C      1  0.4602560000000  0.5093920000000  0.5233450000000 1.0
C      1  0.5517960000000  0.5250540000000  0.4976960000000 1.0
C      1  0.5684120000000  0.5162450000000  0.4192980000000 1.0
C      1  0.4519720000000  0.5394830000000  0.5724270000000 1.0
C      1  0.5182420000000  0.6001040000000  0.4365170000000 1.0
C      1  0.4737670000000  0.5248480000000  0.5854430000000 1.0
C      1  0.5460790000000  0.4528670000000  0.5736100000000 1.0
C      1  0.4506980000000  0.5265950000000  0.4640290000000 1.0
C      1  0.6175770000000  0.5264270000000  0.5349390000000 1.0
C      1  0.5027210000000  0.5336050000000  0.5786620000000 1.0
C      1  0.4996780000000  0.4056820000000  0.5238070000000 1.0
C      1  0.5423770000000  0.5034030000000  0.5648360000000 1.0
C      1  0.5156090000000  0.5567770000000  0.5675180000000 1.0
C      1  0.5455760000000  0.5201310000000  0.5425390000000 1.0
C      1  0.4072550000000  0.5583010000000  0.4494540000000 1.0
C      1  0.4969170000000  0.4880110000000  0.5670350000000 1.0
C      1  0.5741520000000  0.5624810000000  0.4304810000000 1.0
C      1  0.4955850000000  0.4196000000000  0.5730210000000 1.0
C      1  0.4758180000000  0.4950690000000  0.5863560000000 1.0
C      1  0.4153100000000  0.4967600000000  0.4783670000000 1.0
C      1  0.5481730000000  0.4367030000000  0.5498350000000 1.0
C      1  0.4734480000000  0.4756650000000  0.6066000000000 1.0
C      1  0.4905720000000  0.5013750000000  0.4259530000000 1.0
C      1  0.5853400000000  0.4802370000000  0.5709700000000 1.0
C      1  0.4778450000000  0.4478090000000  0.4255760000000 1.0
C      1  0.5896880000000  0.5171100000000  0.4716750000000 1.0
END
