TITL C-3866676-3738-473 16.7875062453208 125000 -884.040174285459 0 0 146 (C1) n - 1
REM
REM in /home/nfs/bkarasulu/CARBON/AIRSS/Generating-Clusters/LCBOP/Only-C1/SD-CG/FIRE-CG
REM
REM
REM
REM
REM
REM ./C.cell (11c1c37f851c82e70ff6c80c92926a4b)
REM AIRSS Version 0.9.1 bugfix July 2018 build 013d7b7c2542+ Fri, 06 Jul 2018 19:26:36 +0100
REM compiler GCC version 9.2.1 20190827 (Red Hat 9.2.1-1)
REM options -cpp -mtune=generic -march=x86-64 -g -O0 -fpre-include=/usr/include/finclude/math-vector-fortran.h
REM seed 2113354729 -120214040 -1388415056 -1923091813 -1988708463 -1479636237 887439284 -1705461413 1840179336 -1297176659 -2007931387 -655909516 1704028339 306890004 34070705 1830846187 1211050459 -1942083859 -1703752864 -1516716228 1988196575 228314664 394899232 -401275451 -56527827 -351614499 -490704083 -331439110 -939447563 -423910523 -1084355317 -214648620 -509786765
REM
CELL 1.54180   50.00000   50.00000   50.00000   90.00000   90.00000   90.00000
LATT -1
SFAC C  
C      1  0.5002500000000  0.3795510000000  0.4555990000000 1.0
C      1  0.6039050000000  0.5107150000000  0.5180370000000 1.0
C      1  0.5578440000000  0.4141600000000  0.4666710000000 1.0
C      1  0.5361840000000  0.4890520000000  0.5704740000000 1.0
C      1  0.5039460000000  0.6170340000000  0.5298790000000 1.0
C      1  0.4825500000000  0.5401740000000  0.4555050000000 1.0
C      1  0.5533350000000  0.4789910000000  0.4789250000000 1.0
C      1  0.5598840000000  0.5851240000000  0.5073640000000 1.0
C      1  0.5030620000000  0.5892420000000  0.4360350000000 1.0
C      1  0.4726290000000  0.5886100000000  0.4355860000000 1.0
C      1  0.5528530000000  0.4650270000000  0.5751320000000 1.0
C      1  0.4833290000000  0.3758370000000  0.4764130000000 1.0
C      1  0.5133080000000  0.5573560000000  0.6103960000000 1.0
C      1  0.6115570000000  0.5222740000000  0.4920990000000 1.0
C      1  0.5226750000000  0.5374690000000  0.4945940000000 1.0
C      1  0.5056870000000  0.5550250000000  0.5441910000000 1.0
C      1  0.5821800000000  0.5508350000000  0.4600890000000 1.0
C      1  0.4942490000000  0.4326260000000  0.4717080000000 1.0
C      1  0.4822920000000  0.4509320000000  0.3964830000000 1.0
C      1  0.4725090000000  0.4303130000000  0.4507950000000 1.0
C      1  0.4152440000000  0.5911970000000  0.4982360000000 1.0
C      1  0.4497250000000  0.5478880000000  0.5803720000000 1.0
C      1  0.5513760000000  0.5927380000000  0.4599440000000 1.0
C      1  0.3878610000000  0.5100290000000  0.4237050000000 1.0
C      1  0.5210740000000  0.3830100000000  0.5702750000000 1.0
C      1  0.4669780000000  0.5683150000000  0.5707200000000 1.0
C      1  0.4286490000000  0.5526450000000  0.5179790000000 1.0
C      1  0.4274950000000  0.4611070000000  0.5296370000000 1.0
C      1  0.5979960000000  0.4332270000000  0.4870920000000 1.0
C      1  0.4390320000000  0.5244740000000  0.4734100000000 1.0
C      1  0.5730980000000  0.5540480000000  0.5684220000000 1.0
C      1  0.4644350000000  0.5268890000000  0.5954840000000 1.0
C      1  0.5109270000000  0.6112980000000  0.4807060000000 1.0
C      1  0.5049170000000  0.5704050000000  0.6313420000000 1.0
C      1  0.4015220000000  0.5157330000000  0.5380250000000 1.0
C      1  0.5373660000000  0.5403740000000  0.4706590000000 1.0
C      1  0.5603770000000  0.4902940000000  0.5259360000000 1.0
C      1  0.5485800000000  0.4506920000000  0.5989800000000 1.0
C      1  0.4221430000000  0.5505020000000  0.5695530000000 1.0
C      1  0.4815460000000  0.4576160000000  0.3690410000000 1.0
C      1  0.4143160000000  0.5789200000000  0.4712850000000 1.0
C      1  0.5052780000000  0.4355340000000  0.4051560000000 1.0
C      1  0.5017160000000  0.4626990000000  0.3517800000000 1.0
C      1  0.4606870000000  0.5884110000000  0.5095430000000 1.0
C      1  0.4996360000000  0.4223650000000  0.5426990000000 1.0
C      1  0.5659120000000  0.6001590000000  0.4837250000000 1.0
C      1  0.4559280000000  0.5606870000000  0.5136410000000 1.0
C      1  0.4440550000000  0.4508570000000  0.4842610000000 1.0
C      1  0.4644070000000  0.4694670000000  0.4770110000000 1.0
C      1  0.5637720000000  0.5315300000000  0.4713620000000 1.0
C      1  0.5192770000000  0.5084360000000  0.4954130000000 1.0
C      1  0.6070530000000  0.5420790000000  0.4728860000000 1.0
C      1  0.4672460000000  0.4580690000000  0.5821030000000 1.0
C      1  0.5260040000000  0.4907450000000  0.4717700000000 1.0
C      1  0.4718080000000  0.4933010000000  0.4272600000000 1.0
C      1  0.4899120000000  0.4589800000000  0.4819130000000 1.0
C      1  0.5196830000000  0.5564610000000  0.5175380000000 1.0
C      1  0.6019160000000  0.5315080000000  0.5374360000000 1.0
C      1  0.5158350000000  0.4997750000000  0.5985120000000 1.0
C      1  0.5292880000000  0.4513690000000  0.4052320000000 1.0
C      1  0.5189780000000  0.4858430000000  0.4444830000000 1.0
C      1  0.5775560000000  0.4347530000000  0.4668960000000 1.0
C      1  0.4873410000000  0.5120900000000  0.6025370000000 1.0
C      1  0.5213570000000  0.5774780000000  0.4166510000000 1.0
C      1  0.4072020000000  0.5267910000000  0.5634330000000 1.0
C      1  0.5277200000000  0.5410830000000  0.4441810000000 1.0
C      1  0.4403440000000  0.6050640000000  0.5021430000000 1.0
C      1  0.5861320000000  0.5538580000000  0.5437320000000 1.0
C      1  0.5158000000000  0.6052300000000  0.5075620000000 1.0
C      1  0.5414050000000  0.5602180000000  0.4280120000000 1.0
C      1  0.4060370000000  0.5087540000000  0.4441390000000 1.0
C      1  0.4579440000000  0.3916820000000  0.5475500000000 1.0
C      1  0.5278940000000  0.4540930000000  0.5225040000000 1.0
C      1  0.5304320000000  0.4984350000000  0.6215970000000 1.0
C      1  0.5407350000000  0.4571090000000  0.3800910000000 1.0
C      1  0.4114950000000  0.4848870000000  0.4877770000000 1.0
C      1  0.5174610000000  0.3943840000000  0.4381410000000 1.0
C      1  0.4540880000000  0.4115670000000  0.5653510000000 1.0
C      1  0.4530750000000  0.4482910000000  0.4357960000000 1.0
C      1  0.4904190000000  0.5059850000000  0.5599210000000 1.0
C      1  0.4260800000000  0.5618890000000  0.4502620000000 1.0
C      1  0.4628170000000  0.4887740000000  0.4565680000000 1.0
C      1  0.5218150000000  0.5992450000000  0.4574900000000 1.0
C      1  0.4291070000000  0.5085720000000  0.4964080000000 1.0
C      1  0.4556880000000  0.5441560000000  0.4153490000000 1.0
C      1  0.5028190000000  0.5299050000000  0.4396380000000 1.0
C      1  0.4793710000000  0.4782770000000  0.5643880000000 1.0
C      1  0.5889680000000  0.4861690000000  0.5258170000000 1.0
C      1  0.4481320000000  0.4389580000000  0.5703950000000 1.0
C      1  0.5658390000000  0.4512130000000  0.5531230000000 1.0
C      1  0.5094830000000  0.4017430000000  0.5563310000000 1.0
C      1  0.4052610000000  0.4728240000000  0.5145270000000 1.0
C      1  0.4534420000000  0.4722770000000  0.5241130000000 1.0
C      1  0.4353640000000  0.4256670000000  0.4863610000000 1.0
C      1  0.5443780000000  0.4002490000000  0.4460630000000 1.0
C      1  0.5000750000000  0.5027480000000  0.4323490000000 1.0
C      1  0.5431250000000  0.4145940000000  0.4914740000000 1.0
C      1  0.5283180000000  0.4623940000000  0.3566520000000 1.0
C      1  0.5695000000000  0.5048980000000  0.4774540000000 1.0
C      1  0.5471260000000  0.4363340000000  0.5357740000000 1.0
C      1  0.4205080000000  0.5323800000000  0.4534130000000 1.0
C      1  0.4263850000000  0.4487060000000  0.5548590000000 1.0
C      1  0.5008880000000  0.4483560000000  0.5313480000000 1.0
C      1  0.5639990000000  0.5705960000000  0.4447060000000 1.0
C      1  0.4122190000000  0.5740120000000  0.5535350000000 1.0
C      1  0.4267430000000  0.4606890000000  0.4441490000000 1.0
C      1  0.5785430000000  0.5725200000000  0.5240530000000 1.0
C      1  0.4673740000000  0.4649020000000  0.4162610000000 1.0
C      1  0.4117760000000  0.5753410000000  0.5239340000000 1.0
C      1  0.5598990000000  0.4213070000000  0.5148640000000 1.0
C      1  0.5067870000000  0.4099520000000  0.4168840000000 1.0
C      1  0.5518820000000  0.5485650000000  0.5833020000000 1.0
C      1  0.5244060000000  0.5454840000000  0.5876080000000 1.0
C      1  0.4584500000000  0.5170700000000  0.4138630000000 1.0
C      1  0.4723120000000  0.5162730000000  0.5166590000000 1.0
C      1  0.4922980000000  0.5076800000000  0.5325260000000 1.0
C      1  0.5386710000000  0.4990060000000  0.5427570000000 1.0
C      1  0.4710440000000  0.5402740000000  0.5025210000000 1.0
C      1  0.3900140000000  0.4906900000000  0.5312470000000 1.0
C      1  0.5024620000000  0.4425650000000  0.6176000000000 1.0
C      1  0.4614500000000  0.6142870000000  0.4371750000000 1.0
C      1  0.4521860000000  0.4976640000000  0.5119400000000 1.0
C      1  0.5868470000000  0.4346430000000  0.5132410000000 1.0
C      1  0.5811020000000  0.4725590000000  0.4377970000000 1.0
C      1  0.4646290000000  0.5359920000000  0.4756300000000 1.0
C      1  0.6245380000000  0.4307030000000  0.4817440000000 1.0
C      1  0.4781330000000  0.4650910000000  0.5373870000000 1.0
C      1  0.4937350000000  0.6034610000000  0.5505730000000 1.0
C      1  0.5694120000000  0.4612000000000  0.4600920000000 1.0
C      1  0.5841070000000  0.6205240000000  0.4836360000000 1.0
C      1  0.4635850000000  0.3833410000000  0.4955290000000 1.0
C      1  0.5289830000000  0.4415200000000  0.6146630000000 1.0
C      1  0.4645500000000  0.3808420000000  0.5237540000000 1.0
C      1  0.4884940000000  0.5762890000000  0.5545600000000 1.0
C      1  0.5149670000000  0.4185980000000  0.4859040000000 1.0
C      1  0.4799070000000  0.4509870000000  0.6061240000000 1.0
C      1  0.5320570000000  0.5821240000000  0.5125110000000 1.0
C      1  0.5319110000000  0.4676530000000  0.4277000000000 1.0
C      1  0.5173810000000  0.5027270000000  0.5231300000000 1.0
C      1  0.4117980000000  0.4826240000000  0.4581270000000 1.0
C      1  0.4426040000000  0.4000150000000  0.4866880000000 1.0
C      1  0.4167160000000  0.5271890000000  0.5165600000000 1.0
C      1  0.4512280000000  0.5668310000000  0.4331930000000 1.0
C      1  0.5468990000000  0.4716710000000  0.5074020000000 1.0
C      1  0.5893370000000  0.4570790000000  0.5336170000000 1.0
C      1  0.5083600000000  0.5353590000000  0.5661820000000 1.0
END
