TITL C-3866673-4222-410 -1.70092142426387e-06 125000 -953.354295935098 0 0 154 (C1) n - 1
REM
REM in /home/nfs/bkarasulu/CARBON/AIRSS/Generating-Clusters/LCBOP/Only-C1/SD-CG/FIRE-CG
REM
REM
REM
REM
REM
REM ./C.cell (11c1c37f851c82e70ff6c80c92926a4b)
REM AIRSS Version 0.9.1 bugfix July 2018 build 013d7b7c2542+ Fri, 06 Jul 2018 19:26:36 +0100
REM compiler GCC version 9.2.1 20190827 (Red Hat 9.2.1-1)
REM options -cpp -mtune=generic -march=x86-64 -g -O0 -fpre-include=/usr/include/finclude/math-vector-fortran.h
REM seed -119514748 1775276816 747389164 -556684011 -996790259 -1264107584 1569113597 -1502478858 1239296396 1152410716 -1033061654 795879277 1816336400 413138559 1955285668 -316703634 936357410 -75803494 -1504272063 -668425496 -589955290 962425806 1547269433 -747390859 -931154203 -1957753684 1992373956 959358965 -1779051241 1885228513 -1772497600 327284646 305089168
REM
CELL 1.54180   50.00000   50.00000   50.00000   90.00000   90.00000   90.00000
LATT -1
SFAC C  
C      1  0.5681140000000  0.5057490000000  0.4648360000000 1.0
C      1  0.4301480000000  0.5546230000000  0.5721330000000 1.0
C      1  0.4466450000000  0.5128100000000  0.3913960000000 1.0
C      1  0.5659780000000  0.4522890000000  0.4979700000000 1.0
C      1  0.5524500000000  0.4034800000000  0.5597710000000 1.0
C      1  0.4372280000000  0.5050640000000  0.4773840000000 1.0
C      1  0.5321160000000  0.4713120000000  0.4689370000000 1.0
C      1  0.4645320000000  0.4760920000000  0.5206530000000 1.0
C      1  0.4507210000000  0.5735930000000  0.5794920000000 1.0
C      1  0.4475270000000  0.4307880000000  0.4541080000000 1.0
C      1  0.5297000000000  0.6421580000000  0.4315870000000 1.0
C      1  0.6087470000000  0.5470080000000  0.5029320000000 1.0
C      1  0.4902240000000  0.4568180000000  0.3865410000000 1.0
C      1  0.4275040000000  0.4162800000000  0.4668500000000 1.0
C      1  0.5443490000000  0.4908340000000  0.4238000000000 1.0
C      1  0.5806800000000  0.4338150000000  0.5861700000000 1.0
C      1  0.4148320000000  0.5463180000000  0.4753650000000 1.0
C      1  0.5509440000000  0.4866760000000  0.4521100000000 1.0
C      1  0.5107640000000  0.3924000000000  0.4995840000000 1.0
C      1  0.4677170000000  0.5307040000000  0.4006810000000 1.0
C      1  0.4290300000000  0.4078440000000  0.4922920000000 1.0
C      1  0.4653930000000  0.5632010000000  0.4884400000000 1.0
C      1  0.4217240000000  0.5187400000000  0.4368210000000 1.0
C      1  0.6518940000000  0.4602910000000  0.4482700000000 1.0
C      1  0.4310750000000  0.4899640000000  0.4018700000000 1.0
C      1  0.4728360000000  0.5653700000000  0.5161460000000 1.0
C      1  0.4050860000000  0.4538570000000  0.5256370000000 1.0
C      1  0.5345250000000  0.5175370000000  0.4928850000000 1.0
C      1  0.4201400000000  0.5460830000000  0.4468710000000 1.0
C      1  0.5118010000000  0.4879590000000  0.5230360000000 1.0
C      1  0.4578010000000  0.5813790000000  0.5332930000000 1.0
C      1  0.5034720000000  0.4858320000000  0.5505970000000 1.0
C      1  0.3989370000000  0.5045340000000  0.5299480000000 1.0
C      1  0.5197560000000  0.3873770000000  0.5258260000000 1.0
C      1  0.4471110000000  0.4892960000000  0.6082900000000 1.0
C      1  0.4893260000000  0.4090980000000  0.4897340000000 1.0
C      1  0.5718890000000  0.5059010000000  0.5186210000000 1.0
C      1  0.5124930000000  0.5831900000000  0.4120010000000 1.0
C      1  0.4902100000000  0.5260240000000  0.4975250000000 1.0
C      1  0.4285580000000  0.5289910000000  0.5849420000000 1.0
C      1  0.5225160000000  0.5327390000000  0.4035470000000 1.0
C      1  0.4841930000000  0.4432220000000  0.5692180000000 1.0
C      1  0.5660620000000  0.4125750000000  0.4642670000000 1.0
C      1  0.5223460000000  0.5632470000000  0.5121240000000 1.0
C      1  0.5106790000000  0.5078020000000  0.5023420000000 1.0
C      1  0.5613350000000  0.5112910000000  0.4921850000000 1.0
C      1  0.5149590000000  0.4586150000000  0.5152800000000 1.0
C      1  0.5056260000000  0.6000070000000  0.4334040000000 1.0
C      1  0.4656390000000  0.5687140000000  0.6031330000000 1.0
C      1  0.5239660000000  0.4430350000000  0.5399180000000 1.0
C      1  0.6088740000000  0.4745190000000  0.4778220000000 1.0
C      1  0.5543490000000  0.5055330000000  0.5421350000000 1.0
C      1  0.5724100000000  0.4270120000000  0.5091400000000 1.0
C      1  0.4935670000000  0.5985620000000  0.5651450000000 1.0
C      1  0.4835240000000  0.4524920000000  0.5146890000000 1.0
C      1  0.4040230000000  0.4790550000000  0.5440950000000 1.0
C      1  0.4684610000000  0.4162300000000  0.4424880000000 1.0
C      1  0.5140720000000  0.4522560000000  0.4027560000000 1.0
C      1  0.4906960000000  0.4114470000000  0.4603180000000 1.0
C      1  0.5363860000000  0.6094480000000  0.5341720000000 1.0
C      1  0.5651410000000  0.5708130000000  0.5244630000000 1.0
C      1  0.4164500000000  0.4833420000000  0.5695200000000 1.0
C      1  0.4187190000000  0.5555980000000  0.5453200000000 1.0
C      1  0.4832080000000  0.5947630000000  0.4513000000000 1.0
C      1  0.5558360000000  0.5977180000000  0.5167410000000 1.0
C      1  0.4329030000000  0.5293290000000  0.4911210000000 1.0
C      1  0.4582960000000  0.4335460000000  0.5728880000000 1.0
C      1  0.4666940000000  0.5876160000000  0.5592600000000 1.0
C      1  0.4817300000000  0.4614350000000  0.4708730000000 1.0
C      1  0.4922300000000  0.5102100000000  0.4328070000000 1.0
C      1  0.5532580000000  0.4796570000000  0.5550130000000 1.0
C      1  0.5263190000000  0.5497860000000  0.5987620000000 1.0
C      1  0.4403700000000  0.4703280000000  0.5063300000000 1.0
C      1  0.5649050000000  0.3713370000000  0.5257430000000 1.0
C      1  0.4708240000000  0.5248400000000  0.4482520000000 1.0
C      1  0.5023380000000  0.4846350000000  0.4357480000000 1.0
C      1  0.6312920000000  0.4668200000000  0.4628300000000 1.0
C      1  0.4396940000000  0.5226280000000  0.5194300000000 1.0
C      1  0.4666200000000  0.4492280000000  0.4017360000000 1.0
C      1  0.4896450000000  0.4708540000000  0.5682700000000 1.0
C      1  0.4435540000000  0.4211240000000  0.5125860000000 1.0
C      1  0.5459840000000  0.5181380000000  0.4136780000000 1.0
C      1  0.5230740000000  0.5609100000000  0.4016910000000 1.0
C      1  0.5290810000000  0.3857040000000  0.4785470000000 1.0
C      1  0.4488290000000  0.4692000000000  0.4120940000000 1.0
C      1  0.4723860000000  0.4262290000000  0.5070370000000 1.0
C      1  0.4541050000000  0.5862730000000  0.4520870000000 1.0
C      1  0.4153320000000  0.5286250000000  0.5346670000000 1.0
C      1  0.5691830000000  0.5312290000000  0.4239120000000 1.0
C      1  0.5905870000000  0.5610590000000  0.5170110000000 1.0
C      1  0.4346900000000  0.4747350000000  0.6280010000000 1.0
C      1  0.4034480000000  0.5685800000000  0.4880290000000 1.0
C      1  0.5554950000000  0.6060670000000  0.4893140000000 1.0
C      1  0.5042550000000  0.4290540000000  0.5552750000000 1.0
C      1  0.4566600000000  0.4572810000000  0.4587860000000 1.0
C      1  0.5126030000000  0.6085570000000  0.5467510000000 1.0
C      1  0.4777640000000  0.4265740000000  0.4175320000000 1.0
C      1  0.5747420000000  0.4047470000000  0.4912320000000 1.0
C      1  0.4959930000000  0.5933270000000  0.4773270000000 1.0
C      1  0.5991160000000  0.4979890000000  0.5197790000000 1.0
C      1  0.4995310000000  0.5035550000000  0.6043260000000 1.0
C      1  0.3973110000000  0.4756940000000  0.4436930000000 1.0
C      1  0.6079120000000  0.5306980000000  0.4575160000000 1.0
C      1  0.4509180000000  0.4771990000000  0.4399880000000 1.0
C      1  0.4237070000000  0.5844810000000  0.4999430000000 1.0
C      1  0.4853810000000  0.5413680000000  0.5216190000000 1.0
C      1  0.5164490000000  0.4158090000000  0.4447760000000 1.0
C      1  0.5852410000000  0.4578720000000  0.4762210000000 1.0
C      1  0.6139360000000  0.4942200000000  0.5429350000000 1.0
C      1  0.3938280000000  0.4535670000000  0.4957360000000 1.0
C      1  0.4612030000000  0.5452740000000  0.4258320000000 1.0
C      1  0.5118620000000  0.5799790000000  0.4941350000000 1.0
C      1  0.5440160000000  0.6107490000000  0.4652660000000 1.0
C      1  0.5219050000000  0.4754260000000  0.4164680000000 1.0
C      1  0.5795140000000  0.4369410000000  0.4563170000000 1.0
C      1  0.4354570000000  0.4310550000000  0.5591600000000 1.0
C      1  0.4467440000000  0.5055630000000  0.4499480000000 1.0
C      1  0.6113790000000  0.4985060000000  0.4940480000000 1.0
C      1  0.3985810000000  0.4968770000000  0.5023250000000 1.0
C      1  0.4307850000000  0.5006090000000  0.5874000000000 1.0
C      1  0.5045900000000  0.5299130000000  0.5912040000000 1.0
C      1  0.5605310000000  0.4296240000000  0.5674090000000 1.0
C      1  0.4752380000000  0.4926050000000  0.6096720000000 1.0
C      1  0.5474500000000  0.4515500000000  0.5542690000000 1.0
C      1  0.4624200000000  0.5048680000000  0.5324530000000 1.0
C      1  0.5380090000000  0.4593210000000  0.4942190000000 1.0
C      1  0.4796040000000  0.5445060000000  0.6015240000000 1.0
C      1  0.5421510000000  0.5533060000000  0.5303530000000 1.0
C      1  0.4231110000000  0.4861080000000  0.4914830000000 1.0
C      1  0.5266380000000  0.6175800000000  0.4435490000000 1.0
C      1  0.4958620000000  0.5222250000000  0.4066010000000 1.0
C      1  0.5826250000000  0.5237060000000  0.4476680000000 1.0
C      1  0.5051130000000  0.4721660000000  0.4606070000000 1.0
C      1  0.5256020000000  0.5769220000000  0.5964220000000 1.0
C      1  0.4465200000000  0.5833850000000  0.4804800000000 1.0
C      1  0.5773750000000  0.3795190000000  0.5031890000000 1.0
C      1  0.5444480000000  0.3851270000000  0.5398220000000 1.0
C      1  0.5034420000000  0.5943320000000  0.5922100000000 1.0
C      1  0.4423400000000  0.5638890000000  0.4368100000000 1.0
C      1  0.3926430000000  0.4619350000000  0.4681840000000 1.0
C      1  0.5078510000000  0.5268560000000  0.5604880000000 1.0
C      1  0.5083060000000  0.4283850000000  0.4193670000000 1.0
C      1  0.4836060000000  0.5238250000000  0.5437510000000 1.0
C      1  0.4098630000000  0.4952390000000  0.4236160000000 1.0
C      1  0.4768420000000  0.5386420000000  0.4750950000000 1.0
C      1  0.5390040000000  0.4040800000000  0.4584480000000 1.0
C      1  0.6147330000000  0.5258930000000  0.4845790000000 1.0
C      1  0.6186010000000  0.4669310000000  0.5859050000000 1.0
C      1  0.4821260000000  0.5905380000000  0.6107750000000 1.0
C      1  0.4265960000000  0.4340820000000  0.5325440000000 1.0
C      1  0.5359350000000  0.5291460000000  0.5466600000000 1.0
C      1  0.4295840000000  0.5777270000000  0.5279460000000 1.0
C      1  0.6023960000000  0.4472450000000  0.5936120000000 1.0
C      1  0.6221690000000  0.4844120000000  0.5661660000000 1.0
END
