TITL C-3866676-3738-651 -4.54593376037082e-07 125000 -670.70245340349 0 0 108 (C1) n - 1
REM
REM in /home/nfs/bkarasulu/CARBON/AIRSS/Generating-Clusters/LCBOP/Only-C1/SD-CG/FIRE-CG
REM
REM
REM
REM
REM
REM ./C.cell (11c1c37f851c82e70ff6c80c92926a4b)
REM AIRSS Version 0.9.1 bugfix July 2018 build 013d7b7c2542+ Fri, 06 Jul 2018 19:26:36 +0100
REM compiler GCC version 9.2.1 20190827 (Red Hat 9.2.1-1)
REM options -cpp -mtune=generic -march=x86-64 -g -O0 -fpre-include=/usr/include/finclude/math-vector-fortran.h
REM seed 1440490744 -1814347479 -1928703995 644791257 -1176334676 -120101759 1770452325 756322938 1921468626 950272661 -1667611190 -446518866 1903679598 573574927 2035205857 -532458600 -1400294340 1787421041 -667090354 1698416697 -1495526748 558543824 2087832443 -186295144 -255691507 -937115221 -219126642 -1785336971 345432459 247998143 -1910869094 1292990009 -1858938472
REM
CELL 1.54180   50.00000   50.00000   50.00000   90.00000   90.00000   90.00000
LATT -1
SFAC C  
C      1  0.5501050000000  0.5189750000000  0.5729290000000 1.0
C      1  0.4042400000000  0.4321840000000  0.5639160000000 1.0
C      1  0.5385510000000  0.4348060000000  0.4734590000000 1.0
C      1  0.4765750000000  0.5031920000000  0.4473150000000 1.0
C      1  0.5665530000000  0.5034000000000  0.4963590000000 1.0
C      1  0.5846470000000  0.4745990000000  0.4519760000000 1.0
C      1  0.4163610000000  0.4107430000000  0.5531830000000 1.0
C      1  0.4999310000000  0.4982660000000  0.4633610000000 1.0
C      1  0.5034360000000  0.4431690000000  0.5537010000000 1.0
C      1  0.4321130000000  0.4666740000000  0.4849310000000 1.0
C      1  0.5485250000000  0.5657100000000  0.4197300000000 1.0
C      1  0.4255240000000  0.5094730000000  0.4119850000000 1.0
C      1  0.5091230000000  0.5708620000000  0.4766980000000 1.0
C      1  0.5987710000000  0.5550340000000  0.4917910000000 1.0
C      1  0.5604680000000  0.5709580000000  0.5188310000000 1.0
C      1  0.4319860000000  0.5609900000000  0.4935960000000 1.0
C      1  0.5706760000000  0.5019740000000  0.5599200000000 1.0
C      1  0.5626760000000  0.5651130000000  0.4670200000000 1.0
C      1  0.5740820000000  0.4560800000000  0.5337580000000 1.0
C      1  0.4480460000000  0.5078660000000  0.5040190000000 1.0
C      1  0.5234490000000  0.4725640000000  0.4967120000000 1.0
C      1  0.4040600000000  0.5140980000000  0.4923670000000 1.0
C      1  0.4611730000000  0.4158100000000  0.4779960000000 1.0
C      1  0.4930430000000  0.5899870000000  0.4869110000000 1.0
C      1  0.4154990000000  0.5230130000000  0.4345870000000 1.0
C      1  0.5605580000000  0.4341270000000  0.5199190000000 1.0
C      1  0.5442550000000  0.5221270000000  0.4521730000000 1.0
C      1  0.4352450000000  0.5353700000000  0.4511120000000 1.0
C      1  0.5646660000000  0.4721050000000  0.5574760000000 1.0
C      1  0.4731300000000  0.4631120000000  0.4210350000000 1.0
C      1  0.5326190000000  0.4798330000000  0.5964670000000 1.0
C      1  0.5045110000000  0.4794850000000  0.6018510000000 1.0
C      1  0.5426400000000  0.5063980000000  0.5969980000000 1.0
C      1  0.4581230000000  0.5208360000000  0.4596040000000 1.0
C      1  0.3903030000000  0.5176170000000  0.4457630000000 1.0
C      1  0.4828250000000  0.5072890000000  0.5363650000000 1.0
C      1  0.4935880000000  0.4908960000000  0.5562800000000 1.0
C      1  0.5678260000000  0.5360270000000  0.4621280000000 1.0
C      1  0.4357130000000  0.4711040000000  0.5709670000000 1.0
C      1  0.4527150000000  0.5775170000000  0.4457830000000 1.0
C      1  0.4398530000000  0.4046360000000  0.5416110000000 1.0
C      1  0.4619100000000  0.4195200000000  0.5317230000000 1.0
C      1  0.4930300000000  0.4652550000000  0.6219860000000 1.0
C      1  0.5271770000000  0.4387340000000  0.5696360000000 1.0
C      1  0.5355570000000  0.4890870000000  0.4180890000000 1.0
C      1  0.5864580000000  0.5459650000000  0.5504260000000 1.0
C      1  0.4366210000000  0.5619030000000  0.4637440000000 1.0
C      1  0.4968500000000  0.5435870000000  0.5875250000000 1.0
C      1  0.3850230000000  0.5124100000000  0.4716930000000 1.0
C      1  0.5489130000000  0.4223820000000  0.4975660000000 1.0
C      1  0.5438400000000  0.4631870000000  0.4800740000000 1.0
C      1  0.4920680000000  0.5315140000000  0.5249260000000 1.0
C      1  0.4516340000000  0.5241280000000  0.5765520000000 1.0
C      1  0.4662890000000  0.4934410000000  0.5191120000000 1.0
C      1  0.5333950000000  0.5048620000000  0.5283680000000 1.0
C      1  0.4618890000000  0.5616550000000  0.5399290000000 1.0
C      1  0.5268380000000  0.4393230000000  0.4455180000000 1.0
C      1  0.4548570000000  0.4551090000000  0.4998690000000 1.0
C      1  0.4902340000000  0.4961990000000  0.5838220000000 1.0
C      1  0.4755960000000  0.4360230000000  0.5517410000000 1.0
C      1  0.5394570000000  0.5444080000000  0.5604450000000 1.0
C      1  0.4630410000000  0.5248150000000  0.4870480000000 1.0
C      1  0.4911880000000  0.5544630000000  0.5417630000000 1.0
C      1  0.5053070000000  0.3766250000000  0.4167310000000 1.0
C      1  0.4530210000000  0.5072050000000  0.4056890000000 1.0
C      1  0.6080290000000  0.4919790000000  0.5126590000000 1.0
C      1  0.4249260000000  0.4939500000000  0.4939370000000 1.0
C      1  0.5929450000000  0.5182490000000  0.5513400000000 1.0
C      1  0.5739210000000  0.5705990000000  0.4935610000000 1.0
C      1  0.4338240000000  0.4519550000000  0.4599500000000 1.0
C      1  0.5076650000000  0.4696130000000  0.5441670000000 1.0
C      1  0.5105840000000  0.5520920000000  0.5636460000000 1.0
C      1  0.4782650000000  0.5218470000000  0.5883740000000 1.0
C      1  0.5042490000000  0.4010220000000  0.4258290000000 1.0
C      1  0.5493680000000  0.5169960000000  0.5112400000000 1.0
C      1  0.5444350000000  0.4612140000000  0.5768780000000 1.0
C      1  0.5606030000000  0.5572880000000  0.5440990000000 1.0
C      1  0.4874660000000  0.5347820000000  0.4974110000000 1.0
C      1  0.5244790000000  0.4787640000000  0.5240000000000 1.0
C      1  0.4558610000000  0.4329870000000  0.4551620000000 1.0
C      1  0.5400360000000  0.5173540000000  0.4237970000000 1.0
C      1  0.4985030000000  0.4789110000000  0.4849150000000 1.0
C      1  0.4467450000000  0.5468560000000  0.5595410000000 1.0
C      1  0.5190710000000  0.5207060000000  0.4659060000000 1.0
C      1  0.4110140000000  0.4573490000000  0.5706640000000 1.0
C      1  0.5027110000000  0.4269730000000  0.4362140000000 1.0
C      1  0.5941660000000  0.5060030000000  0.4918280000000 1.0
C      1  0.5336560000000  0.5428500000000  0.4110950000000 1.0
C      1  0.4800390000000  0.5521040000000  0.4063920000000 1.0
C      1  0.5580020000000  0.4718470000000  0.4566290000000 1.0
C      1  0.4601640000000  0.4274700000000  0.5041750000000 1.0
C      1  0.4122060000000  0.5408840000000  0.5008550000000 1.0
C      1  0.5944230000000  0.5303750000000  0.4765790000000 1.0
C      1  0.4580410000000  0.4540390000000  0.5659590000000 1.0
C      1  0.5971640000000  0.4664660000000  0.5199700000000 1.0
C      1  0.5078540000000  0.5429460000000  0.4797060000000 1.0
C      1  0.4703430000000  0.5906670000000  0.5014080000000 1.0
C      1  0.4763650000000  0.4729840000000  0.5021140000000 1.0
C      1  0.5554520000000  0.5778370000000  0.4429690000000 1.0
C      1  0.5391300000000  0.4655860000000  0.4346520000000 1.0
C      1  0.4683110000000  0.5709230000000  0.4243980000000 1.0
C      1  0.4769750000000  0.4399480000000  0.4367570000000 1.0
C      1  0.4647090000000  0.5308750000000  0.3959040000000 1.0
C      1  0.5076520000000  0.5490110000000  0.4026190000000 1.0
C      1  0.4690200000000  0.4907180000000  0.4228960000000 1.0
C      1  0.4375500000000  0.4992900000000  0.5744740000000 1.0
C      1  0.4520230000000  0.5719990000000  0.5133280000000 1.0
C      1  0.6136780000000  0.5078750000000  0.5354450000000 1.0
END
