TITL C-3866674-3872-3 -5.44617967172981e-07 125000 -503.191877994199 0 0 83 (C1) n - 1
REM
REM in /home/nfs/bkarasulu/CARBON/AIRSS/Generating-Clusters/LCBOP/Only-C1/SD-CG/HFTN-CG/FIRE-CG
REM
REM
REM
REM
REM
REM ./C.cell (11c1c37f851c82e70ff6c80c92926a4b)
REM AIRSS Version 0.9.1 bugfix July 2018 build 013d7b7c2542+ Fri, 06 Jul 2018 19:26:36 +0100
REM compiler GCC version 9.2.1 20190827 (Red Hat 9.2.1-1)
REM options -cpp -mtune=generic -march=x86-64 -g -O0 -fpre-include=/usr/include/finclude/math-vector-fortran.h
REM seed 1308506874 1357785799 340077101 -838175099 -585621096 -1435861035 -145172669 603453057 -35030654 -1052044130 53440006 1824646894 -695394903 2109485651 -838511331 1540082911 -213625319 793058521 -1524210299 -864282635 -1702485065 863941023 1088022653 1272634391 51633207 -387174190 1130805307 1337673609 378938206 -1170097413 -454097187 -994793494 -1878791660
REM
CELL 1.54180   50.00000   50.00000   50.00000   90.00000   90.00000   90.00000
LATT -1
SFAC C  
C      1  0.5377590000000  0.4351330000000  0.4760520000000 1.0
C      1  0.4122970000000  0.4743460000000  0.5320140000000 1.0
C      1  0.4768080000000  0.5757690000000  0.4617510000000 1.0
C      1  0.5684100000000  0.4813000000000  0.5040390000000 1.0
C      1  0.5110230000000  0.5846080000000  0.5297780000000 1.0
C      1  0.5607110000000  0.5713720000000  0.4810940000000 1.0
C      1  0.4121970000000  0.3716080000000  0.5288670000000 1.0
C      1  0.4686910000000  0.5606400000000  0.4154550000000 1.0
C      1  0.4306820000000  0.5601150000000  0.4761140000000 1.0
C      1  0.4897460000000  0.4248410000000  0.5351290000000 1.0
C      1  0.4810800000000  0.4503210000000  0.4872070000000 1.0
C      1  0.5419200000000  0.4608520000000  0.4654230000000 1.0
C      1  0.4482810000000  0.4349830000000  0.4386130000000 1.0
C      1  0.5551410000000  0.5085110000000  0.4661000000000 1.0
C      1  0.5312010000000  0.4657130000000  0.4395110000000 1.0
C      1  0.5875200000000  0.5192490000000  0.5435210000000 1.0
C      1  0.5274160000000  0.4854210000000  0.4214310000000 1.0
C      1  0.4142260000000  0.4505960000000  0.5196310000000 1.0
C      1  0.5242340000000  0.4121670000000  0.4785240000000 1.0
C      1  0.5904750000000  0.5428640000000  0.5587360000000 1.0
C      1  0.6048800000000  0.5058020000000  0.5256410000000 1.0
C      1  0.4303190000000  0.4089790000000  0.4942940000000 1.0
C      1  0.4502250000000  0.4011210000000  0.4746100000000 1.0
C      1  0.4199650000000  0.4514710000000  0.4723370000000 1.0
C      1  0.5070820000000  0.5171220000000  0.5028460000000 1.0
C      1  0.5576960000000  0.5869070000000  0.5053250000000 1.0
C      1  0.4984300000000  0.4311930000000  0.5841850000000 1.0
C      1  0.5960630000000  0.4880660000000  0.5068230000000 1.0
C      1  0.4164750000000  0.5004850000000  0.5364950000000 1.0
C      1  0.4868720000000  0.4380880000000  0.5103350000000 1.0
C      1  0.4895850000000  0.5844290000000  0.4874930000000 1.0
C      1  0.5840610000000  0.5602770000000  0.4709270000000 1.0
C      1  0.4414090000000  0.5375590000000  0.4888930000000 1.0
C      1  0.5694930000000  0.5588370000000  0.5655780000000 1.0
C      1  0.4629580000000  0.5336230000000  0.4237120000000 1.0
C      1  0.5429130000000  0.5547400000000  0.5565740000000 1.0
C      1  0.5549850000000  0.4829040000000  0.4789480000000 1.0
C      1  0.4472220000000  0.4094130000000  0.4475600000000 1.0
C      1  0.4644420000000  0.4676410000000  0.4719980000000 1.0
C      1  0.4818530000000  0.3988330000000  0.5382910000000 1.0
C      1  0.5367990000000  0.5118630000000  0.4249890000000 1.0
C      1  0.5188660000000  0.5272070000000  0.5236520000000 1.0
C      1  0.4472190000000  0.5791380000000  0.4670120000000 1.0
C      1  0.5102240000000  0.4654090000000  0.5526030000000 1.0
C      1  0.4902870000000  0.5475000000000  0.4597200000000 1.0
C      1  0.4768550000000  0.5815070000000  0.4316480000000 1.0
C      1  0.5303020000000  0.5941690000000  0.5101360000000 1.0
C      1  0.4456420000000  0.5405430000000  0.5170260000000 1.0
C      1  0.4722840000000  0.4891320000000  0.5364780000000 1.0
C      1  0.4672860000000  0.5566840000000  0.5284150000000 1.0
C      1  0.5789010000000  0.5187710000000  0.3976940000000 1.0
C      1  0.5925930000000  0.5385340000000  0.4577340000000 1.0
C      1  0.5600100000000  0.5107550000000  0.5410320000000 1.0
C      1  0.5347910000000  0.4694570000000  0.5400890000000 1.0
C      1  0.4928070000000  0.4935680000000  0.6042080000000 1.0
C      1  0.5772290000000  0.5171390000000  0.4482070000000 1.0
C      1  0.4823220000000  0.5309460000000  0.5729400000000 1.0
C      1  0.5393910000000  0.5302530000000  0.5421520000000 1.0
C      1  0.4433410000000  0.4559580000000  0.4568590000000 1.0
C      1  0.5321880000000  0.5216380000000  0.4526420000000 1.0
C      1  0.4851510000000  0.5763210000000  0.5159950000000 1.0
C      1  0.4964760000000  0.4439070000000  0.6077510000000 1.0
C      1  0.5227640000000  0.5741600000000  0.5532070000000 1.0
C      1  0.5005240000000  0.4390310000000  0.5572670000000 1.0
C      1  0.4946740000000  0.4694510000000  0.6157750000000 1.0
C      1  0.4629550000000  0.4921050000000  0.5120180000000 1.0
C      1  0.4516490000000  0.5149790000000  0.4074040000000 1.0
C      1  0.4205640000000  0.3895180000000  0.5118880000000 1.0
C      1  0.4900680000000  0.5045010000000  0.5785250000000 1.0
C      1  0.5335920000000  0.5684660000000  0.4698670000000 1.0
C      1  0.5541320000000  0.4856510000000  0.5285270000000 1.0
C      1  0.4761630000000  0.3920000000000  0.4811160000000 1.0
C      1  0.4916040000000  0.4865750000000  0.5563520000000 1.0
C      1  0.4551350000000  0.5179590000000  0.4725410000000 1.0
C      1  0.4706870000000  0.5284190000000  0.4509540000000 1.0
C      1  0.4197720000000  0.4359470000000  0.4961250000000 1.0
C      1  0.4739860000000  0.5490190000000  0.5550630000000 1.0
C      1  0.5025840000000  0.3964650000000  0.4799340000000 1.0
C      1  0.5191170000000  0.5455600000000  0.4600880000000 1.0
C      1  0.4285390000000  0.5242630000000  0.5329770000000 1.0
C      1  0.4604310000000  0.4928620000000  0.4841270000000 1.0
C      1  0.5175950000000  0.5885680000000  0.4841160000000 1.0
C      1  0.5657500000000  0.5161990000000  0.4212950000000 1.0
END
