TITL C-3866674-3872-583 110.206777314291 125000 -979.218809583912 0 0 161 (C1) n - 1
REM
REM in /home/nfs/bkarasulu/CARBON/AIRSS/Generating-Clusters/LCBOP/Only-C1/SD-CG/FIRE-CG
REM
REM
REM
REM
REM
REM ./C.cell (11c1c37f851c82e70ff6c80c92926a4b)
REM AIRSS Version 0.9.1 bugfix July 2018 build 013d7b7c2542+ Fri, 06 Jul 2018 19:26:36 +0100
REM compiler GCC version 9.2.1 20190827 (Red Hat 9.2.1-1)
REM options -cpp -mtune=generic -march=x86-64 -g -O0 -fpre-include=/usr/include/finclude/math-vector-fortran.h
REM seed -1924148112 499170129 -936467682 1808891999 1855283102 -187604027 268892151 -2060040709 1550428412 -654416358 -1700856673 760451137 1532138821 222192986 1083920345 1034864565 -83198128 -447474149 -2037685492 -420771862 -1932975169 -823228387 1076178736 1329424917 2000371905 -172702823 -1098022349 728857607 666244974 -1759167356 -1552913749 -868145498 1117832475
REM
CELL 1.54180   50.00000   50.00000   50.00000   90.00000   90.00000   90.00000
LATT -1
SFAC C  
C      1  0.4355300000000  0.4655570000000  0.4025230000000 1.0
C      1  0.5591610000000  0.4508840000000  0.5310470000000 1.0
C      1  0.4868740000000  0.4934430000000  0.6036960000000 1.0
C      1  0.5188860000000  0.4742500000000  0.5378600000000 1.0
C      1  0.4504950000000  0.5862900000000  0.4923420000000 1.0
C      1  0.5879900000000  0.5334810000000  0.4809870000000 1.0
C      1  0.5145710000000  0.4177440000000  0.5110770000000 1.0
C      1  0.4389340000000  0.4136450000000  0.5060680000000 1.0
C      1  0.5342530000000  0.4050650000000  0.4584500000000 1.0
C      1  0.4716010000000  0.4955810000000  0.4851420000000 1.0
C      1  0.4582810000000  0.4849490000000  0.6008490000000 1.0
C      1  0.5280480000000  0.3875180000000  0.4804170000000 1.0
C      1  0.5814660000000  0.4706040000000  0.5245340000000 1.0
C      1  0.4545500000000  0.4127050000000  0.5776970000000 1.0
C      1  0.6103130000000  0.5488710000000  0.5226130000000 1.0
C      1  0.5319500000000  0.4498930000000  0.5387960000000 1.0
C      1  0.4964430000000  0.5534930000000  0.6217700000000 1.0
C      1  0.4542550000000  0.5224080000000  0.5529590000000 1.0
C      1  0.4520810000000  0.5483400000000  0.5412480000000 1.0
C      1  0.4575110000000  0.4410070000000  0.5804710000000 1.0
C      1  0.5588800000000  0.5206220000000  0.5477130000000 1.0
C      1  0.4255390000000  0.5907020000000  0.5057800000000 1.0
C      1  0.4759910000000  0.5391030000000  0.5015330000000 1.0
C      1  0.4568020000000  0.3936760000000  0.4973620000000 1.0
C      1  0.4719950000000  0.4027530000000  0.5574040000000 1.0
C      1  0.3768620000000  0.4221930000000  0.4926250000000 1.0
C      1  0.5560500000000  0.5372260000000  0.4422960000000 1.0
C      1  0.4159030000000  0.5386640000000  0.3935120000000 1.0
C      1  0.5275660000000  0.4942880000000  0.4525390000000 1.0
C      1  0.5232080000000  0.5386620000000  0.4811240000000 1.0
C      1  0.5477340000000  0.5005890000000  0.5642750000000 1.0
C      1  0.4858100000000  0.4468560000000  0.3877980000000 1.0
C      1  0.4435840000000  0.5360890000000  0.3983800000000 1.0
C      1  0.5128890000000  0.4477470000000  0.4004720000000 1.0
C      1  0.4975570000000  0.4297840000000  0.4913770000000 1.0
C      1  0.3941430000000  0.5444830000000  0.4080850000000 1.0
C      1  0.5393580000000  0.5786700000000  0.4592620000000 1.0
C      1  0.5138720000000  0.4255890000000  0.5399700000000 1.0
C      1  0.5718660000000  0.5678030000000  0.5597260000000 1.0
C      1  0.4494710000000  0.5680940000000  0.4689490000000 1.0
C      1  0.4457500000000  0.4428950000000  0.4158270000000 1.0
C      1  0.3715390000000  0.5108370000000  0.5300270000000 1.0
C      1  0.5215300000000  0.4944010000000  0.5568940000000 1.0
C      1  0.5283510000000  0.4510210000000  0.4459060000000 1.0
C      1  0.4672670000000  0.4301200000000  0.4025450000000 1.0
C      1  0.4098590000000  0.4539510000000  0.5559160000000 1.0
C      1  0.6277810000000  0.5703020000000  0.5268410000000 1.0
C      1  0.5499180000000  0.4473150000000  0.4866170000000 1.0
C      1  0.5133450000000  0.4193510000000  0.4134390000000 1.0
C      1  0.4990670000000  0.4597360000000  0.4492370000000 1.0
C      1  0.4572670000000  0.5193450000000  0.4938080000000 1.0
C      1  0.4171410000000  0.4718270000000  0.5747580000000 1.0
C      1  0.6242620000000  0.4443650000000  0.5006330000000 1.0
C      1  0.4339120000000  0.4932040000000  0.5848090000000 1.0
C      1  0.4207670000000  0.5922260000000  0.4425320000000 1.0
C      1  0.5377480000000  0.4324000000000  0.4661780000000 1.0
C      1  0.4423320000000  0.4883200000000  0.3902650000000 1.0
C      1  0.4859370000000  0.3787810000000  0.5518640000000 1.0
C      1  0.5730180000000  0.5412010000000  0.5598870000000 1.0
C      1  0.4559080000000  0.4564750000000  0.6035280000000 1.0
C      1  0.3650310000000  0.4939290000000  0.5104010000000 1.0
C      1  0.5650580000000  0.5784000000000  0.4718460000000 1.0
C      1  0.4546570000000  0.4421680000000  0.4691650000000 1.0
C      1  0.4816570000000  0.3661010000000  0.5270390000000 1.0
C      1  0.3904640000000  0.5548970000000  0.4325710000000 1.0
C      1  0.4352000000000  0.5026120000000  0.4569530000000 1.0
C      1  0.5230770000000  0.4874990000000  0.4798920000000 1.0
C      1  0.4100590000000  0.4395860000000  0.5318330000000 1.0
C      1  0.6862650000000  0.6562790000000  0.5450120000000 1.0
C      1  0.4702900000000  0.5575090000000  0.5220020000000 1.0
C      1  0.4950210000000  0.5175640000000  0.5897650000000 1.0
C      1  0.4249760000000  0.5513420000000  0.4688000000000 1.0
C      1  0.4975660000000  0.4872690000000  0.4942780000000 1.0
C      1  0.5551580000000  0.4082730000000  0.5543460000000 1.0
C      1  0.4840190000000  0.4428420000000  0.4695360000000 1.0
C      1  0.5664110000000  0.4797250000000  0.5709090000000 1.0
C      1  0.5383200000000  0.4423270000000  0.6267160000000 1.0
C      1  0.4539800000000  0.4633080000000  0.5150810000000 1.0
C      1  0.4543010000000  0.5530650000000  0.4186460000000 1.0
C      1  0.4856920000000  0.4273940000000  0.5480070000000 1.0
C      1  0.5238170000000  0.5366970000000  0.4059890000000 1.0
C      1  0.5693680000000  0.5744820000000  0.5004610000000 1.0
C      1  0.4996560000000  0.6106080000000  0.4413750000000 1.0
C      1  0.5461830000000  0.4751900000000  0.4919230000000 1.0
C      1  0.4571070000000  0.5123060000000  0.3890140000000 1.0
C      1  0.6083620000000  0.5023330000000  0.5505580000000 1.0
C      1  0.5351280000000  0.5495390000000  0.4575830000000 1.0
C      1  0.5885900000000  0.4879320000000  0.4599050000000 1.0
C      1  0.5361630000000  0.5302590000000  0.5043390000000 1.0
C      1  0.4790940000000  0.3762160000000  0.5005680000000 1.0
C      1  0.5137120000000  0.5919750000000  0.4581060000000 1.0
C      1  0.5241510000000  0.5966200000000  0.5120710000000 1.0
C      1  0.5549500000000  0.5158530000000  0.5198060000000 1.0
C      1  0.6572910000000  0.6133630000000  0.5358970000000 1.0
C      1  0.5768460000000  0.4714980000000  0.4420780000000 1.0
C      1  0.5786670000000  0.5466250000000  0.4574720000000 1.0
C      1  0.4398780000000  0.4444400000000  0.4961360000000 1.0
C      1  0.5541350000000  0.4589320000000  0.4342350000000 1.0
C      1  0.5637100000000  0.4295090000000  0.5724660000000 1.0
C      1  0.5020390000000  0.3750670000000  0.4831550000000 1.0
C      1  0.4106170000000  0.4524800000000  0.5046290000000 1.0
C      1  0.5050860000000  0.4913220000000  0.3820010000000 1.0
C      1  0.4139190000000  0.4115740000000  0.5226280000000 1.0
C      1  0.4083400000000  0.5669370000000  0.4505290000000 1.0
C      1  0.5890410000000  0.5520340000000  0.5037520000000 1.0
C      1  0.5296850000000  0.4034480000000  0.4304510000000 1.0
C      1  0.4856280000000  0.5113370000000  0.3883230000000 1.0
C      1  0.4152820000000  0.5775540000000  0.5271730000000 1.0
C      1  0.6146290000000  0.5246860000000  0.5368820000000 1.0
C      1  0.4440250000000  0.6060490000000  0.4385560000000 1.0
C      1  0.5556160000000  0.4557940000000  0.5836690000000 1.0
C      1  0.4966790000000  0.5761210000000  0.4744450000000 1.0
C      1  0.5268200000000  0.4040620000000  0.5574810000000 1.0
C      1  0.4979240000000  0.5256240000000  0.4096190000000 1.0
C      1  0.3849230000000  0.4498300000000  0.4923900000000 1.0
C      1  0.4720430000000  0.4513330000000  0.5568350000000 1.0
C      1  0.4239810000000  0.5563730000000  0.5434310000000 1.0
C      1  0.6045760000000  0.4574770000000  0.5115350000000 1.0
C      1  0.4980950000000  0.5083840000000  0.5629540000000 1.0
C      1  0.5338800000000  0.4957010000000  0.4238890000000 1.0
C      1  0.4328560000000  0.5245300000000  0.4762950000000 1.0
C      1  0.5271070000000  0.5838220000000  0.5655480000000 1.0
C      1  0.4947600000000  0.5460150000000  0.4797300000000 1.0
C      1  0.4603780000000  0.4890370000000  0.4590070000000 1.0
C      1  0.5094590000000  0.4740120000000  0.6052450000000 1.0
C      1  0.5888770000000  0.4816680000000  0.5520520000000 1.0
C      1  0.3863160000000  0.5240870000000  0.5478940000000 1.0
C      1  0.4974140000000  0.4766100000000  0.5204950000000 1.0
C      1  0.5170440000000  0.6092800000000  0.5713590000000 1.0
C      1  0.5072970000000  0.6328950000000  0.5765030000000 1.0
C      1  0.3683740000000  0.4723180000000  0.4949190000000 1.0
C      1  0.4105750000000  0.5343160000000  0.5575510000000 1.0
C      1  0.4851810000000  0.4103310000000  0.4129270000000 1.0
C      1  0.5367970000000  0.3991880000000  0.5056970000000 1.0
C      1  0.4708530000000  0.6106000000000  0.4391770000000 1.0
C      1  0.6718990000000  0.6349990000000  0.5404900000000 1.0
C      1  0.5123880000000  0.3803240000000  0.5619890000000 1.0
C      1  0.5022250000000  0.5440540000000  0.5966950000000 1.0
C      1  0.4901050000000  0.5156820000000  0.4355060000000 1.0
C      1  0.4841320000000  0.4864020000000  0.4421930000000 1.0
C      1  0.4423710000000  0.4394770000000  0.4437370000000 1.0
C      1  0.5853640000000  0.5045550000000  0.4829370000000 1.0
C      1  0.5152650000000  0.5612840000000  0.5781750000000 1.0
C      1  0.5503280000000  0.5815510000000  0.5485130000000 1.0
C      1  0.5341300000000  0.4581170000000  0.6042060000000 1.0
C      1  0.4833530000000  0.5370640000000  0.4532820000000 1.0
C      1  0.4732270000000  0.5023210000000  0.5497030000000 1.0
C      1  0.4312270000000  0.5168420000000  0.5693640000000 1.0
C      1  0.5583220000000  0.3997860000000  0.5257860000000 1.0
C      1  0.5283700000000  0.6466130000000  0.4131640000000 1.0
C      1  0.5214190000000  0.4769140000000  0.4020760000000 1.0
C      1  0.4971870000000  0.5978380000000  0.5141280000000 1.0
C      1  0.4717150000000  0.4745810000000  0.5363270000000 1.0
C      1  0.3904420000000  0.4035000000000  0.5078400000000 1.0
C      1  0.5451330000000  0.5230100000000  0.4197100000000 1.0
C      1  0.5492300000000  0.5852060000000  0.5198740000000 1.0
C      1  0.5142320000000  0.6294100000000  0.4267040000000 1.0
C      1  0.4636680000000  0.5563240000000  0.4452880000000 1.0
C      1  0.4724570000000  0.5843810000000  0.5117940000000 1.0
C      1  0.5680280000000  0.4922710000000  0.5054600000000 1.0
C      1  0.6426810000000  0.5917360000000  0.5313180000000 1.0
END
