TITL C-3866669-3764-583 -15.3266170554987 125000 -589.350371422241 0 0 100 (C1) n - 1
REM
REM in /home/nfs/bkarasulu/CARBON/AIRSS/Generating-Clusters/LCBOP/Only-C1/SD-CG/FIRE-CG
REM
REM
REM
REM
REM
REM ./C.cell (11c1c37f851c82e70ff6c80c92926a4b)
REM AIRSS Version 0.9.1 bugfix July 2018 build 013d7b7c2542+ Fri, 06 Jul 2018 19:26:36 +0100
REM compiler GCC version 9.2.1 20190827 (Red Hat 9.2.1-1)
REM options -cpp -mtune=generic -march=x86-64 -g -O0 -fpre-include=/usr/include/finclude/math-vector-fortran.h
REM seed -593290290 1999927242 -640117528 -1881368773 1805522977 1757989431 -1929632829 -1740864643 -1185475958 -1017131301 -1253559158 432132372 -848855056 -367167787 -1644902619 -649579873 2139576477 -1794340246 -488447643 -621439703 -1452129978 -1813949239 -1885263039 1754030212 122694893 -454676171 -667857375 -584962817 1490977626 539301535 -1822936377 1530356138 -504795225
REM
CELL 1.54180   50.00000   50.00000   50.00000   90.00000   90.00000   90.00000
LATT -1
SFAC C  
C      1  0.5741690000000  0.4537140000000  0.5011870000000 1.0
C      1  0.5351170000000  0.5746230000000  0.4859200000000 1.0
C      1  0.4853280000000  0.4892530000000  0.6168470000000 1.0
C      1  0.4597280000000  0.5581610000000  0.4796270000000 1.0
C      1  0.4437300000000  0.4343770000000  0.5307860000000 1.0
C      1  0.4627240000000  0.4497870000000  0.4885500000000 1.0
C      1  0.5281700000000  0.4550180000000  0.5030670000000 1.0
C      1  0.5335440000000  0.4077330000000  0.5068540000000 1.0
C      1  0.5292950000000  0.5847240000000  0.5428930000000 1.0
C      1  0.5496850000000  0.5043510000000  0.5986730000000 1.0
C      1  0.4641400000000  0.5514610000000  0.5061660000000 1.0
C      1  0.5625000000000  0.5185900000000  0.5342900000000 1.0
C      1  0.4573590000000  0.4889980000000  0.5153480000000 1.0
C      1  0.5270840000000  0.4267090000000  0.5505360000000 1.0
C      1  0.4910750000000  0.5253940000000  0.4602720000000 1.0
C      1  0.5429900000000  0.4904180000000  0.5764950000000 1.0
C      1  0.4653430000000  0.5236010000000  0.5564580000000 1.0
C      1  0.5794720000000  0.4824770000000  0.5012750000000 1.0
C      1  0.5049450000000  0.6253100000000  0.5361800000000 1.0
C      1  0.5802890000000  0.5577890000000  0.5115440000000 1.0
C      1  0.5121920000000  0.5183450000000  0.4178440000000 1.0
C      1  0.5530270000000  0.4649030000000  0.5692580000000 1.0
C      1  0.5356070000000  0.5253210000000  0.4841360000000 1.0
C      1  0.4767170000000  0.4301630000000  0.4467810000000 1.0
C      1  0.4851940000000  0.4393310000000  0.5652830000000 1.0
C      1  0.5298120000000  0.5495130000000  0.4981120000000 1.0
C      1  0.4887500000000  0.4634840000000  0.4807070000000 1.0
C      1  0.4751690000000  0.4761220000000  0.4177520000000 1.0
C      1  0.5297900000000  0.4768290000000  0.4423740000000 1.0
C      1  0.4162910000000  0.4708470000000  0.4968130000000 1.0
C      1  0.5105920000000  0.4817890000000  0.4672230000000 1.0
C      1  0.4404140000000  0.5277960000000  0.4461890000000 1.0
C      1  0.4783240000000  0.5549490000000  0.4293720000000 1.0
C      1  0.5463410000000  0.4221060000000  0.5295940000000 1.0
C      1  0.5782280000000  0.5530090000000  0.4828370000000 1.0
C      1  0.5344060000000  0.5162050000000  0.5373390000000 1.0
C      1  0.4996460000000  0.5748810000000  0.4343260000000 1.0
C      1  0.5584410000000  0.4843920000000  0.4553480000000 1.0
C      1  0.4132230000000  0.4912610000000  0.4551610000000 1.0
C      1  0.4061470000000  0.4938930000000  0.5081620000000 1.0
C      1  0.4351980000000  0.4565580000000  0.5436170000000 1.0
C      1  0.5831170000000  0.5253070000000  0.4748310000000 1.0
C      1  0.5239730000000  0.4279250000000  0.4505590000000 1.0
C      1  0.4878330000000  0.4856150000000  0.5205710000000 1.0
C      1  0.5017650000000  0.4624350000000  0.5069060000000 1.0
C      1  0.4669020000000  0.5387020000000  0.5308340000000 1.0
C      1  0.5479130000000  0.4305500000000  0.4649060000000 1.0
C      1  0.5303810000000  0.4470950000000  0.5711460000000 1.0
C      1  0.4771040000000  0.5874550000000  0.5450290000000 1.0
C      1  0.5505510000000  0.4469240000000  0.4873300000000 1.0
C      1  0.5334870000000  0.5530530000000  0.5767380000000 1.0
C      1  0.4670680000000  0.5040160000000  0.4122670000000 1.0
C      1  0.4447380000000  0.5040790000000  0.5582480000000 1.0
C      1  0.5206690000000  0.5018940000000  0.4877660000000 1.0
C      1  0.4303860000000  0.4469710000000  0.4545550000000 1.0
C      1  0.4968480000000  0.5913230000000  0.4576460000000 1.0
C      1  0.5749340000000  0.4922310000000  0.5292580000000 1.0
C      1  0.4983100000000  0.4231800000000  0.5443440000000 1.0
C      1  0.5686970000000  0.4423960000000  0.5280760000000 1.0
C      1  0.4878540000000  0.5203560000000  0.5750350000000 1.0
C      1  0.4921530000000  0.4889180000000  0.5907120000000 1.0
C      1  0.4066860000000  0.5193750000000  0.5183380000000 1.0
C      1  0.5060720000000  0.4109710000000  0.4951820000000 1.0
C      1  0.5261480000000  0.4939300000000  0.4172640000000 1.0
C      1  0.4358470000000  0.4553770000000  0.4813820000000 1.0
C      1  0.5029210000000  0.4581070000000  0.5795550000000 1.0
C      1  0.4285630000000  0.5649800000000  0.5381140000000 1.0
C      1  0.5278120000000  0.5738590000000  0.4270000000000 1.0
C      1  0.4997630000000  0.4180770000000  0.4652490000000 1.0
C      1  0.4422770000000  0.4834320000000  0.5393660000000 1.0
C      1  0.4422750000000  0.5146510000000  0.4208570000000 1.0
C      1  0.5756320000000  0.4971250000000  0.4761460000000 1.0
C      1  0.4879990000000  0.4522410000000  0.4289520000000 1.0
C      1  0.4326080000000  0.5090670000000  0.4667330000000 1.0
C      1  0.5037360000000  0.5982120000000  0.5415010000000 1.0
C      1  0.5384490000000  0.5301560000000  0.4566850000000 1.0
C      1  0.5481330000000  0.5645050000000  0.5530990000000 1.0
C      1  0.5587760000000  0.5710090000000  0.4688380000000 1.0
C      1  0.4880170000000  0.4180530000000  0.5174530000000 1.0
C      1  0.4480370000000  0.4264780000000  0.4447120000000 1.0
C      1  0.5145850000000  0.5361400000000  0.5405110000000 1.0
C      1  0.4379120000000  0.4036030000000  0.4335670000000 1.0
C      1  0.5007540000000  0.4859140000000  0.5464510000000 1.0
C      1  0.5674680000000  0.5479840000000  0.5354670000000 1.0
C      1  0.4971890000000  0.5074320000000  0.5028080000000 1.0
C      1  0.4506710000000  0.5802350000000  0.5440140000000 1.0
C      1  0.5255230000000  0.4959750000000  0.5545720000000 1.0
C      1  0.5516170000000  0.5743050000000  0.4410410000000 1.0
C      1  0.5696460000000  0.4661840000000  0.5457490000000 1.0
C      1  0.4637350000000  0.4310470000000  0.5109610000000 1.0
C      1  0.4572300000000  0.5508630000000  0.4510370000000 1.0
C      1  0.5139050000000  0.5917170000000  0.4787280000000 1.0
C      1  0.4782490000000  0.5154850000000  0.4831060000000 1.0
C      1  0.5172670000000  0.4502100000000  0.4334690000000 1.0
C      1  0.4859300000000  0.5259170000000  0.4108720000000 1.0
C      1  0.4142980000000  0.5435710000000  0.5285910000000 1.0
C      1  0.5141260000000  0.5288590000000  0.4439220000000 1.0
C      1  0.4142320000000  0.4669410000000  0.4428570000000 1.0
C      1  0.5090400000000  0.5392830000000  0.5692660000000 1.0
C      1  0.4519920000000  0.5041170000000  0.4886330000000 1.0
END
