TITL C-3866674-3872-127 -4.49901502784685e-07 125000 -734.276406363827 0 0 120 (C1) n - 1
REM
REM in /home/nfs/bkarasulu/CARBON/AIRSS/Generating-Clusters/LCBOP/Only-C1/SD-CG/HFTN-CG/FIRE-CG
REM
REM
REM
REM
REM
REM ./C.cell (11c1c37f851c82e70ff6c80c92926a4b)
REM AIRSS Version 0.9.1 bugfix July 2018 build 013d7b7c2542+ Fri, 06 Jul 2018 19:26:36 +0100
REM compiler GCC version 9.2.1 20190827 (Red Hat 9.2.1-1)
REM options -cpp -mtune=generic -march=x86-64 -g -O0 -fpre-include=/usr/include/finclude/math-vector-fortran.h
REM seed 210489520 1644216296 892802742 -104436518 1528457223 1118428167 -1667542829 -979444672 1520281535 -1408947341 -406980782 490818845 -1907678548 -1943653264 -323483297 2087345071 283572355 -176112449 454669471 -734843515 -1994503516 1897782844 -1740976464 1506656 -2089863912 1656954245 827054822 1549661768 1430953405 -783452550 1576368770 1139700966 1094119866
REM
CELL 1.54180   50.00000   50.00000   50.00000   90.00000   90.00000   90.00000
LATT -1
SFAC C  
C      1  0.3958880000000  0.4577550000000  0.5573390000000 1.0
C      1  0.4429690000000  0.4974060000000  0.4262210000000 1.0
C      1  0.5190390000000  0.4386800000000  0.4001620000000 1.0
C      1  0.4066230000000  0.4121690000000  0.4993880000000 1.0
C      1  0.4645160000000  0.5808620000000  0.5334620000000 1.0
C      1  0.5502420000000  0.5753910000000  0.4676620000000 1.0
C      1  0.5117330000000  0.3976700000000  0.5074430000000 1.0
C      1  0.5112630000000  0.4132330000000  0.5543840000000 1.0
C      1  0.4676080000000  0.4052320000000  0.5285630000000 1.0
C      1  0.4692320000000  0.5764220000000  0.4480350000000 1.0
C      1  0.5216810000000  0.5756810000000  0.4717870000000 1.0
C      1  0.4522000000000  0.4149790000000  0.5063790000000 1.0
C      1  0.4792980000000  0.4985120000000  0.5294070000000 1.0
C      1  0.4707110000000  0.4373210000000  0.5807020000000 1.0
C      1  0.4163960000000  0.4685810000000  0.5423500000000 1.0
C      1  0.4463460000000  0.5353550000000  0.5609400000000 1.0
C      1  0.4926310000000  0.5890470000000  0.5274760000000 1.0
C      1  0.5851060000000  0.5129800000000  0.4724720000000 1.0
C      1  0.5299610000000  0.4481990000000  0.5332150000000 1.0
C      1  0.5879360000000  0.5660840000000  0.5167610000000 1.0
C      1  0.4456260000000  0.5884360000000  0.5111970000000 1.0
C      1  0.4856220000000  0.4903550000000  0.4573770000000 1.0
C      1  0.4708630000000  0.4662820000000  0.4958130000000 1.0
C      1  0.5373470000000  0.4248390000000  0.5482570000000 1.0
C      1  0.4964610000000  0.4032280000000  0.5307040000000 1.0
C      1  0.4447960000000  0.5324510000000  0.5028030000000 1.0
C      1  0.5612480000000  0.4644300000000  0.4569950000000 1.0
C      1  0.4506010000000  0.4184850000000  0.5739890000000 1.0
C      1  0.5368370000000  0.4924430000000  0.5716760000000 1.0
C      1  0.5422820000000  0.4166020000000  0.4670910000000 1.0
C      1  0.4921950000000  0.5449690000000  0.4943770000000 1.0
C      1  0.5071220000000  0.4650960000000  0.4007790000000 1.0
C      1  0.4950530000000  0.4777980000000  0.5427390000000 1.0
C      1  0.4357720000000  0.5408520000000  0.4526600000000 1.0
C      1  0.6014940000000  0.4954120000000  0.5140170000000 1.0
C      1  0.5443860000000  0.5486550000000  0.4293900000000 1.0
C      1  0.4162110000000  0.4742070000000  0.4646920000000 1.0
C      1  0.4560380000000  0.5571130000000  0.4644320000000 1.0
C      1  0.4597560000000  0.4082750000000  0.4549690000000 1.0
C      1  0.5225360000000  0.5313970000000  0.4288230000000 1.0
C      1  0.5276560000000  0.4802900000000  0.4158730000000 1.0
C      1  0.5739400000000  0.4563510000000  0.5178200000000 1.0
C      1  0.5263400000000  0.5077190000000  0.4152630000000 1.0
C      1  0.4966380000000  0.4266420000000  0.5752070000000 1.0
C      1  0.4286670000000  0.5179530000000  0.5459690000000 1.0
C      1  0.5459070000000  0.4629430000000  0.4315470000000 1.0
C      1  0.4627030000000  0.4931880000000  0.4049050000000 1.0
C      1  0.4769220000000  0.5971480000000  0.4669800000000 1.0
C      1  0.5379190000000  0.4135700000000  0.4393210000000 1.0
C      1  0.4709770000000  0.5183230000000  0.3917760000000 1.0
C      1  0.4837240000000  0.5313400000000  0.5894870000000 1.0
C      1  0.5502190000000  0.5627380000000  0.5927300000000 1.0
C      1  0.5043110000000  0.4563990000000  0.5269670000000 1.0
C      1  0.5393460000000  0.5764520000000  0.5301020000000 1.0
C      1  0.5501930000000  0.4673230000000  0.5308920000000 1.0
C      1  0.4261610000000  0.4293210000000  0.5127120000000 1.0
C      1  0.4633990000000  0.4646000000000  0.5836570000000 1.0
C      1  0.4247690000000  0.4805520000000  0.4398710000000 1.0
C      1  0.4190980000000  0.3966080000000  0.4802290000000 1.0
C      1  0.5542720000000  0.5206470000000  0.5325940000000 1.0
C      1  0.4796920000000  0.5165880000000  0.4498970000000 1.0
C      1  0.6043300000000  0.5396660000000  0.4377460000000 1.0
C      1  0.5659140000000  0.5965600000000  0.4749900000000 1.0
C      1  0.5773510000000  0.4838800000000  0.4722460000000 1.0
C      1  0.5436210000000  0.5121620000000  0.5096060000000 1.0
C      1  0.5027180000000  0.5338830000000  0.4489750000000 1.0
C      1  0.5877180000000  0.4716230000000  0.5577960000000 1.0
C      1  0.5035210000000  0.5974850000000  0.4786530000000 1.0
C      1  0.4517800000000  0.4890820000000  0.5754740000000 1.0
C      1  0.5828060000000  0.5353100000000  0.4544960000000 1.0
C      1  0.5313360000000  0.4966220000000  0.4917770000000 1.0
C      1  0.5084410000000  0.5500930000000  0.4718040000000 1.0
C      1  0.4152780000000  0.4706450000000  0.4913730000000 1.0
C      1  0.5585360000000  0.4798070000000  0.5575680000000 1.0
C      1  0.5855900000000  0.4446870000000  0.5427790000000 1.0
C      1  0.4804790000000  0.4649030000000  0.4519430000000 1.0
C      1  0.4824300000000  0.5587740000000  0.5785220000000 1.0
C      1  0.4979670000000  0.4590790000000  0.4994490000000 1.0
C      1  0.4646090000000  0.5461980000000  0.4891210000000 1.0
C      1  0.4513820000000  0.5193330000000  0.4422670000000 1.0
C      1  0.4203930000000  0.4570980000000  0.5160160000000 1.0
C      1  0.5014940000000  0.6062170000000  0.5061520000000 1.0
C      1  0.5607280000000  0.5537220000000  0.4517930000000 1.0
C      1  0.5634030000000  0.5416610000000  0.5486140000000 1.0
C      1  0.5176290000000  0.4743220000000  0.4859820000000 1.0
C      1  0.4309160000000  0.4901700000000  0.5544820000000 1.0
C      1  0.4066010000000  0.5640990000000  0.4855450000000 1.0
C      1  0.5281010000000  0.4028310000000  0.4869260000000 1.0
C      1  0.5576120000000  0.4398280000000  0.4719710000000 1.0
C      1  0.4728060000000  0.5666470000000  0.4210530000000 1.0
C      1  0.4721320000000  0.4509750000000  0.4290010000000 1.0
C      1  0.5304560000000  0.5062290000000  0.5958370000000 1.0
C      1  0.5381360000000  0.4353930000000  0.4214410000000 1.0
C      1  0.5073350000000  0.5200490000000  0.6004720000000 1.0
C      1  0.6020310000000  0.5458120000000  0.5059150000000 1.0
C      1  0.4255160000000  0.5244940000000  0.5192530000000 1.0
C      1  0.5630460000000  0.5459220000000  0.5762320000000 1.0
C      1  0.5017960000000  0.5768490000000  0.5875690000000 1.0
C      1  0.5867340000000  0.4741080000000  0.4996220000000 1.0
C      1  0.5662940000000  0.4243040000000  0.5527030000000 1.0
C      1  0.5132290000000  0.4927830000000  0.5565940000000 1.0
C      1  0.5274900000000  0.5766580000000  0.5951060000000 1.0
C      1  0.4628830000000  0.4884570000000  0.5091590000000 1.0
C      1  0.4476540000000  0.4024170000000  0.4795370000000 1.0
C      1  0.5649960000000  0.5655890000000  0.5329730000000 1.0
C      1  0.4715970000000  0.5447390000000  0.4043540000000 1.0
C      1  0.4945570000000  0.5209880000000  0.5348770000000 1.0
C      1  0.4608720000000  0.5166150000000  0.5799650000000 1.0
C      1  0.4106610000000  0.5480210000000  0.4637360000000 1.0
C      1  0.4569980000000  0.6021080000000  0.4879240000000 1.0
C      1  0.4784640000000  0.5168360000000  0.3652570000000 1.0
C      1  0.4640760000000  0.4246670000000  0.4340860000000 1.0
C      1  0.5994890000000  0.5190680000000  0.4976710000000 1.0
C      1  0.4525500000000  0.4022570000000  0.5524990000000 1.0
C      1  0.4197810000000  0.5775100000000  0.5052950000000 1.0
C      1  0.4789210000000  0.4682500000000  0.4064230000000 1.0
C      1  0.5122230000000  0.5682650000000  0.5306420000000 1.0
C      1  0.4615360000000  0.5610340000000  0.5568400000000 1.0
C      1  0.6043000000000  0.4902100000000  0.5423050000000 1.0
C      1  0.5022790000000  0.5434300000000  0.5208660000000 1.0
END
