TITL C-3866669-3764-261 0.751854046951 125000 -1103.76652134674 0 0 181 (C1) n - 1
REM
REM in /home/nfs/bkarasulu/CARBON/AIRSS/Generating-Clusters/LCBOP/Only-C1/SD-CG/HFTN-CG/FIRE-CG
REM
REM
REM
REM
REM
REM ./C.cell (11c1c37f851c82e70ff6c80c92926a4b)
REM AIRSS Version 0.9.1 bugfix July 2018 build 013d7b7c2542+ Fri, 06 Jul 2018 19:26:36 +0100
REM compiler GCC version 9.2.1 20190827 (Red Hat 9.2.1-1)
REM options -cpp -mtune=generic -march=x86-64 -g -O0 -fpre-include=/usr/include/finclude/math-vector-fortran.h
REM seed -1633668808 -2025345914 -358392197 932221864 -280055930 1404441130 1277836749 -1330843298 -1173743777 -1356966715 -1275878839 2095543 -1781847626 206009505 -770310219 -427083506 -1043777579 -308054943 626902711 -1201193637 -757121949 -1339779399 -1184083394 635280178 -851391654 833937834 -209030440 -457721948 -1440806663 23953535 298846770 -1351429970 -416788363
REM
CELL 1.54180   50.00000   50.00000   50.00000   90.00000   90.00000   90.00000
LATT -1
SFAC C  
C      1  0.4840340000000  0.5725250000000  0.5941290000000 1.0
C      1  0.5754580000000  0.4781990000000  0.4359530000000 1.0
C      1  0.4717800000000  0.5324880000000  0.3832890000000 1.0
C      1  0.4484710000000  0.4944850000000  0.5225700000000 1.0
C      1  0.3630390000000  0.4846780000000  0.5210140000000 1.0
C      1  0.4908460000000  0.5968220000000  0.5808410000000 1.0
C      1  0.4946590000000  0.4886170000000  0.4742410000000 1.0
C      1  0.5293630000000  0.5424880000000  0.4425290000000 1.0
C      1  0.5447450000000  0.6286660000000  0.4512500000000 1.0
C      1  0.5633290000000  0.4634560000000  0.5941580000000 1.0
C      1  0.5611330000000  0.4644310000000  0.6424670000000 1.0
C      1  0.5904350000000  0.4661170000000  0.3913630000000 1.0
C      1  0.5466530000000  0.4432920000000  0.5835680000000 1.0
C      1  0.4303570000000  0.4373070000000  0.4098080000000 1.0
C      1  0.4496120000000  0.4009630000000  0.4441020000000 1.0
C      1  0.3954890000000  0.5004930000000  0.4866910000000 1.0
C      1  0.4642370000000  0.4778520000000  0.5385910000000 1.0
C      1  0.4905840000000  0.6038560000000  0.4618550000000 1.0
C      1  0.4455620000000  0.5311480000000  0.4466300000000 1.0
C      1  0.5399110000000  0.4471560000000  0.4429630000000 1.0
C      1  0.5987280000000  0.4177950000000  0.5270740000000 1.0
C      1  0.4449880000000  0.5769940000000  0.5177650000000 1.0
C      1  0.4764610000000  0.6086900000000  0.5588530000000 1.0
C      1  0.4257620000000  0.5372070000000  0.5120780000000 1.0
C      1  0.4577650000000  0.4531790000000  0.5990620000000 1.0
C      1  0.4659980000000  0.5740080000000  0.4350870000000 1.0
C      1  0.5594900000000  0.3728210000000  0.4310610000000 1.0
C      1  0.5713820000000  0.4774150000000  0.4075010000000 1.0
C      1  0.4201420000000  0.5793440000000  0.4989820000000 1.0
C      1  0.4688340000000  0.6134200000000  0.4789370000000 1.0
C      1  0.6328940000000  0.4521270000000  0.5387720000000 1.0
C      1  0.4653310000000  0.4252680000000  0.5890130000000 1.0
C      1  0.6329330000000  0.4790710000000  0.5420550000000 1.0
C      1  0.3859520000000  0.4333610000000  0.4939960000000 1.0
C      1  0.3945470000000  0.5459150000000  0.4715320000000 1.0
C      1  0.4547490000000  0.4964370000000  0.4106200000000 1.0
C      1  0.5075810000000  0.4447230000000  0.4968230000000 1.0
C      1  0.4730980000000  0.3910460000000  0.4575380000000 1.0
C      1  0.5244020000000  0.4349930000000  0.4248410000000 1.0
C      1  0.5416170000000  0.5265330000000  0.6039950000000 1.0
C      1  0.6073150000000  0.5467320000000  0.4736990000000 1.0
C      1  0.5286260000000  0.6537480000000  0.5279680000000 1.0
C      1  0.5750290000000  0.5504210000000  0.4314650000000 1.0
C      1  0.5566100000000  0.3909030000000  0.5087310000000 1.0
C      1  0.5816710000000  0.6292760000000  0.4770950000000 1.0
C      1  0.5762160000000  0.4529250000000  0.5041570000000 1.0
C      1  0.5138530000000  0.4097190000000  0.5674420000000 1.0
C      1  0.4096960000000  0.4982450000000  0.5573650000000 1.0
C      1  0.5143660000000  0.5753460000000  0.5351290000000 1.0
C      1  0.4816620000000  0.5973750000000  0.4346260000000 1.0
C      1  0.3776410000000  0.4577330000000  0.4817430000000 1.0
C      1  0.5218290000000  0.5701390000000  0.4417910000000 1.0
C      1  0.5105810000000  0.4852870000000  0.5449010000000 1.0
C      1  0.4355640000000  0.4612740000000  0.5812080000000 1.0
C      1  0.4058350000000  0.5528390000000  0.4984100000000 1.0
C      1  0.6219600000000  0.5296900000000  0.4591810000000 1.0
C      1  0.5319720000000  0.5447700000000  0.4912390000000 1.0
C      1  0.5643840000000  0.6090730000000  0.4894510000000 1.0
C      1  0.4483680000000  0.5303190000000  0.4929080000000 1.0
C      1  0.5167860000000  0.6067360000000  0.5872960000000 1.0
C      1  0.5204870000000  0.5439630000000  0.6089240000000 1.0
C      1  0.4714150000000  0.6211560000000  0.5065980000000 1.0
C      1  0.4116500000000  0.5567140000000  0.4276780000000 1.0
C      1  0.4385200000000  0.5086170000000  0.5930810000000 1.0
C      1  0.4060280000000  0.4872850000000  0.4202990000000 1.0
C      1  0.5706080000000  0.5997040000000  0.5150430000000 1.0
C      1  0.4648290000000  0.5104890000000  0.5058220000000 1.0
C      1  0.4767530000000  0.5132350000000  0.4023590000000 1.0
C      1  0.4615670000000  0.5536520000000  0.4536820000000 1.0
C      1  0.3863540000000  0.4934760000000  0.4419670000000 1.0
C      1  0.4551590000000  0.4340780000000  0.5150620000000 1.0
C      1  0.3832200000000  0.5414150000000  0.5644820000000 1.0
C      1  0.5057930000000  0.3899070000000  0.4987230000000 1.0
C      1  0.5382270000000  0.4252730000000  0.5635240000000 1.0
C      1  0.5397060000000  0.4876120000000  0.4705760000000 1.0
C      1  0.5335940000000  0.4970170000000  0.4991840000000 1.0
C      1  0.4749310000000  0.5227630000000  0.5549700000000 1.0
C      1  0.4277610000000  0.3998870000000  0.5532760000000 1.0
C      1  0.5154290000000  0.4974600000000  0.4564320000000 1.0
C      1  0.4537200000000  0.4515440000000  0.5371440000000 1.0
C      1  0.4778620000000  0.4484680000000  0.4588630000000 1.0
C      1  0.3788540000000  0.4811910000000  0.4985340000000 1.0
C      1  0.5239380000000  0.5847680000000  0.4168010000000 1.0
C      1  0.5571910000000  0.5411090000000  0.4513620000000 1.0
C      1  0.4378320000000  0.4439390000000  0.5589600000000 1.0
C      1  0.4630230000000  0.4137000000000  0.4996420000000 1.0
C      1  0.5969430000000  0.4335080000000  0.5027820000000 1.0
C      1  0.5693620000000  0.6406750000000  0.4550890000000 1.0
C      1  0.3461580000000  0.4864360000000  0.5407920000000 1.0
C      1  0.5641830000000  0.6033260000000  0.5666810000000 1.0
C      1  0.5860440000000  0.5443290000000  0.4924110000000 1.0
C      1  0.4997090000000  0.4440390000000  0.5238050000000 1.0
C      1  0.5083660000000  0.3882250000000  0.5498970000000 1.0
C      1  0.4640280000000  0.5539640000000  0.4823430000000 1.0
C      1  0.5142400000000  0.5184660000000  0.4373890000000 1.0
C      1  0.5823030000000  0.4794610000000  0.5099470000000 1.0
C      1  0.5979300000000  0.4944210000000  0.5733130000000 1.0
C      1  0.5998430000000  0.4438160000000  0.5702710000000 1.0
C      1  0.5323200000000  0.4018150000000  0.4953810000000 1.0
C      1  0.5322770000000  0.4309130000000  0.4953530000000 1.0
C      1  0.5404270000000  0.6075030000000  0.4710300000000 1.0
C      1  0.6163120000000  0.5001220000000  0.5513250000000 1.0
C      1  0.5166300000000  0.5212380000000  0.4961220000000 1.0
C      1  0.4901370000000  0.5086510000000  0.4942400000000 1.0
C      1  0.5050300000000  0.4310560000000  0.4068010000000 1.0
C      1  0.5755660000000  0.4989210000000  0.5269600000000 1.0
C      1  0.5295150000000  0.5540010000000  0.5473540000000 1.0
C      1  0.5592800000000  0.5431640000000  0.4804310000000 1.0
C      1  0.5232650000000  0.4980410000000  0.3956530000000 1.0
C      1  0.4707540000000  0.5714060000000  0.5042590000000 1.0
C      1  0.5722610000000  0.4046060000000  0.5301790000000 1.0
C      1  0.5477790000000  0.4875830000000  0.3962030000000 1.0
C      1  0.5734350000000  0.5999790000000  0.5417010000000 1.0
C      1  0.4320260000000  0.4566410000000  0.4591220000000 1.0
C      1  0.5375740000000  0.3579310000000  0.4221740000000 1.0
C      1  0.5222520000000  0.6023190000000  0.5376230000000 1.0
C      1  0.4983070000000  0.5717200000000  0.5115690000000 1.0
C      1  0.4905210000000  0.3748100000000  0.4427240000000 1.0
C      1  0.5446000000000  0.5021080000000  0.6175490000000 1.0
C      1  0.5526820000000  0.5100320000000  0.5390530000000 1.0
C      1  0.5413010000000  0.3368370000000  0.4042550000000 1.0
C      1  0.4213250000000  0.5882910000000  0.4710380000000 1.0
C      1  0.4938230000000  0.4604350000000  0.4779660000000 1.0
C      1  0.4063340000000  0.5674960000000  0.4539310000000 1.0
C      1  0.5448110000000  0.3171590000000  0.3875320000000 1.0
C      1  0.6127610000000  0.4335510000000  0.5472940000000 1.0
C      1  0.5586020000000  0.5298340000000  0.5815140000000 1.0
C      1  0.4391410000000  0.5151260000000  0.4690030000000 1.0
C      1  0.3757920000000  0.4681140000000  0.4544590000000 1.0
C      1  0.5704390000000  0.5676200000000  0.4110560000000 1.0
C      1  0.5252620000000  0.6282850000000  0.5324630000000 1.0
C      1  0.4054450000000  0.5260720000000  0.5656640000000 1.0
C      1  0.5038700000000  0.5107740000000  0.4117000000000 1.0
C      1  0.4716920000000  0.6183480000000  0.5337700000000 1.0
C      1  0.4104490000000  0.4589870000000  0.4122370000000 1.0
C      1  0.5085400000000  0.4573340000000  0.5452320000000 1.0
C      1  0.5433460000000  0.6067050000000  0.5832920000000 1.0
C      1  0.5882470000000  0.4677730000000  0.5803790000000 1.0
C      1  0.4103410000000  0.4040200000000  0.5325020000000 1.0
C      1  0.4766940000000  0.5268320000000  0.6146350000000 1.0
C      1  0.5515930000000  0.4416530000000  0.5137990000000 1.0
C      1  0.3869550000000  0.5169070000000  0.4633010000000 1.0
C      1  0.4393980000000  0.5524810000000  0.5335370000000 1.0
C      1  0.4806240000000  0.4347280000000  0.3962090000000 1.0
C      1  0.4809780000000  0.3974740000000  0.4846860000000 1.0
C      1  0.5486750000000  0.5819960000000  0.4037960000000 1.0
C      1  0.4420900000000  0.6078460000000  0.4682440000000 1.0
C      1  0.5530940000000  0.4256340000000  0.5389240000000 1.0
C      1  0.6004720000000  0.4862430000000  0.4452930000000 1.0
C      1  0.4928500000000  0.5486440000000  0.6068300000000 1.0
C      1  0.5472580000000  0.5327680000000  0.5553570000000 1.0
C      1  0.4511220000000  0.5395000000000  0.5562820000000 1.0
C      1  0.4243910000000  0.4866480000000  0.5800590000000 1.0
C      1  0.4224340000000  0.4950480000000  0.4792860000000 1.0
C      1  0.5838770000000  0.5170720000000  0.5830760000000 1.0
C      1  0.4442760000000  0.4172810000000  0.5688270000000 1.0
C      1  0.5316060000000  0.4945360000000  0.5283190000000 1.0
C      1  0.4923910000000  0.4174440000000  0.5846890000000 1.0
C      1  0.5174250000000  0.5882910000000  0.4673320000000 1.0
C      1  0.4684960000000  0.4760540000000  0.6124040000000 1.0
C      1  0.4271250000000  0.5064290000000  0.4136230000000 1.0
C      1  0.5119250000000  0.3642320000000  0.4312680000000 1.0
C      1  0.5163120000000  0.5683960000000  0.4897280000000 1.0
C      1  0.6188800000000  0.5048380000000  0.4499900000000 1.0
C      1  0.5563140000000  0.4765930000000  0.6184300000000 1.0
C      1  0.4268170000000  0.5326860000000  0.4251870000000 1.0
C      1  0.6114830000000  0.5239690000000  0.5357760000000 1.0
C      1  0.4614910000000  0.5038710000000  0.6090120000000 1.0
C      1  0.5540500000000  0.4698160000000  0.4529880000000 1.0
C      1  0.4214370000000  0.4947580000000  0.5317410000000 1.0
C      1  0.4566070000000  0.4478870000000  0.4021400000000 1.0
C      1  0.4846630000000  0.4961180000000  0.5495530000000 1.0
C      1  0.5024770000000  0.3797670000000  0.5251320000000 1.0
C      1  0.4332240000000  0.4141580000000  0.4267540000000 1.0
C      1  0.5788520000000  0.3877930000000  0.4400220000000 1.0
C      1  0.4560240000000  0.4608220000000  0.4468380000000 1.0
C      1  0.4592300000000  0.4702740000000  0.4201360000000 1.0
C      1  0.4321440000000  0.5322510000000  0.5767550000000 1.0
C      1  0.5006900000000  0.6004090000000  0.4136520000000 1.0
C      1  0.3970430000000  0.4169280000000  0.5125890000000 1.0
C      1  0.5961680000000  0.5385810000000  0.5186000000000 1.0
END
