TITL C-3866670-4165-163 -6.95304376201713e-07 125000 -742.622746686876 0 0 121 (C1) n - 1
REM
REM in /home/nfs/bkarasulu/CARBON/AIRSS/Generating-Clusters/LCBOP/Only-C1/SD-CG/HFTN-CG/FIRE-CG
REM
REM
REM
REM
REM
REM ./C.cell (11c1c37f851c82e70ff6c80c92926a4b)
REM AIRSS Version 0.9.1 bugfix July 2018 build 013d7b7c2542+ Fri, 06 Jul 2018 19:26:36 +0100
REM compiler GCC version 9.2.1 20190827 (Red Hat 9.2.1-1)
REM options -cpp -mtune=generic -march=x86-64 -g -O0 -fpre-include=/usr/include/finclude/math-vector-fortran.h
REM seed 1041874595 2085313842 834213698 -1769993463 362398729 -24181446 -690952045 -51790822 -679037838 2117382279 1235992688 1414498816 -1344579197 -1574864137 949559627 1685067442 205149931 -1849570086 387969960 -584640720 -1160047836 1733138032 -1086998339 -88460129 405152642 173623278 1611127674 886489831 305950461 1215035100 -1953272448 1107773023 1095896184
REM
CELL 1.54180   50.00000   50.00000   50.00000   90.00000   90.00000   90.00000
LATT -1
SFAC C  
C      1  0.5019810000000  0.5415880000000  0.4998010000000 1.0
C      1  0.4293420000000  0.5656680000000  0.4388180000000 1.0
C      1  0.5417060000000  0.4868520000000  0.4300430000000 1.0
C      1  0.4101210000000  0.5063170000000  0.4572840000000 1.0
C      1  0.4827620000000  0.4051880000000  0.4682680000000 1.0
C      1  0.5167450000000  0.5548700000000  0.4510190000000 1.0
C      1  0.5380010000000  0.5126170000000  0.5223880000000 1.0
C      1  0.4763920000000  0.4495060000000  0.5257530000000 1.0
C      1  0.5109210000000  0.4943780000000  0.4625890000000 1.0
C      1  0.4233160000000  0.5472800000000  0.5390890000000 1.0
C      1  0.4702360000000  0.4970110000000  0.5382840000000 1.0
C      1  0.5647940000000  0.4203880000000  0.5061870000000 1.0
C      1  0.4716120000000  0.5402860000000  0.4288690000000 1.0
C      1  0.4924620000000  0.4511620000000  0.4748900000000 1.0
C      1  0.4486070000000  0.5905800000000  0.5534070000000 1.0
C      1  0.4983470000000  0.5615230000000  0.5535750000000 1.0
C      1  0.4263550000000  0.5206370000000  0.5266150000000 1.0
C      1  0.6068640000000  0.5052160000000  0.4900290000000 1.0
C      1  0.4474420000000  0.5626800000000  0.5462940000000 1.0
C      1  0.4410570000000  0.4888950000000  0.5255470000000 1.0
C      1  0.4511440000000  0.4372650000000  0.4497190000000 1.0
C      1  0.4696350000000  0.6076040000000  0.5493000000000 1.0
C      1  0.4816860000000  0.4472050000000  0.5533150000000 1.0
C      1  0.4236470000000  0.5264970000000  0.4984850000000 1.0
C      1  0.4736950000000  0.4991290000000  0.4900870000000 1.0
C      1  0.4996920000000  0.6126130000000  0.5089070000000 1.0
C      1  0.5547970000000  0.5357860000000  0.5274930000000 1.0
C      1  0.5382420000000  0.5009010000000  0.4565330000000 1.0
C      1  0.5909490000000  0.4695860000000  0.5418190000000 1.0
C      1  0.5311060000000  0.4650400000000  0.5375410000000 1.0
C      1  0.4558000000000  0.4979800000000  0.5850100000000 1.0
C      1  0.4875240000000  0.5017150000000  0.5156420000000 1.0
C      1  0.4474600000000  0.4906630000000  0.4916610000000 1.0
C      1  0.5521440000000  0.3755300000000  0.5631750000000 1.0
C      1  0.5466570000000  0.5115160000000  0.5934210000000 1.0
C      1  0.5671530000000  0.4500640000000  0.4733090000000 1.0
C      1  0.4428560000000  0.5728200000000  0.4899220000000 1.0
C      1  0.5058010000000  0.5429390000000  0.4723320000000 1.0
C      1  0.4864420000000  0.5122210000000  0.3652200000000 1.0
C      1  0.5491750000000  0.4287800000000  0.4634630000000 1.0
C      1  0.4811360000000  0.6021920000000  0.4893570000000 1.0
C      1  0.4546320000000  0.4953230000000  0.4294130000000 1.0
C      1  0.4481800000000  0.4765950000000  0.5993430000000 1.0
C      1  0.5224830000000  0.4195730000000  0.5262420000000 1.0
C      1  0.5012100000000  0.5237970000000  0.3861580000000 1.0
C      1  0.5354940000000  0.5755050000000  0.4557160000000 1.0
C      1  0.5722440000000  0.5036750000000  0.5930570000000 1.0
C      1  0.5626470000000  0.5305300000000  0.4208280000000 1.0
C      1  0.4952090000000  0.6066100000000  0.5367860000000 1.0
C      1  0.4063170000000  0.4507090000000  0.5132650000000 1.0
C      1  0.5047470000000  0.5428440000000  0.5727770000000 1.0
C      1  0.5725840000000  0.4485150000000  0.5014950000000 1.0
C      1  0.5820700000000  0.5070390000000  0.4807680000000 1.0
C      1  0.4583470000000  0.5649470000000  0.4366240000000 1.0
C      1  0.5360560000000  0.4197410000000  0.5515130000000 1.0
C      1  0.4757690000000  0.5038060000000  0.5658240000000 1.0
C      1  0.4040630000000  0.5554040000000  0.4499850000000 1.0
C      1  0.5178000000000  0.4041500000000  0.5022650000000 1.0
C      1  0.3861290000000  0.5667120000000  0.5040790000000 1.0
C      1  0.4755160000000  0.4318070000000  0.4620590000000 1.0
C      1  0.5201610000000  0.5018900000000  0.5914650000000 1.0
C      1  0.4457970000000  0.4842020000000  0.4068610000000 1.0
C      1  0.6003090000000  0.4674450000000  0.6140360000000 1.0
C      1  0.5942480000000  0.4362610000000  0.5799990000000 1.0
C      1  0.3994510000000  0.5276780000000  0.4442090000000 1.0
C      1  0.4746550000000  0.5554830000000  0.5381900000000 1.0
C      1  0.4888400000000  0.4005940000000  0.4959450000000 1.0
C      1  0.4260460000000  0.5045450000000  0.4803550000000 1.0
C      1  0.5193740000000  0.4477650000000  0.5179100000000 1.0
C      1  0.5800750000000  0.4144350000000  0.5701860000000 1.0
C      1  0.3990330000000  0.5613800000000  0.5286130000000 1.0
C      1  0.5171900000000  0.4751030000000  0.5990030000000 1.0
C      1  0.4758220000000  0.5869790000000  0.4436900000000 1.0
C      1  0.4953280000000  0.4527750000000  0.5041250000000 1.0
C      1  0.5671360000000  0.5647660000000  0.4896550000000 1.0
C      1  0.5001350000000  0.5154500000000  0.5765970000000 1.0
C      1  0.5428830000000  0.4109710000000  0.4867920000000 1.0
C      1  0.4719340000000  0.4407430000000  0.5773680000000 1.0
C      1  0.5387710000000  0.4166170000000  0.4170450000000 1.0
C      1  0.5255990000000  0.6009170000000  0.4987660000000 1.0
C      1  0.4811880000000  0.5573390000000  0.5106940000000 1.0
C      1  0.5559930000000  0.4025070000000  0.5616150000000 1.0
C      1  0.3974640000000  0.4439650000000  0.4889410000000 1.0
C      1  0.5086540000000  0.4662070000000  0.4572200000000 1.0
C      1  0.4872980000000  0.5393660000000  0.4052260000000 1.0
C      1  0.4238270000000  0.4351020000000  0.4435020000000 1.0
C      1  0.5905870000000  0.4827820000000  0.5914080000000 1.0
C      1  0.4639000000000  0.4092020000000  0.5110700000000 1.0
C      1  0.5108030000000  0.5181170000000  0.5143710000000 1.0
C      1  0.5466270000000  0.5083120000000  0.4109510000000 1.0
C      1  0.5281860000000  0.4607180000000  0.4358870000000 1.0
C      1  0.4563140000000  0.4510960000000  0.5965590000000 1.0
C      1  0.4157840000000  0.4291340000000  0.4180620000000 1.0
C      1  0.4314930000000  0.4557130000000  0.5242080000000 1.0
C      1  0.5609000000000  0.5155530000000  0.4649040000000 1.0
C      1  0.5332440000000  0.5816260000000  0.5203020000000 1.0
C      1  0.5387750000000  0.4343680000000  0.4376410000000 1.0
C      1  0.5655910000000  0.5386160000000  0.4481710000000 1.0
C      1  0.5753750000000  0.5336920000000  0.5456030000000 1.0
C      1  0.5270960000000  0.5144800000000  0.3917530000000 1.0
C      1  0.6314790000000  0.5048310000000  0.4986020000000 1.0
C      1  0.4683680000000  0.5783680000000  0.4970700000000 1.0
C      1  0.5923870000000  0.4636340000000  0.5690010000000 1.0
C      1  0.4930360000000  0.5997230000000  0.4628010000000 1.0
C      1  0.4655410000000  0.4956220000000  0.3628430000000 1.0
C      1  0.5347480000000  0.4474000000000  0.5607440000000 1.0
C      1  0.4524840000000  0.4356550000000  0.5189980000000 1.0
C      1  0.4049140000000  0.4386140000000  0.4639340000000 1.0
C      1  0.5608640000000  0.5636750000000  0.4618790000000 1.0
C      1  0.5224000000000  0.5968410000000  0.4695570000000 1.0
C      1  0.4698450000000  0.5150050000000  0.4428350000000 1.0
C      1  0.5727710000000  0.4704510000000  0.5202680000000 1.0
C      1  0.4855900000000  0.5062350000000  0.4653680000000 1.0
C      1  0.5277690000000  0.4538250000000  0.5868390000000 1.0
C      1  0.4489870000000  0.4838380000000  0.3803200000000 1.0
C      1  0.4246700000000  0.5525480000000  0.4888720000000 1.0
C      1  0.5521660000000  0.5610200000000  0.5137490000000 1.0
C      1  0.5131710000000  0.5834550000000  0.5423300000000 1.0
C      1  0.3993910000000  0.5614870000000  0.4785470000000 1.0
C      1  0.5479350000000  0.4852860000000  0.5264110000000 1.0
C      1  0.6022980000000  0.4406280000000  0.6074780000000 1.0
END
