TITL C-3866675-3766-47 -1358.25978217839 125000 -1172.27648908847 0 0 191 (C1) n - 1
REM
REM in /home/nfs/bkarasulu/CARBON/AIRSS/Generating-Clusters/LCBOP/Only-C1/SD-CG/HFTN-CG/FIRE-CG
REM
REM
REM
REM
REM
REM ./C.cell (11c1c37f851c82e70ff6c80c92926a4b)
REM AIRSS Version 0.9.1 bugfix July 2018 build 013d7b7c2542+ Fri, 06 Jul 2018 19:26:36 +0100
REM compiler GCC version 9.2.1 20190827 (Red Hat 9.2.1-1)
REM options -cpp -mtune=generic -march=x86-64 -g -O0 -fpre-include=/usr/include/finclude/math-vector-fortran.h
REM seed 930764534 1383420128 1898970423 1690717159 -1853526766 -2033993974 28807833 -1382156042 -187922485 890604030 951528819 -255356002 63857853 950013532 -1801239568 -433421006 1254621412 522191155 -2076148137 -122406156 -1943763034 426190404 1077856568 823842144 1893652428 -135866835 -1012403302 -634535820 1294329942 2060394569 -1982205230 1311218340 369843169
REM
CELL 1.54180   50.00000   50.00000   50.00000   90.00000   90.00000   90.00000
LATT -1
SFAC C  
C      1  0.5796070000000  0.4546700000000  0.5682980000000 1.0
C      1  0.3778070000000  0.4753570000000  0.5141850000000 1.0
C      1  0.5816210000000  0.5535280000000  0.4457690000000 1.0
C      1  0.4869360000000  0.5497250000000  0.5611470000000 1.0
C      1  0.5492520000000  0.4683270000000  0.4305210000000 1.0
C      1  0.5154570000000  0.5558320000000  0.5636650000000 1.0
C      1  0.5279240000000  0.4993300000000  0.6030800000000 1.0
C      1  0.4612440000000  0.4970480000000  0.5147920000000 1.0
C      1  0.5394650000000  0.5108210000000  0.5796820000000 1.0
C      1  0.4770500000000  0.4409170000000  0.5041450000000 1.0
C      1  0.5474760000000  0.4778230000000  0.6083970000000 1.0
C      1  0.5750590000000  0.5889750000000  0.5537430000000 1.0
C      1  0.5006090000000  0.4864290000000  0.4054270000000 1.0
C      1  0.4963700000000  0.5646370000000  0.5146460000000 1.0
C      1  0.4451930000000  0.4761710000000  0.5053240000000 1.0
C      1  0.4420910000000  0.5952020000000  0.5505370000000 1.0
C      1  0.4275510000000  0.4831780000000  0.5678060000000 1.0
C      1  0.6181820000000  0.5191470000000  0.4538710000000 1.0
C      1  0.4837930000000  0.4758660000000  0.5664880000000 1.0
C      1  0.5314470000000  0.6007380000000  0.5479480000000 1.0
C      1  0.5690350000000  0.4975990000000  0.5223910000000 1.0
C      1  0.5095570000000  0.3794870000000  0.5446340000000 1.0
C      1  0.5603880000000  0.4433080000000  0.4958290000000 1.0
C      1  0.4817510000000  0.3796280000000  0.5026650000000 1.0
C      1  0.5171740000000  0.4357750000000  0.4738290000000 1.0
C      1  0.5965570000000  0.5607810000000  0.4689080000000 1.0
C      1  0.5367730000000  0.6112770000000  0.4868300000000 1.0
C      1  0.3796360000000  0.5030530000000  0.5105320000000 1.0
C      1  0.6010820000000  0.4695470000000  0.4035320000000 1.0
C      1  0.5661130000000  0.4635060000000  0.5933820000000 1.0
C      1  0.5788580000000  0.4912340000000  0.4981160000000 1.0
C      1  0.5026520000000  0.4663340000000  0.3878300000000 1.0
C      1  0.5167850000000  0.4337640000000  0.6250930000000 1.0
C      1  0.4650210000000  0.5740640000000  0.4070120000000 1.0
C      1  0.3940720000000  0.4688450000000  0.4202020000000 1.0
C      1  0.5225250000000  0.5547510000000  0.5049400000000 1.0
C      1  0.4239770000000  0.4708130000000  0.6158940000000 1.0
C      1  0.4454730000000  0.4971770000000  0.4612010000000 1.0
C      1  0.6046600000000  0.4077390000000  0.5077540000000 1.0
C      1  0.4804900000000  0.5670250000000  0.5392640000000 1.0
C      1  0.5199440000000  0.4884420000000  0.5398610000000 1.0
C      1  0.4081550000000  0.5408150000000  0.4924280000000 1.0
C      1  0.5118280000000  0.6204480000000  0.5454420000000 1.0
C      1  0.5679100000000  0.4307590000000  0.5547760000000 1.0
C      1  0.5174860000000  0.4458220000000  0.5730810000000 1.0
C      1  0.3989550000000  0.4389820000000  0.5358770000000 1.0
C      1  0.4334110000000  0.3972060000000  0.5101570000000 1.0
C      1  0.5057700000000  0.4236820000000  0.5605740000000 1.0
C      1  0.4192930000000  0.5365970000000  0.4433120000000 1.0
C      1  0.5125110000000  0.4887600000000  0.5120660000000 1.0
C      1  0.4917810000000  0.4458620000000  0.4789040000000 1.0
C      1  0.4195750000000  0.4357630000000  0.5549020000000 1.0
C      1  0.5066590000000  0.6072300000000  0.4335120000000 1.0
C      1  0.5438600000000  0.5268540000000  0.4727730000000 1.0
C      1  0.5477190000000  0.5220740000000  0.4268200000000 1.0
C      1  0.4275410000000  0.5751840000000  0.5637720000000 1.0
C      1  0.4997340000000  0.5426070000000  0.3472150000000 1.0
C      1  0.4872090000000  0.5003040000000  0.5036930000000 1.0
C      1  0.5860110000000  0.4134530000000  0.4547000000000 1.0
C      1  0.4657630000000  0.3959850000000  0.4560870000000 1.0
C      1  0.5022910000000  0.4170190000000  0.4301430000000 1.0
C      1  0.4933300000000  0.6202890000000  0.4545300000000 1.0
C      1  0.4507470000000  0.4509580000000  0.4966530000000 1.0
C      1  0.4259820000000  0.5068370000000  0.5504960000000 1.0
C      1  0.4288970000000  0.5810770000000  0.5027640000000 1.0
C      1  0.5220830000000  0.4309410000000  0.4134440000000 1.0
C      1  0.6263670000000  0.4997610000000  0.5146690000000 1.0
C      1  0.5115510000000  0.5427290000000  0.3984260000000 1.0
C      1  0.5936230000000  0.5378560000000  0.5479450000000 1.0
C      1  0.5116150000000  0.5565840000000  0.4487480000000 1.0
C      1  0.4529980000000  0.4486450000000  0.4136780000000 1.0
C      1  0.5953650000000  0.4772420000000  0.5545810000000 1.0
C      1  0.6161800000000  0.5213380000000  0.5521650000000 1.0
C      1  0.4429290000000  0.6019220000000  0.4563660000000 1.0
C      1  0.4629230000000  0.5921910000000  0.3878030000000 1.0
C      1  0.3991100000000  0.4530240000000  0.4433610000000 1.0
C      1  0.5684860000000  0.5303930000000  0.4066690000000 1.0
C      1  0.3940920000000  0.5157230000000  0.4899400000000 1.0
C      1  0.4431610000000  0.5359190000000  0.4268370000000 1.0
C      1  0.5275570000000  0.5119300000000  0.5534210000000 1.0
C      1  0.4636940000000  0.5553030000000  0.4277140000000 1.0
C      1  0.4619310000000  0.6102190000000  0.3690020000000 1.0
C      1  0.4726270000000  0.5269340000000  0.5728140000000 1.0
C      1  0.5876810000000  0.4592990000000  0.3828670000000 1.0
C      1  0.4427830000000  0.4243700000000  0.4218490000000 1.0
C      1  0.4658600000000  0.4539500000000  0.5607110000000 1.0
C      1  0.5312930000000  0.5897580000000  0.5956810000000 1.0
C      1  0.5907680000000  0.4861460000000  0.4745500000000 1.0
C      1  0.4269730000000  0.4891120000000  0.5960090000000 1.0
C      1  0.4620580000000  0.3969230000000  0.5157210000000 1.0
C      1  0.4355230000000  0.5729970000000  0.5917380000000 1.0
C      1  0.5666530000000  0.5147770000000  0.5736000000000 1.0
C      1  0.4991360000000  0.5070940000000  0.6055320000000 1.0
C      1  0.5909390000000  0.5660410000000  0.5127040000000 1.0
C      1  0.4736400000000  0.5552180000000  0.6275620000000 1.0
C      1  0.5470590000000  0.4402970000000  0.4263930000000 1.0
C      1  0.4807280000000  0.5578140000000  0.4508710000000 1.0
C      1  0.5449560000000  0.5474130000000  0.5237390000000 1.0
C      1  0.5136990000000  0.5826500000000  0.6423890000000 1.0
C      1  0.3957510000000  0.4990100000000  0.4659850000000 1.0
C      1  0.4154320000000  0.5553220000000  0.5454330000000 1.0
C      1  0.5754980000000  0.5472180000000  0.5265730000000 1.0
C      1  0.3805560000000  0.4610870000000  0.5387170000000 1.0
C      1  0.5505990000000  0.4095070000000  0.5432340000000 1.0
C      1  0.4542810000000  0.4909940000000  0.4358630000000 1.0
C      1  0.4926770000000  0.5060840000000  0.4517020000000 1.0
C      1  0.4651290000000  0.4652300000000  0.4331540000000 1.0
C      1  0.5563140000000  0.3949790000000  0.5181710000000 1.0
C      1  0.4633900000000  0.6231400000000  0.4581230000000 1.0
C      1  0.4686150000000  0.5680870000000  0.4749310000000 1.0
C      1  0.4697660000000  0.6292670000000  0.5036480000000 1.0
C      1  0.5665200000000  0.4491310000000  0.3701350000000 1.0
C      1  0.5687950000000  0.4244490000000  0.4352070000000 1.0
C      1  0.4559590000000  0.5275160000000  0.5968080000000 1.0
C      1  0.4874720000000  0.5103260000000  0.4774440000000 1.0
C      1  0.6153630000000  0.5378950000000  0.4758630000000 1.0
C      1  0.5233010000000  0.4030490000000  0.5532290000000 1.0
C      1  0.5303160000000  0.5387650000000  0.5467210000000 1.0
C      1  0.4086090000000  0.5311990000000  0.5869460000000 1.0
C      1  0.5260610000000  0.5817120000000  0.5693910000000 1.0
C      1  0.6241000000000  0.5229760000000  0.4994790000000 1.0
C      1  0.5069210000000  0.3754150000000  0.5163050000000 1.0
C      1  0.5373820000000  0.4940690000000  0.4384010000000 1.0
C      1  0.5245800000000  0.5471860000000  0.4771960000000 1.0
C      1  0.5836350000000  0.5786560000000  0.4890040000000 1.0
C      1  0.5759780000000  0.5697470000000  0.5736100000000 1.0
C      1  0.5200300000000  0.4425800000000  0.6007370000000 1.0
C      1  0.4855240000000  0.5013040000000  0.5784210000000 1.0
C      1  0.4856450000000  0.6156950000000  0.5485870000000 1.0
C      1  0.5406970000000  0.4419650000000  0.3703340000000 1.0
C      1  0.6181310000000  0.4938460000000  0.5421890000000 1.0
C      1  0.5221190000000  0.5392860000000  0.4242110000000 1.0
C      1  0.4457310000000  0.4127320000000  0.4666000000000 1.0
C      1  0.6194970000000  0.4210730000000  0.4891570000000 1.0
C      1  0.4296790000000  0.5172410000000  0.6002150000000 1.0
C      1  0.4477700000000  0.5121050000000  0.5335040000000 1.0
C      1  0.4214920000000  0.4121310000000  0.5696580000000 1.0
C      1  0.5185250000000  0.4430850000000  0.3877670000000 1.0
C      1  0.5793260000000  0.3965960000000  0.5013320000000 1.0
C      1  0.5535590000000  0.3786250000000  0.4628990000000 1.0
C      1  0.5296670000000  0.4801040000000  0.4899130000000 1.0
C      1  0.5292230000000  0.3886290000000  0.4583840000000 1.0
C      1  0.4375220000000  0.4574560000000  0.5603150000000 1.0
C      1  0.4468360000000  0.5097680000000  0.4155940000000 1.0
C      1  0.4151270000000  0.5583830000000  0.5160170000000 1.0
C      1  0.5164650000000  0.4133580000000  0.4557890000000 1.0
C      1  0.4117900000000  0.4105950000000  0.4949090000000 1.0
C      1  0.5582900000000  0.5990930000000  0.5021640000000 1.0
C      1  0.4016010000000  0.4960640000000  0.4170290000000 1.0
C      1  0.5093380000000  0.6173040000000  0.4798010000000 1.0
C      1  0.6056070000000  0.4938370000000  0.4516710000000 1.0
C      1  0.5337660000000  0.3802120000000  0.5073680000000 1.0
C      1  0.4241820000000  0.5014290000000  0.4005180000000 1.0
C      1  0.5060070000000  0.5429560000000  0.3725130000000 1.0
C      1  0.4889130000000  0.6087240000000  0.4982760000000 1.0
C      1  0.5107070000000  0.4690630000000  0.5582730000000 1.0
C      1  0.5196020000000  0.5841110000000  0.4383800000000 1.0
C      1  0.4204900000000  0.5518500000000  0.4673540000000 1.0
C      1  0.4794030000000  0.4296990000000  0.5507320000000 1.0
C      1  0.5374630000000  0.4987610000000  0.4695920000000 1.0
C      1  0.6108490000000  0.4240660000000  0.4634710000000 1.0
C      1  0.3992540000000  0.4332340000000  0.5068380000000 1.0
C      1  0.4528090000000  0.5698200000000  0.6128500000000 1.0
C      1  0.4779580000000  0.5282120000000  0.6176200000000 1.0
C      1  0.5737320000000  0.4968990000000  0.5506310000000 1.0
C      1  0.4127510000000  0.4271720000000  0.4416070000000 1.0
C      1  0.5080810000000  0.4950470000000  0.4310570000000 1.0
C      1  0.3947040000000  0.4689700000000  0.4677340000000 1.0
C      1  0.4016270000000  0.5127070000000  0.4412520000000 1.0
C      1  0.5856520000000  0.5498060000000  0.4173170000000 1.0
C      1  0.4727500000000  0.4520860000000  0.4575390000000 1.0
C      1  0.4252410000000  0.3900120000000  0.5829150000000 1.0
C      1  0.4914220000000  0.5681060000000  0.6446940000000 1.0
C      1  0.6063540000000  0.4794810000000  0.4276960000000 1.0
C      1  0.4493740000000  0.4408550000000  0.4702490000000 1.0
C      1  0.4580010000000  0.6395420000000  0.4812290000000 1.0
C      1  0.5609450000000  0.5346270000000  0.4519290000000 1.0
C      1  0.4835190000000  0.5808890000000  0.4954590000000 1.0
C      1  0.4693400000000  0.5931110000000  0.5453440000000 1.0
C      1  0.5751390000000  0.3934860000000  0.4726710000000 1.0
C      1  0.4740530000000  0.4215290000000  0.5243750000000 1.0
C      1  0.4740270000000  0.4074850000000  0.4312010000000 1.0
C      1  0.4108800000000  0.5301870000000  0.5584740000000 1.0
C      1  0.4392630000000  0.5762850000000  0.4738390000000 1.0
C      1  0.4170510000000  0.4111560000000  0.4659350000000 1.0
C      1  0.4779700000000  0.3781630000000  0.4744110000000 1.0
C      1  0.5288860000000  0.5909580000000  0.6221000000000 1.0
C      1  0.3889070000000  0.4574850000000  0.4932600000000 1.0
C      1  0.5563570000000  0.5984710000000  0.5331170000000 1.0
C      1  0.5784520000000  0.5411360000000  0.5723860000000 1.0
C      1  0.5368170000000  0.4523930000000  0.4859750000000 1.0
END
