TITL C-3866676-3738-653 1.88226544833012e-07 125000 -408.161645389915 0 0 67 (C1) n - 1
REM
REM in /home/nfs/bkarasulu/CARBON/AIRSS/Generating-Clusters/LCBOP/Only-C1/SD-CG/FIRE-CG
REM
REM
REM
REM
REM
REM ./C.cell (11c1c37f851c82e70ff6c80c92926a4b)
REM AIRSS Version 0.9.1 bugfix July 2018 build 013d7b7c2542+ Fri, 06 Jul 2018 19:26:36 +0100
REM compiler GCC version 9.2.1 20190827 (Red Hat 9.2.1-1)
REM options -cpp -mtune=generic -march=x86-64 -g -O0 -fpre-include=/usr/include/finclude/math-vector-fortran.h
REM seed -528090606 1863936077 1663191674 -215130835 1016452762 -1648522349 -82257189 -391686700 541096596 108909004 64963619 -2077263151 -1415788107 489044376 185302764 1472716134 -1293537394 -1663193348 1583517207 -16857189 1804487502 -558339299 -1510659276 -588754879 -1651181254 -78447921 1335745506 -2024741823 -732304904 606256639 -190386004 1913924299 526406764
REM
CELL 1.54180   50.00000   50.00000   50.00000   90.00000   90.00000   90.00000
LATT -1
SFAC C  
C      1  0.5230110000000  0.5499020000000  0.4559290000000 1.0
C      1  0.4711260000000  0.5175790000000  0.4232020000000 1.0
C      1  0.5187700000000  0.4151530000000  0.5818460000000 1.0
C      1  0.5386620000000  0.5026830000000  0.4527160000000 1.0
C      1  0.5695000000000  0.4806310000000  0.5335460000000 1.0
C      1  0.4674420000000  0.5148820000000  0.5707250000000 1.0
C      1  0.5367080000000  0.5015730000000  0.5813100000000 1.0
C      1  0.5277730000000  0.4772670000000  0.4981800000000 1.0
C      1  0.5735760000000  0.5098100000000  0.5364550000000 1.0
C      1  0.5745070000000  0.4706570000000  0.5071280000000 1.0
C      1  0.4945440000000  0.5539580000000  0.4526840000000 1.0
C      1  0.4099800000000  0.5105750000000  0.4776230000000 1.0
C      1  0.5214340000000  0.5013730000000  0.5119080000000 1.0
C      1  0.5130760000000  0.5193860000000  0.4919480000000 1.0
C      1  0.4662310000000  0.4704570000000  0.4428390000000 1.0
C      1  0.5046480000000  0.4800270000000  0.3826910000000 1.0
C      1  0.4181200000000  0.5095570000000  0.5048460000000 1.0
C      1  0.5305510000000  0.4847920000000  0.5595960000000 1.0
C      1  0.5447610000000  0.5517450000000  0.5321580000000 1.0
C      1  0.4669940000000  0.5546230000000  0.5382930000000 1.0
C      1  0.4857410000000  0.4100550000000  0.5127000000000 1.0
C      1  0.4902160000000  0.4529650000000  0.4484270000000 1.0
C      1  0.3860670000000  0.5408070000000  0.4472940000000 1.0
C      1  0.4827050000000  0.5531390000000  0.4788520000000 1.0
C      1  0.4696040000000  0.4879380000000  0.5628360000000 1.0
C      1  0.4989070000000  0.4311890000000  0.4653910000000 1.0
C      1  0.4905740000000  0.5660200000000  0.5259550000000 1.0
C      1  0.5282430000000  0.5239910000000  0.4676170000000 1.0
C      1  0.5529550000000  0.5744700000000  0.4879330000000 1.0
C      1  0.4404170000000  0.4740780000000  0.4534040000000 1.0
C      1  0.5126730000000  0.4953980000000  0.5397160000000 1.0
C      1  0.5176450000000  0.5609390000000  0.5340730000000 1.0
C      1  0.5331370000000  0.4792620000000  0.4409130000000 1.0
C      1  0.5277380000000  0.4272100000000  0.4673600000000 1.0
C      1  0.5173740000000  0.4210980000000  0.5552780000000 1.0
C      1  0.4740610000000  0.4896880000000  0.4217700000000 1.0
C      1  0.5109200000000  0.4653750000000  0.4306930000000 1.0
C      1  0.5362970000000  0.4387030000000  0.5417480000000 1.0
C      1  0.4968270000000  0.4107110000000  0.5376340000000 1.0
C      1  0.4107790000000  0.5584210000000  0.4855390000000 1.0
C      1  0.5926360000000  0.5227690000000  0.5196370000000 1.0
C      1  0.4266140000000  0.5644920000000  0.5066940000000 1.0
C      1  0.5529140000000  0.4639360000000  0.4902420000000 1.0
C      1  0.5621280000000  0.5606090000000  0.5105410000000 1.0
C      1  0.4974280000000  0.4786940000000  0.4087200000000 1.0
C      1  0.4804100000000  0.5412220000000  0.4318960000000 1.0
C      1  0.4676400000000  0.4815390000000  0.4989970000000 1.0
C      1  0.5557900000000  0.5301590000000  0.5485650000000 1.0
C      1  0.5086540000000  0.4569710000000  0.5077960000000 1.0
C      1  0.5480090000000  0.5254550000000  0.5753320000000 1.0
C      1  0.4845860000000  0.4179290000000  0.4865740000000 1.0
C      1  0.4870310000000  0.4825410000000  0.5413690000000 1.0
C      1  0.4556920000000  0.4681280000000  0.5754130000000 1.0
C      1  0.5486830000000  0.4651950000000  0.5486650000000 1.0
C      1  0.4017130000000  0.5367970000000  0.4692880000000 1.0
C      1  0.5437520000000  0.4358580000000  0.4893150000000 1.0
C      1  0.4860700000000  0.5731690000000  0.4985640000000 1.0
C      1  0.4428450000000  0.5206970000000  0.5125510000000 1.0
C      1  0.4684190000000  0.5402740000000  0.5624100000000 1.0
C      1  0.5400840000000  0.5704460000000  0.4647000000000 1.0
C      1  0.5281510000000  0.4358780000000  0.5141970000000 1.0
C      1  0.4838760000000  0.4675360000000  0.5171410000000 1.0
C      1  0.5871800000000  0.5471550000000  0.5090400000000 1.0
C      1  0.4855930000000  0.5267210000000  0.4900760000000 1.0
C      1  0.4201730000000  0.4900200000000  0.4611210000000 1.0
C      1  0.4444710000000  0.5480150000000  0.5212870000000 1.0
C      1  0.4651650000000  0.5097110000000  0.4991130000000 1.0
END
