TITL C-3866674-3872-614 -1.65691527784707e-06 125000 -794.980591401427 0 0 129 (C1) n - 1
REM
REM in /home/nfs/bkarasulu/CARBON/AIRSS/Generating-Clusters/LCBOP/Only-C1/SD-CG/FIRE-CG
REM
REM
REM
REM
REM
REM ./C.cell (11c1c37f851c82e70ff6c80c92926a4b)
REM AIRSS Version 0.9.1 bugfix July 2018 build 013d7b7c2542+ Fri, 06 Jul 2018 19:26:36 +0100
REM compiler GCC version 9.2.1 20190827 (Red Hat 9.2.1-1)
REM options -cpp -mtune=generic -march=x86-64 -g -O0 -fpre-include=/usr/include/finclude/math-vector-fortran.h
REM seed -397801829 -1928284448 1892866918 -1478540226 739312846 -1558444563 -211879332 -1037594363 539203081 1425546939 -258380203 6895945 1657030081 -1768476475 -1271366657 -151369946 -401131872 1443856233 -1584152119 596845080 -894971034 439397928 -32909610 1780022507 19391611 263099730 748430117 226771199 -726766632 2098407748 536109347 -2143761848 1177428405
REM
CELL 1.54180   50.00000   50.00000   50.00000   90.00000   90.00000   90.00000
LATT -1
SFAC C  
C      1  0.6208200000000  0.4528330000000  0.4835600000000 1.0
C      1  0.4991050000000  0.4309750000000  0.3804870000000 1.0
C      1  0.5925770000000  0.5541800000000  0.4794660000000 1.0
C      1  0.4389120000000  0.5098240000000  0.4494730000000 1.0
C      1  0.5024400000000  0.4906920000000  0.6477460000000 1.0
C      1  0.5120570000000  0.6240580000000  0.4536520000000 1.0
C      1  0.3855410000000  0.4850050000000  0.4865900000000 1.0
C      1  0.4366950000000  0.4672770000000  0.6446050000000 1.0
C      1  0.4523710000000  0.5763050000000  0.4627030000000 1.0
C      1  0.4829820000000  0.5304180000000  0.5037040000000 1.0
C      1  0.4993440000000  0.4953960000000  0.4769730000000 1.0
C      1  0.5406470000000  0.4710270000000  0.4764810000000 1.0
C      1  0.4637150000000  0.4377510000000  0.4305340000000 1.0
C      1  0.4498100000000  0.5220800000000  0.4267090000000 1.0
C      1  0.5036870000000  0.5258640000000  0.5220950000000 1.0
C      1  0.4583080000000  0.5583490000000  0.5542830000000 1.0
C      1  0.4546050000000  0.5500800000000  0.4218300000000 1.0
C      1  0.4193270000000  0.4541310000000  0.5078430000000 1.0
C      1  0.4392140000000  0.5845850000000  0.5113730000000 1.0
C      1  0.5244330000000  0.5778640000000  0.4716790000000 1.0
C      1  0.5111130000000  0.5101310000000  0.6317810000000 1.0
C      1  0.5165310000000  0.4756860000000  0.4907040000000 1.0
C      1  0.3932000000000  0.5002790000000  0.4637020000000 1.0
C      1  0.5233870000000  0.4656250000000  0.4039010000000 1.0
C      1  0.6319960000000  0.4670680000000  0.5040100000000 1.0
C      1  0.5367210000000  0.4259000000000  0.4595940000000 1.0
C      1  0.4088490000000  0.5254360000000  0.4900460000000 1.0
C      1  0.4492660000000  0.5941610000000  0.4859210000000 1.0
C      1  0.5329570000000  0.6149310000000  0.4389670000000 1.0
C      1  0.4663400000000  0.4444310000000  0.6161290000000 1.0
C      1  0.4255870000000  0.4283620000000  0.5094950000000 1.0
C      1  0.5771000000000  0.4474380000000  0.5541230000000 1.0
C      1  0.4778260000000  0.5626970000000  0.4670230000000 1.0
C      1  0.5434140000000  0.3989820000000  0.4633670000000 1.0
C      1  0.5719700000000  0.5700120000000  0.4678670000000 1.0
C      1  0.4847030000000  0.3607400000000  0.4698840000000 1.0
C      1  0.4904520000000  0.5236330000000  0.4036610000000 1.0
C      1  0.4224630000000  0.4688020000000  0.4332670000000 1.0
C      1  0.5538600000000  0.4476590000000  0.4664880000000 1.0
C      1  0.5263170000000  0.5419660000000  0.5186670000000 1.0
C      1  0.5852970000000  0.4214010000000  0.5596750000000 1.0
C      1  0.5751030000000  0.5470900000000  0.5455830000000 1.0
C      1  0.5111830000000  0.3597140000000  0.4666430000000 1.0
C      1  0.5070990000000  0.5616230000000  0.5755680000000 1.0
C      1  0.5751000000000  0.5352410000000  0.5196610000000 1.0
C      1  0.5041790000000  0.5876000000000  0.5264180000000 1.0
C      1  0.4310040000000  0.4704130000000  0.5960090000000 1.0
C      1  0.4604900000000  0.4425350000000  0.5672660000000 1.0
C      1  0.4520330000000  0.4509000000000  0.5924050000000 1.0
C      1  0.4827520000000  0.3877170000000  0.5185800000000 1.0
C      1  0.4765440000000  0.6055160000000  0.4891670000000 1.0
C      1  0.5119970000000  0.4654880000000  0.5193890000000 1.0
C      1  0.4824290000000  0.4613390000000  0.5229970000000 1.0
C      1  0.4513080000000  0.3921570000000  0.4541940000000 1.0
C      1  0.4122030000000  0.4793350000000  0.4988260000000 1.0
C      1  0.5225290000000  0.5668340000000  0.5318630000000 1.0
C      1  0.4634830000000  0.3783250000000  0.4752600000000 1.0
C      1  0.5508560000000  0.5955570000000  0.4322920000000 1.0
C      1  0.4126500000000  0.5502650000000  0.5311540000000 1.0
C      1  0.6096140000000  0.4872990000000  0.5409490000000 1.0
C      1  0.5108060000000  0.4313500000000  0.4489670000000 1.0
C      1  0.5048070000000  0.4446610000000  0.4034160000000 1.0
C      1  0.5017000000000  0.5093320000000  0.5445900000000 1.0
C      1  0.5502940000000  0.4534670000000  0.5483500000000 1.0
C      1  0.4851840000000  0.4709110000000  0.6524210000000 1.0
C      1  0.4820440000000  0.5571210000000  0.4943150000000 1.0
C      1  0.3670830000000  0.4971350000000  0.5048960000000 1.0
C      1  0.5954630000000  0.4687600000000  0.5539930000000 1.0
C      1  0.5921840000000  0.3966430000000  0.5640060000000 1.0
C      1  0.5389150000000  0.4776420000000  0.5584350000000 1.0
C      1  0.4816390000000  0.5743470000000  0.5650070000000 1.0
C      1  0.5250350000000  0.4162910000000  0.5255110000000 1.0
C      1  0.5319390000000  0.4909530000000  0.4130670000000 1.0
C      1  0.5334860000000  0.3742700000000  0.4650260000000 1.0
C      1  0.4871760000000  0.5202180000000  0.5663850000000 1.0
C      1  0.4612820000000  0.4797970000000  0.4067410000000 1.0
C      1  0.5789430000000  0.4550970000000  0.4530930000000 1.0
C      1  0.6083020000000  0.5085020000000  0.4954690000000 1.0
C      1  0.4268020000000  0.5044900000000  0.4941120000000 1.0
C      1  0.4825820000000  0.5509210000000  0.4117380000000 1.0
C      1  0.4676540000000  0.5066620000000  0.4098640000000 1.0
C      1  0.5255690000000  0.5308290000000  0.4447960000000 1.0
C      1  0.5608120000000  0.5699370000000  0.4409610000000 1.0
C      1  0.5069290000000  0.3968750000000  0.5247340000000 1.0
C      1  0.4387480000000  0.5131460000000  0.5666610000000 1.0
C      1  0.5087630000000  0.5134020000000  0.4569120000000 1.0
C      1  0.5510540000000  0.5169690000000  0.4817910000000 1.0
C      1  0.6012250000000  0.4654420000000  0.4675440000000 1.0
C      1  0.4681040000000  0.4820790000000  0.5104750000000 1.0
C      1  0.4603440000000  0.5301610000000  0.5618900000000 1.0
C      1  0.5162830000000  0.5124310000000  0.4030170000000 1.0
C      1  0.5606380000000  0.5705100000000  0.5540740000000 1.0
C      1  0.5455800000000  0.5465450000000  0.4354270000000 1.0
C      1  0.5020330000000  0.5709180000000  0.4538470000000 1.0
C      1  0.4213810000000  0.4726440000000  0.6227300000000 1.0
C      1  0.5494950000000  0.4953600000000  0.4631130000000 1.0
C      1  0.5646900000000  0.5921020000000  0.5350050000000 1.0
C      1  0.5961760000000  0.5341770000000  0.4999830000000 1.0
C      1  0.5025950000000  0.5351690000000  0.5853750000000 1.0
C      1  0.4148630000000  0.4935650000000  0.4458620000000 1.0
C      1  0.5525160000000  0.4906650000000  0.4336670000000 1.0
C      1  0.6201950000000  0.4908150000000  0.5152170000000 1.0
C      1  0.4281620000000  0.4914690000000  0.5778790000000 1.0
C      1  0.4388160000000  0.4053560000000  0.5079240000000 1.0
C      1  0.5315370000000  0.4431450000000  0.5285790000000 1.0
C      1  0.3960510000000  0.5355560000000  0.5132020000000 1.0
C      1  0.4925570000000  0.4378350000000  0.4283500000000 1.0
C      1  0.4999680000000  0.5685640000000  0.4255600000000 1.0
C      1  0.4370680000000  0.5657330000000  0.5334980000000 1.0
C      1  0.5107960000000  0.5252770000000  0.6099560000000 1.0
C      1  0.5319750000000  0.5667860000000  0.5594840000000 1.0
C      1  0.4479910000000  0.4603870000000  0.4226010000000 1.0
C      1  0.5496100000000  0.5306380000000  0.5069340000000 1.0
C      1  0.5506200000000  0.5817500000000  0.4841380000000 1.0
C      1  0.4421090000000  0.5700060000000  0.4374370000000 1.0
C      1  0.6022380000000  0.4941500000000  0.4713600000000 1.0
C      1  0.4633030000000  0.4577830000000  0.6411300000000 1.0
C      1  0.4893740000000  0.5964680000000  0.5487990000000 1.0
C      1  0.4716780000000  0.4458290000000  0.5434370000000 1.0
C      1  0.4919000000000  0.6215790000000  0.4716080000000 1.0
C      1  0.4514050000000  0.4142870000000  0.4394900000000 1.0
C      1  0.5171730000000  0.4864040000000  0.5428690000000 1.0
C      1  0.5580580000000  0.5940730000000  0.5086290000000 1.0
C      1  0.5730290000000  0.4707890000000  0.4297150000000 1.0
C      1  0.4487690000000  0.5070220000000  0.4761350000000 1.0
C      1  0.4604680000000  0.3887530000000  0.5016350000000 1.0
C      1  0.4892090000000  0.5839380000000  0.5038710000000 1.0
C      1  0.3722080000000  0.5206210000000  0.5183030000000 1.0
C      1  0.4741100000000  0.5045080000000  0.4907060000000 1.0
END
