TITL C-3866673-4222-297 6.9690867090779e-07 125000 -647.972507386827 0 0 107 (C1) n - 1
REM
REM in /home/nfs/bkarasulu/CARBON/AIRSS/Generating-Clusters/LCBOP/Only-C1/SD-CG/FIRE-CG
REM
REM
REM
REM
REM
REM ./C.cell (11c1c37f851c82e70ff6c80c92926a4b)
REM AIRSS Version 0.9.1 bugfix July 2018 build 013d7b7c2542+ Fri, 06 Jul 2018 19:26:36 +0100
REM compiler GCC version 9.2.1 20190827 (Red Hat 9.2.1-1)
REM options -cpp -mtune=generic -march=x86-64 -g -O0 -fpre-include=/usr/include/finclude/math-vector-fortran.h
REM seed -1527811252 -1223552271 1748638417 -355969266 -1948808060 62494495 1858115273 -971671221 2057919199 243586729 1596025862 1691416262 2026842337 -1763226717 1193342691 -1596012410 1709877169 192485201 -1183833322 -1154161010 1636284818 1409938964 1090998162 -1889753401 -974916787 -1799848986 -1688100321 1215266472 943227901 -1880928675 1197162429 423000110 -293004745
REM
CELL 1.54180   50.00000   50.00000   50.00000   90.00000   90.00000   90.00000
LATT -1
SFAC C  
C      1  0.4935310000000  0.4999600000000  0.5997670000000 1.0
C      1  0.4461320000000  0.4977590000000  0.6003880000000 1.0
C      1  0.4963040000000  0.4360290000000  0.4256900000000 1.0
C      1  0.4342180000000  0.5322020000000  0.4182540000000 1.0
C      1  0.5576130000000  0.4016700000000  0.4613560000000 1.0
C      1  0.5577800000000  0.4429590000000  0.5029600000000 1.0
C      1  0.5924900000000  0.5041170000000  0.4636730000000 1.0
C      1  0.4714690000000  0.4082250000000  0.4953770000000 1.0
C      1  0.4932070000000  0.4715600000000  0.5966300000000 1.0
C      1  0.4914570000000  0.6194710000000  0.4213430000000 1.0
C      1  0.5241530000000  0.4831010000000  0.4543960000000 1.0
C      1  0.4760420000000  0.3838850000000  0.4829100000000 1.0
C      1  0.5316610000000  0.4502450000000  0.5595850000000 1.0
C      1  0.4717500000000  0.5530420000000  0.5841730000000 1.0
C      1  0.4692240000000  0.5397550000000  0.6094220000000 1.0
C      1  0.5169610000000  0.4489830000000  0.5359180000000 1.0
C      1  0.5404490000000  0.4739860000000  0.4330570000000 1.0
C      1  0.6073470000000  0.4260300000000  0.4940500000000 1.0
C      1  0.5057820000000  0.5368470000000  0.4687300000000 1.0
C      1  0.4327730000000  0.5356650000000  0.4461420000000 1.0
C      1  0.5015970000000  0.4632950000000  0.4937880000000 1.0
C      1  0.3908630000000  0.4598500000000  0.5475910000000 1.0
C      1  0.5493560000000  0.5167290000000  0.4776200000000 1.0
C      1  0.4441130000000  0.4215640000000  0.4560050000000 1.0
C      1  0.5606380000000  0.5644690000000  0.5887930000000 1.0
C      1  0.6318960000000  0.4242250000000  0.5057020000000 1.0
C      1  0.5375360000000  0.5913610000000  0.4892030000000 1.0
C      1  0.5049740000000  0.5169230000000  0.5802290000000 1.0
C      1  0.4986310000000  0.5336100000000  0.4412090000000 1.0
C      1  0.4367680000000  0.4403710000000  0.4380290000000 1.0
C      1  0.5517210000000  0.4685570000000  0.4921420000000 1.0
C      1  0.4591700000000  0.5256310000000  0.4853820000000 1.0
C      1  0.4635990000000  0.4856300000000  0.5053810000000 1.0
C      1  0.5133500000000  0.6048020000000  0.4847990000000 1.0
C      1  0.5791040000000  0.4172680000000  0.4515370000000 1.0
C      1  0.4106000000000  0.4448130000000  0.5370170000000 1.0
C      1  0.4477160000000  0.5637890000000  0.5741120000000 1.0
C      1  0.4850270000000  0.5362130000000  0.5382310000000 1.0
C      1  0.5848810000000  0.4365760000000  0.5073920000000 1.0
C      1  0.4632740000000  0.4734910000000  0.4158860000000 1.0
C      1  0.5681230000000  0.4667510000000  0.4342740000000 1.0
C      1  0.5338050000000  0.5397560000000  0.4090180000000 1.0
C      1  0.4333280000000  0.4521550000000  0.5221620000000 1.0
C      1  0.4713570000000  0.4633460000000  0.5802490000000 1.0
C      1  0.4991820000000  0.5218930000000  0.5172080000000 1.0
C      1  0.4911890000000  0.6258310000000  0.4473350000000 1.0
C      1  0.5333750000000  0.5399730000000  0.4743750000000 1.0
C      1  0.5652690000000  0.5798120000000  0.5263160000000 1.0
C      1  0.5749570000000  0.6502830000000  0.5101650000000 1.0
C      1  0.5422980000000  0.4017050000000  0.4835860000000 1.0
C      1  0.4654360000000  0.5974240000000  0.4758550000000 1.0
C      1  0.5382160000000  0.4210250000000  0.5037990000000 1.0
C      1  0.4271020000000  0.4681320000000  0.4785120000000 1.0
C      1  0.4928440000000  0.5969000000000  0.4071630000000 1.0
C      1  0.5401500000000  0.4897860000000  0.4770010000000 1.0
C      1  0.3910750000000  0.4863500000000  0.5527880000000 1.0
C      1  0.5064940000000  0.4420320000000  0.4757200000000 1.0
C      1  0.4425220000000  0.4681350000000  0.4346280000000 1.0
C      1  0.5419840000000  0.5663230000000  0.4773480000000 1.0
C      1  0.4321950000000  0.5617930000000  0.4567100000000 1.0
C      1  0.4493960000000  0.4811690000000  0.5772110000000 1.0
C      1  0.4875040000000  0.5080600000000  0.4365960000000 1.0
C      1  0.5773450000000  0.5182210000000  0.4829790000000 1.0
C      1  0.4363270000000  0.4855560000000  0.4576890000000 1.0
C      1  0.4122260000000  0.5308450000000  0.5587930000000 1.0
C      1  0.4651920000000  0.3979230000000  0.5656370000000 1.0
C      1  0.5663240000000  0.6257030000000  0.5094870000000 1.0
C      1  0.4975350000000  0.5707880000000  0.4089600000000 1.0
C      1  0.4710760000000  0.5005160000000  0.4149130000000 1.0
C      1  0.5461340000000  0.5607890000000  0.5659490000000 1.0
C      1  0.5438760000000  0.5090990000000  0.5369340000000 1.0
C      1  0.5867010000000  0.4858090000000  0.4445520000000 1.0
C      1  0.5566390000000  0.5996460000000  0.5085050000000 1.0
C      1  0.4880000000000  0.4131090000000  0.5188440000000 1.0
C      1  0.4502140000000  0.4243840000000  0.4837300000000 1.0
C      1  0.4826770000000  0.4818620000000  0.4829150000000 1.0
C      1  0.5087270000000  0.4545070000000  0.6110660000000 1.0
C      1  0.4766340000000  0.4052700000000  0.5434080000000 1.0
C      1  0.5120890000000  0.4720310000000  0.5195070000000 1.0
C      1  0.6023630000000  0.4175190000000  0.4676090000000 1.0
C      1  0.5746480000000  0.4393400000000  0.4346580000000 1.0
C      1  0.5181040000000  0.5605900000000  0.5662390000000 1.0
C      1  0.4955770000000  0.4892530000000  0.4566450000000 1.0
C      1  0.4896350000000  0.6109490000000  0.4711910000000 1.0
C      1  0.5588970000000  0.5567370000000  0.5408890000000 1.0
C      1  0.4589870000000  0.5441140000000  0.5300960000000 1.0
C      1  0.4885220000000  0.5277540000000  0.4896730000000 1.0
C      1  0.4352680000000  0.4459700000000  0.4949510000000 1.0
C      1  0.4426420000000  0.5144110000000  0.4634010000000 1.0
C      1  0.4135810000000  0.5034350000000  0.5534500000000 1.0
C      1  0.5616360000000  0.5306940000000  0.5295550000000 1.0
C      1  0.4530100000000  0.5191370000000  0.4040670000000 1.0
C      1  0.5527220000000  0.4934770000000  0.5587580000000 1.0
C      1  0.4473560000000  0.4768340000000  0.5277880000000 1.0
C      1  0.5148140000000  0.4245140000000  0.5204990000000 1.0
C      1  0.5099660000000  0.5481770000000  0.4196850000000 1.0
C      1  0.4690400000000  0.5115370000000  0.6103090000000 1.0
C      1  0.4814060000000  0.4525530000000  0.4106490000000 1.0
C      1  0.4389120000000  0.4894520000000  0.5521230000000 1.0
C      1  0.4946460000000  0.5423330000000  0.5663530000000 1.0
C      1  0.4457180000000  0.5377650000000  0.5074090000000 1.0
C      1  0.4448310000000  0.5823790000000  0.4680730000000 1.0
C      1  0.5816430000000  0.5260230000000  0.5096740000000 1.0
C      1  0.4240940000000  0.5535070000000  0.5665390000000 1.0
C      1  0.5483630000000  0.4690800000000  0.5687980000000 1.0
C      1  0.5184560000000  0.5009640000000  0.5242850000000 1.0
C      1  0.5044910000000  0.4321480000000  0.4508800000000 1.0
END
