TITL C-3866676-3738-519 1637.57549372595 125000 -979.944038687689 0 0 160 (C1) n - 1
REM
REM in /home/nfs/bkarasulu/CARBON/AIRSS/Generating-Clusters/LCBOP/Only-C1/SD-CG/FIRE-CG
REM
REM
REM
REM
REM
REM ./C.cell (11c1c37f851c82e70ff6c80c92926a4b)
REM AIRSS Version 0.9.1 bugfix July 2018 build 013d7b7c2542+ Fri, 06 Jul 2018 19:26:36 +0100
REM compiler GCC version 9.2.1 20190827 (Red Hat 9.2.1-1)
REM options -cpp -mtune=generic -march=x86-64 -g -O0 -fpre-include=/usr/include/finclude/math-vector-fortran.h
REM seed 1477638640 -1993998260 2006543509 -1888125089 -1127194311 1457014274 -1655624723 269119230 1635367751 929126460 799856061 -1929737157 -852780428 -1852280968 2028158410 -639441293 1051271330 -1493313032 -1526536063 1045763243 1911218128 708128027 -641606559 -799094210 -145892576 66626402 -1817693497 1652555734 -1604383083 418362027 -1613009771 -1227852821 668764504
REM
CELL 1.54180   50.00000   50.00000   50.00000   90.00000   90.00000   90.00000
LATT -1
SFAC C  
C      1  0.6195550000000  0.4336460000000  0.4349410000000 1.0
C      1  0.4931560000000  0.5220030000000  0.6298680000000 1.0
C      1  0.4752250000000  0.3995940000000  0.6773740000000 1.0
C      1  0.5104010000000  0.4593390000000  0.6535830000000 1.0
C      1  0.5747250000000  0.5557190000000  0.5260300000000 1.0
C      1  0.5280440000000  0.5807210000000  0.5610680000000 1.0
C      1  0.4787400000000  0.4742470000000  0.3770150000000 1.0
C      1  0.5979390000000  0.5273970000000  0.4164870000000 1.0
C      1  0.4554600000000  0.6052680000000  0.4710310000000 1.0
C      1  0.5447120000000  0.4892420000000  0.3982780000000 1.0
C      1  0.3934890000000  0.5518930000000  0.4635310000000 1.0
C      1  0.5234190000000  0.5017400000000  0.5585650000000 1.0
C      1  0.5255470000000  0.5364830000000  0.6014530000000 1.0
C      1  0.5887800000000  0.4750370000000  0.4179440000000 1.0
C      1  0.5504220000000  0.5686130000000  0.5755290000000 1.0
C      1  0.5572440000000  0.4495960000000  0.4999330000000 1.0
C      1  0.3815820000000  0.4809920000000  0.4792230000000 1.0
C      1  0.4131370000000  0.5991430000000  0.5660570000000 1.0
C      1  0.5587980000000  0.5824440000000  0.4877250000000 1.0
C      1  0.4489350000000  0.5457430000000  0.4799540000000 1.0
C      1  0.6002000000000  0.4891320000000  0.5455680000000 1.0
C      1  0.6412040000000  0.5375720000000  0.5327600000000 1.0
C      1  0.5142500000000  0.4325650000000  0.4904590000000 1.0
C      1  0.5338720000000  0.5058490000000  0.4537560000000 1.0
C      1  0.5547580000000  0.5736590000000  0.5157330000000 1.0
C      1  0.4303740000000  0.5229910000000  0.4752860000000 1.0
C      1  0.5577840000000  0.4968480000000  0.5023150000000 1.0
C      1  0.5839050000000  0.4764130000000  0.5626970000000 1.0
C      1  0.4990630000000  0.4071700000000  0.4499740000000 1.0
C      1  0.5186950000000  0.5110310000000  0.4307180000000 1.0
C      1  0.5020910000000  0.4924060000000  0.3725960000000 1.0
C      1  0.5408950000000  0.4332560000000  0.4462240000000 1.0
C      1  0.5024140000000  0.4434000000000  0.6733630000000 1.0
C      1  0.5202700000000  0.5409840000000  0.5348880000000 1.0
C      1  0.4824440000000  0.4776230000000  0.5583110000000 1.0
C      1  0.4421840000000  0.5311800000000  0.5234970000000 1.0
C      1  0.4440070000000  0.5125520000000  0.3833720000000 1.0
C      1  0.6032530000000  0.5064950000000  0.5236980000000 1.0
C      1  0.5487880000000  0.4445310000000  0.4210270000000 1.0
C      1  0.4774350000000  0.4513190000000  0.5179580000000 1.0
C      1  0.5270070000000  0.6073890000000  0.4550600000000 1.0
C      1  0.3938680000000  0.5212480000000  0.5688150000000 1.0
C      1  0.5986680000000  0.5519550000000  0.5110220000000 1.0
C      1  0.5558080000000  0.4736440000000  0.4857150000000 1.0
C      1  0.4769970000000  0.5390540000000  0.4376290000000 1.0
C      1  0.5320720000000  0.4429300000000  0.5111010000000 1.0
C      1  0.5045720000000  0.5581710000000  0.6020990000000 1.0
C      1  0.4048300000000  0.5010930000000  0.5564520000000 1.0
C      1  0.4400810000000  0.4056140000000  0.4330570000000 1.0
C      1  0.4792670000000  0.4230150000000  0.4023240000000 1.0
C      1  0.5364610000000  0.4762660000000  0.5532400000000 1.0
C      1  0.5367920000000  0.5150640000000  0.4091080000000 1.0
C      1  0.6024570000000  0.4215630000000  0.5074430000000 1.0
C      1  0.4578200000000  0.5480570000000  0.4184640000000 1.0
C      1  0.4877890000000  0.4413540000000  0.4936070000000 1.0
C      1  0.5102210000000  0.5208450000000  0.5159700000000 1.0
C      1  0.5654640000000  0.5614130000000  0.4406820000000 1.0
C      1  0.4603110000000  0.4663660000000  0.5712080000000 1.0
C      1  0.5227040000000  0.4581410000000  0.5350730000000 1.0
C      1  0.4066010000000  0.4530860000000  0.5455780000000 1.0
C      1  0.5025180000000  0.6213320000000  0.4627360000000 1.0
C      1  0.4414700000000  0.3696740000000  0.6164070000000 1.0
C      1  0.4491200000000  0.4603680000000  0.5118660000000 1.0
C      1  0.4476700000000  0.4969160000000  0.4717900000000 1.0
C      1  0.5253320000000  0.4771990000000  0.3805730000000 1.0
C      1  0.5208910000000  0.5858390000000  0.4349180000000 1.0
C      1  0.4982520000000  0.4712730000000  0.4458270000000 1.0
C      1  0.4570460000000  0.5071910000000  0.5235860000000 1.0
C      1  0.6449300000000  0.3917330000000  0.4540010000000 1.0
C      1  0.4896480000000  0.4215360000000  0.6815330000000 1.0
C      1  0.5802120000000  0.4344160000000  0.5030950000000 1.0
C      1  0.4339990000000  0.4324390000000  0.5113460000000 1.0
C      1  0.3967910000000  0.4597430000000  0.4741240000000 1.0
C      1  0.4411780000000  0.4835130000000  0.5281800000000 1.0
C      1  0.4902760000000  0.5151450000000  0.4278960000000 1.0
C      1  0.5107290000000  0.4635550000000  0.6258190000000 1.0
C      1  0.5395670000000  0.5648320000000  0.4255320000000 1.0
C      1  0.5162010000000  0.5432910000000  0.3802340000000 1.0
C      1  0.4529930000000  0.4242050000000  0.4150740000000 1.0
C      1  0.5473580000000  0.4815500000000  0.4600800000000 1.0
C      1  0.4307360000000  0.5917740000000  0.5458530000000 1.0
C      1  0.4961290000000  0.4446970000000  0.6104420000000 1.0
C      1  0.4173070000000  0.4797940000000  0.5434760000000 1.0
C      1  0.5204760000000  0.4223160000000  0.4634960000000 1.0
C      1  0.5041840000000  0.5207780000000  0.3699010000000 1.0
C      1  0.3845410000000  0.5074240000000  0.4790100000000 1.0
C      1  0.4760700000000  0.4318720000000  0.5977620000000 1.0
C      1  0.4294900000000  0.6029580000000  0.5186140000000 1.0
C      1  0.4749990000000  0.3997410000000  0.4644910000000 1.0
C      1  0.4245770000000  0.4526660000000  0.4676000000000 1.0
C      1  0.4443730000000  0.4904540000000  0.4415190000000 1.0
C      1  0.4472840000000  0.4680080000000  0.4828540000000 1.0
C      1  0.4615370000000  0.3819400000000  0.6629840000000 1.0
C      1  0.5851100000000  0.5046500000000  0.5016200000000 1.0
C      1  0.4774980000000  0.4525390000000  0.4451600000000 1.0
C      1  0.5062280000000  0.5777780000000  0.5808250000000 1.0
C      1  0.5178420000000  0.4492990000000  0.3839540000000 1.0
C      1  0.4910920000000  0.6400900000000  0.5078690000000 1.0
C      1  0.5276460000000  0.5713990000000  0.5311980000000 1.0
C      1  0.5469560000000  0.6043770000000  0.4746970000000 1.0
C      1  0.4389430000000  0.6061500000000  0.4929370000000 1.0
C      1  0.4316080000000  0.4239540000000  0.4806630000000 1.0
C      1  0.6057450000000  0.4542870000000  0.4257370000000 1.0
C      1  0.4544180000000  0.4488120000000  0.4287090000000 1.0
C      1  0.4467470000000  0.4059540000000  0.4616980000000 1.0
C      1  0.5078190000000  0.5808260000000  0.5112660000000 1.0
C      1  0.4540240000000  0.4881340000000  0.3773300000000 1.0
C      1  0.5393060000000  0.5270660000000  0.5551420000000 1.0
C      1  0.4941590000000  0.4608390000000  0.5380630000000 1.0
C      1  0.4728510000000  0.5371970000000  0.4658000000000 1.0
C      1  0.4944700000000  0.5030880000000  0.5631400000000 1.0
C      1  0.5728190000000  0.5647020000000  0.4693700000000 1.0
C      1  0.6324900000000  0.4125250000000  0.4443810000000 1.0
C      1  0.4772360000000  0.5087640000000  0.4783900000000 1.0
C      1  0.5001710000000  0.6409280000000  0.4825810000000 1.0
C      1  0.5576330000000  0.4726870000000  0.5721130000000 1.0
C      1  0.4400560000000  0.4217340000000  0.5621710000000 1.0
C      1  0.4790670000000  0.6053450000000  0.4546920000000 1.0
C      1  0.4961980000000  0.4899710000000  0.4654490000000 1.0
C      1  0.4674720000000  0.4972090000000  0.4254090000000 1.0
C      1  0.4026150000000  0.5277510000000  0.4726370000000 1.0
C      1  0.5339490000000  0.5441670000000  0.4031870000000 1.0
C      1  0.5489190000000  0.4773790000000  0.5988700000000 1.0
C      1  0.5988640000000  0.5009230000000  0.4146150000000 1.0
C      1  0.4366350000000  0.3779120000000  0.5916060000000 1.0
C      1  0.4508310000000  0.5529850000000  0.5071470000000 1.0
C      1  0.5860930000000  0.5495840000000  0.4251070000000 1.0
C      1  0.4828210000000  0.6194810000000  0.5230220000000 1.0
C      1  0.4712960000000  0.4504140000000  0.4727830000000 1.0
C      1  0.4521320000000  0.5720600000000  0.5496120000000 1.0
C      1  0.4837570000000  0.5916060000000  0.5196260000000 1.0
C      1  0.5443620000000  0.5410610000000  0.5812000000000 1.0
C      1  0.5926200000000  0.5200030000000  0.4785480000000 1.0
C      1  0.6162640000000  0.5323140000000  0.5232970000000 1.0
C      1  0.4247640000000  0.4314070000000  0.5394430000000 1.0
C      1  0.5339280000000  0.5133360000000  0.5002000000000 1.0
C      1  0.4571120000000  0.4391230000000  0.5779300000000 1.0
C      1  0.4779590000000  0.5269680000000  0.5670750000000 1.0
C      1  0.4861360000000  0.5476660000000  0.6217330000000 1.0
C      1  0.4885270000000  0.4463200000000  0.3858300000000 1.0
C      1  0.4828210000000  0.5106930000000  0.5088410000000 1.0
C      1  0.5173580000000  0.5123960000000  0.6165930000000 1.0
C      1  0.4325310000000  0.4633150000000  0.4394230000000 1.0
C      1  0.5358590000000  0.4333460000000  0.3982900000000 1.0
C      1  0.5655510000000  0.5334660000000  0.5414490000000 1.0
C      1  0.5610940000000  0.4701910000000  0.4137880000000 1.0
C      1  0.5096620000000  0.5694190000000  0.4859620000000 1.0
C      1  0.4968820000000  0.4089650000000  0.4209880000000 1.0
C      1  0.4624480000000  0.5497880000000  0.5650970000000 1.0
C      1  0.3805930000000  0.4482250000000  0.5524480000000 1.0
C      1  0.4500080000000  0.3713640000000  0.6415100000000 1.0
C      1  0.4912230000000  0.5872680000000  0.4346850000000 1.0
C      1  0.5261830000000  0.4850930000000  0.6144450000000 1.0
C      1  0.4361360000000  0.3957250000000  0.5718740000000 1.0
C      1  0.4637180000000  0.5723890000000  0.5230440000000 1.0
C      1  0.5207620000000  0.5497620000000  0.4721770000000 1.0
C      1  0.5318940000000  0.5246250000000  0.4742320000000 1.0
C      1  0.5926970000000  0.5482730000000  0.4823220000000 1.0
C      1  0.3966870000000  0.6052040000000  0.5853390000000 1.0
C      1  0.4458350000000  0.5354560000000  0.3976000000000 1.0
END
