TITL C-3866673-4222-19 0.0068055133997336 125000 -301.920474579146 0 0 51 (C1) n - 1
REM
REM in /home/nfs/bkarasulu/CARBON/AIRSS/Generating-Clusters/LCBOP/Only-C1/SD-CG/HFTN-CG/FIRE-CG
REM
REM
REM
REM
REM
REM ./C.cell (11c1c37f851c82e70ff6c80c92926a4b)
REM AIRSS Version 0.9.1 bugfix July 2018 build 013d7b7c2542+ Fri, 06 Jul 2018 19:26:36 +0100
REM compiler GCC version 9.2.1 20190827 (Red Hat 9.2.1-1)
REM options -cpp -mtune=generic -march=x86-64 -g -O0 -fpre-include=/usr/include/finclude/math-vector-fortran.h
REM seed -1267802309 19855967 1394196432 1458836648 -736904139 -250263923 248337435 1866708385 703435826 -1489136833 87263805 -669170670 1604667315 -1872727192 715022358 -2146993952 1843794589 641869751 1947869736 -1953713709 1522326051 -1363301810 -70172377 -1072183111 -1967912153 790531050 1227324397 -330782877 1853262701 -623765030 1550379838 2104410854 217817772
REM
CELL 1.54180   50.00000   50.00000   50.00000   90.00000   90.00000   90.00000
LATT -1
SFAC C  
C      1  0.4997040000000  0.4316890000000  0.4814490000000 1.0
C      1  0.4902960000000  0.5300880000000  0.4286120000000 1.0
C      1  0.4294670000000  0.4373360000000  0.4578290000000 1.0
C      1  0.4540920000000  0.4793760000000  0.4784100000000 1.0
C      1  0.4403280000000  0.4590730000000  0.4684130000000 1.0
C      1  0.5160800000000  0.5241980000000  0.3879070000000 1.0
C      1  0.5053100000000  0.4959680000000  0.5913820000000 1.0
C      1  0.4201190000000  0.4154660000000  0.4471560000000 1.0
C      1  0.5385020000000  0.5643560000000  0.5935270000000 1.0
C      1  0.5602680000000  0.5239130000000  0.4695860000000 1.0
C      1  0.5709830000000  0.4794500000000  0.5595110000000 1.0
C      1  0.4985270000000  0.4294340000000  0.4330880000000 1.0
C      1  0.5770480000000  0.4694950000000  0.5085870000000 1.0
C      1  0.5473800000000  0.5388510000000  0.5164090000000 1.0
C      1  0.4901610000000  0.5002090000000  0.5039680000000 1.0
C      1  0.5784990000000  0.4731910000000  0.5348320000000 1.0
C      1  0.5116680000000  0.5496000000000  0.5487860000000 1.0
C      1  0.4691540000000  0.5017090000000  0.4855100000000 1.0
C      1  0.5515050000000  0.5688060000000  0.6156790000000 1.0
C      1  0.4057990000000  0.5343680000000  0.5021750000000 1.0
C      1  0.4717460000000  0.4121180000000  0.3913190000000 1.0
C      1  0.5087960000000  0.5105360000000  0.5198650000000 1.0
C      1  0.5490760000000  0.5038050000000  0.4535260000000 1.0
C      1  0.4854840000000  0.4206240000000  0.4117770000000 1.0
C      1  0.5495710000000  0.4770430000000  0.4633040000000 1.0
C      1  0.4887290000000  0.4309830000000  0.5055900000000 1.0
C      1  0.5184120000000  0.5264740000000  0.3620490000000 1.0
C      1  0.4803920000000  0.4962050000000  0.5786360000000 1.0
C      1  0.5547690000000  0.4863570000000  0.5793720000000 1.0
C      1  0.4314380000000  0.5396700000000  0.5097360000000 1.0
C      1  0.4794910000000  0.5742320000000  0.5218110000000 1.0
C      1  0.4681260000000  0.5204730000000  0.5719890000000 1.0
C      1  0.5253350000000  0.5586640000000  0.5712560000000 1.0
C      1  0.5601700000000  0.5362460000000  0.4931820000000 1.0
C      1  0.5136310000000  0.5217200000000  0.4155870000000 1.0
C      1  0.4780050000000  0.4379530000000  0.5288470000000 1.0
C      1  0.5304230000000  0.4583450000000  0.4553040000000 1.0
C      1  0.5237130000000  0.5322090000000  0.5297750000000 1.0
C      1  0.4632130000000  0.5272180000000  0.4740460000000 1.0
C      1  0.4518580000000  0.5469490000000  0.4909810000000 1.0
C      1  0.4710040000000  0.4523010000000  0.5500580000000 1.0
C      1  0.4708830000000  0.4723280000000  0.5674930000000 1.0
C      1  0.4400740000000  0.5385930000000  0.5365950000000 1.0
C      1  0.4632630000000  0.5400460000000  0.5525980000000 1.0
C      1  0.5316160000000  0.4922630000000  0.5909660000000 1.0
C      1  0.5096610000000  0.4396710000000  0.4565480000000 1.0
C      1  0.4727080000000  0.5326170000000  0.4483470000000 1.0
C      1  0.5344580000000  0.5107980000000  0.4307760000000 1.0
C      1  0.5673630000000  0.4703300000000  0.4838910000000 1.0
C      1  0.4670310000000  0.5696480000000  0.4983500000000 1.0
C      1  0.4846730000000  0.5570010000000  0.5436100000000 1.0
END
