TITL C-3866669-3764-703 0.157995719689092 125000 -300.228701901731 0 0 49 (C1) n - 1
REM
REM in /home/nfs/bkarasulu/CARBON/AIRSS/Generating-Clusters/LCBOP/Only-C1/SD-CG/FIRE-CG
REM
REM
REM
REM
REM
REM ./C.cell (11c1c37f851c82e70ff6c80c92926a4b)
REM AIRSS Version 0.9.1 bugfix July 2018 build 013d7b7c2542+ Fri, 06 Jul 2018 19:26:36 +0100
REM compiler GCC version 9.2.1 20190827 (Red Hat 9.2.1-1)
REM options -cpp -mtune=generic -march=x86-64 -g -O0 -fpre-include=/usr/include/finclude/math-vector-fortran.h
REM seed 1860577751 -135048616 1741722822 -361115849 -1555492701 807512948 317744291 1464081029 -683631801 -1321675346 -870074757 -51614845 1096982438 -2004806007 -605175668 -546521164 518422767 -768132280 -1629139515 -618827622 2028709796 473915590 1029015109 1202890441 -47334040 88718910 -275283730 -359898959 -670086106 -2134530148 1642345550 -284447355 900764169
REM
CELL 1.54180   50.00000   50.00000   50.00000   90.00000   90.00000   90.00000
LATT -1
SFAC C  
C      1  0.5463710000000  0.5284000000000  0.4765250000000 1.0
C      1  0.4631770000000  0.5286750000000  0.5241940000000 1.0
C      1  0.4646570000000  0.5079640000000  0.5050860000000 1.0
C      1  0.5146410000000  0.4551010000000  0.4531510000000 1.0
C      1  0.4059170000000  0.5029280000000  0.5207040000000 1.0
C      1  0.4804660000000  0.5057630000000  0.4557730000000 1.0
C      1  0.4732150000000  0.4651340000000  0.4296320000000 1.0
C      1  0.4692250000000  0.5166900000000  0.4789630000000 1.0
C      1  0.4698220000000  0.4251120000000  0.5256680000000 1.0
C      1  0.5331580000000  0.5531260000000  0.4094670000000 1.0
C      1  0.5351620000000  0.5688730000000  0.3887880000000 1.0
C      1  0.5010050000000  0.5149850000000  0.5504710000000 1.0
C      1  0.4951280000000  0.4503390000000  0.4350450000000 1.0
C      1  0.5228540000000  0.5137440000000  0.5316530000000 1.0
C      1  0.5652290000000  0.4440040000000  0.5261380000000 1.0
C      1  0.5288160000000  0.5230280000000  0.4544750000000 1.0
C      1  0.5407670000000  0.6007690000000  0.4813460000000 1.0
C      1  0.4908110000000  0.4955400000000  0.5690260000000 1.0
C      1  0.5424490000000  0.4338460000000  0.5391850000000 1.0
C      1  0.4940200000000  0.4372430000000  0.5175860000000 1.0
C      1  0.5193540000000  0.4273040000000  0.5243790000000 1.0
C      1  0.4622690000000  0.4878850000000  0.4421700000000 1.0
C      1  0.5078010000000  0.4777020000000  0.5821190000000 1.0
C      1  0.4812920000000  0.5342070000000  0.5433040000000 1.0
C      1  0.5410520000000  0.6256210000000  0.4721350000000 1.0
C      1  0.5645640000000  0.5085890000000  0.4860490000000 1.0
C      1  0.5313760000000  0.4915650000000  0.5153520000000 1.0
C      1  0.5090180000000  0.5026680000000  0.4572230000000 1.0
C      1  0.4483530000000  0.4401630000000  0.5324550000000 1.0
C      1  0.5395040000000  0.5485410000000  0.4957670000000 1.0
C      1  0.4169440000000  0.4934400000000  0.4699600000000 1.0
C      1  0.5727070000000  0.4669850000000  0.5143930000000 1.0
C      1  0.4067750000000  0.4992970000000  0.4940930000000 1.0
C      1  0.5317190000000  0.5387680000000  0.5211350000000 1.0
C      1  0.4493910000000  0.4682740000000  0.5315800000000 1.0
C      1  0.5404000000000  0.5756460000000  0.4897260000000 1.0
C      1  0.5589060000000  0.4900860000000  0.5066780000000 1.0
C      1  0.4175060000000  0.4997420000000  0.5449530000000 1.0
C      1  0.4352490000000  0.4890090000000  0.4508040000000 1.0
C      1  0.5139470000000  0.4772410000000  0.4980290000000 1.0
C      1  0.5311540000000  0.5375130000000  0.4307750000000 1.0
C      1  0.5250250000000  0.4574180000000  0.5815200000000 1.0
C      1  0.4913620000000  0.4644820000000  0.5084760000000 1.0
C      1  0.5385200000000  0.4401420000000  0.5663090000000 1.0
C      1  0.4410440000000  0.4858690000000  0.5522400000000 1.0
C      1  0.5166960000000  0.4778920000000  0.4696790000000 1.0
C      1  0.4676450000000  0.4801180000000  0.5128430000000 1.0
C      1  0.4622150000000  0.4925560000000  0.5700300000000 1.0
C      1  0.5413200000000  0.6500170000000  0.4629480000000 1.0
END
