TITL C-3866670-4165-441 -4.09462655179272e-05 125000 -1001.25764242317 0 0 162 (C1) n - 1
REM
REM in /home/nfs/bkarasulu/CARBON/AIRSS/Generating-Clusters/LCBOP/Only-C1/SD-CG/FIRE-CG
REM
REM
REM
REM
REM
REM ./C.cell (11c1c37f851c82e70ff6c80c92926a4b)
REM AIRSS Version 0.9.1 bugfix July 2018 build 013d7b7c2542+ Fri, 06 Jul 2018 19:26:36 +0100
REM compiler GCC version 9.2.1 20190827 (Red Hat 9.2.1-1)
REM options -cpp -mtune=generic -march=x86-64 -g -O0 -fpre-include=/usr/include/finclude/math-vector-fortran.h
REM seed 1802800792 129374812 383818192 -1064418271 -333055302 -1030654899 -12872082 -1662073841 -282286825 388640961 1863705226 -2100399599 -1367774977 1651098196 8667511 -1645814607 -1965825381 1740327359 -1214618091 -631154596 -1587457462 917811898 1988317514 572084935 -1977335525 -701593887 824660947 2028121945 -1679219815 1221515485 -800628457 -931417419 -1724802747
REM
CELL 1.54180   50.00000   50.00000   50.00000   90.00000   90.00000   90.00000
LATT -1
SFAC C  
C      1  0.6160060000000  0.4207420000000  0.5011310000000 1.0
C      1  0.5014190000000  0.5076350000000  0.4615860000000 1.0
C      1  0.4073190000000  0.5236260000000  0.4570180000000 1.0
C      1  0.5082710000000  0.4407150000000  0.4015140000000 1.0
C      1  0.5315980000000  0.4603620000000  0.4754110000000 1.0
C      1  0.4873920000000  0.5774910000000  0.5797370000000 1.0
C      1  0.4630860000000  0.4872930000000  0.5402230000000 1.0
C      1  0.5049220000000  0.4603830000000  0.5967180000000 1.0
C      1  0.4551030000000  0.3977830000000  0.5559880000000 1.0
C      1  0.4317710000000  0.4599490000000  0.5834480000000 1.0
C      1  0.5680640000000  0.4284290000000  0.4980060000000 1.0
C      1  0.5104440000000  0.5616370000000  0.5813220000000 1.0
C      1  0.4646310000000  0.5817310000000  0.4663230000000 1.0
C      1  0.4257480000000  0.5625240000000  0.4318320000000 1.0
C      1  0.5235090000000  0.4754370000000  0.6116040000000 1.0
C      1  0.4978400000000  0.4172910000000  0.4751020000000 1.0
C      1  0.4050380000000  0.4923980000000  0.4971070000000 1.0
C      1  0.4601540000000  0.4761220000000  0.4492960000000 1.0
C      1  0.4873840000000  0.6042340000000  0.5266840000000 1.0
C      1  0.4272850000000  0.4729290000000  0.4117650000000 1.0
C      1  0.5794060000000  0.3751620000000  0.5463400000000 1.0
C      1  0.4685130000000  0.3873670000000  0.5093490000000 1.0
C      1  0.4994200000000  0.4725180000000  0.5109380000000 1.0
C      1  0.5329000000000  0.5136660000000  0.4958830000000 1.0
C      1  0.4717620000000  0.4829840000000  0.4020160000000 1.0
C      1  0.5474850000000  0.4339850000000  0.4269230000000 1.0
C      1  0.5634180000000  0.5555400000000  0.4473570000000 1.0
C      1  0.4260960000000  0.5323790000000  0.3705770000000 1.0
C      1  0.4339900000000  0.5959170000000  0.4999350000000 1.0
C      1  0.5589830000000  0.4006170000000  0.5032080000000 1.0
C      1  0.5904780000000  0.5757830000000  0.4893200000000 1.0
C      1  0.4836960000000  0.6113340000000  0.4985280000000 1.0
C      1  0.5826640000000  0.5410890000000  0.4329030000000 1.0
C      1  0.4934810000000  0.5173910000000  0.5135760000000 1.0
C      1  0.4515540000000  0.5708190000000  0.3928470000000 1.0
C      1  0.4714800000000  0.5795110000000  0.4386390000000 1.0
C      1  0.5411430000000  0.4810600000000  0.4590640000000 1.0
C      1  0.4920430000000  0.5447100000000  0.5214010000000 1.0
C      1  0.5437420000000  0.5981970000000  0.5337090000000 1.0
C      1  0.5598840000000  0.4544060000000  0.4113030000000 1.0
C      1  0.5390300000000  0.3866370000000  0.4868030000000 1.0
C      1  0.5065100000000  0.6145070000000  0.4817820000000 1.0
C      1  0.4461650000000  0.5279830000000  0.5593580000000 1.0
C      1  0.4801760000000  0.4110180000000  0.5660270000000 1.0
C      1  0.4485780000000  0.4332400000000  0.5012230000000 1.0
C      1  0.4969730000000  0.4725010000000  0.5717670000000 1.0
C      1  0.4047610000000  0.4630050000000  0.4955490000000 1.0
C      1  0.5642190000000  0.4876960000000  0.4449710000000 1.0
C      1  0.5585620000000  0.4286110000000  0.4519230000000 1.0
C      1  0.5800510000000  0.5437260000000  0.5940100000000 1.0
C      1  0.4216320000000  0.5033530000000  0.4743050000000 1.0
C      1  0.4147140000000  0.5096170000000  0.3785880000000 1.0
C      1  0.4043520000000  0.5023930000000  0.5254140000000 1.0
C      1  0.5544830000000  0.4564000000000  0.6511840000000 1.0
C      1  0.3849270000000  0.4718030000000  0.5851010000000 1.0
C      1  0.5047070000000  0.4230980000000  0.4492070000000 1.0
C      1  0.4333370000000  0.4093120000000  0.5721330000000 1.0
C      1  0.5791080000000  0.5005090000000  0.4899230000000 1.0
C      1  0.5863770000000  0.5681440000000  0.5451190000000 1.0
C      1  0.5674120000000  0.4677650000000  0.5381200000000 1.0
C      1  0.4472430000000  0.5487400000000  0.5759810000000 1.0
C      1  0.5862080000000  0.4913540000000  0.4630620000000 1.0
C      1  0.4872640000000  0.4810300000000  0.4615100000000 1.0
C      1  0.5174450000000  0.3759170000000  0.4733370000000 1.0
C      1  0.5168070000000  0.5728590000000  0.4583590000000 1.0
C      1  0.4707860000000  0.4269600000000  0.5888950000000 1.0
C      1  0.5776790000000  0.5324760000000  0.4076950000000 1.0
C      1  0.4348380000000  0.4773710000000  0.4633460000000 1.0
C      1  0.4516820000000  0.4800800000000  0.5878910000000 1.0
C      1  0.5704140000000  0.5289830000000  0.5731070000000 1.0
C      1  0.4373360000000  0.4294930000000  0.4755900000000 1.0
C      1  0.4054260000000  0.4754070000000  0.5415250000000 1.0
C      1  0.4617240000000  0.5701430000000  0.5826870000000 1.0
C      1  0.5956420000000  0.4397310000000  0.5045370000000 1.0
C      1  0.5478550000000  0.5852990000000  0.5082410000000 1.0
C      1  0.5187310000000  0.5266790000000  0.4469690000000 1.0
C      1  0.4670860000000  0.5566560000000  0.4787940000000 1.0
C      1  0.5459120000000  0.5387440000000  0.4893900000000 1.0
C      1  0.4038300000000  0.4523740000000  0.5223300000000 1.0
C      1  0.4103940000000  0.5902380000000  0.4856240000000 1.0
C      1  0.6066310000000  0.4665750000000  0.5130370000000 1.0
C      1  0.6025880000000  0.5174620000000  0.5372020000000 1.0
C      1  0.3998630000000  0.5707270000000  0.4704910000000 1.0
C      1  0.5447720000000  0.5770450000000  0.4122010000000 1.0
C      1  0.5039020000000  0.4658410000000  0.4828360000000 1.0
C      1  0.5793140000000  0.4820830000000  0.5598780000000 1.0
C      1  0.4418540000000  0.4329320000000  0.5861720000000 1.0
C      1  0.4481270000000  0.4070070000000  0.4609440000000 1.0
C      1  0.5427740000000  0.5289920000000  0.5662070000000 1.0
C      1  0.5328490000000  0.5504650000000  0.4056270000000 1.0
C      1  0.4539990000000  0.4737560000000  0.4211000000000 1.0
C      1  0.5243610000000  0.5992680000000  0.4664280000000 1.0
C      1  0.5497300000000  0.4454840000000  0.5444580000000 1.0
C      1  0.4651700000000  0.5270340000000  0.4363320000000 1.0
C      1  0.5750940000000  0.5298030000000  0.4911210000000 1.0
C      1  0.5080860000000  0.5435550000000  0.4222260000000 1.0
C      1  0.4981400000000  0.5689590000000  0.4362480000000 1.0
C      1  0.5428360000000  0.5004670000000  0.4013770000000 1.0
C      1  0.6121110000000  0.4868930000000  0.4556030000000 1.0
C      1  0.5249360000000  0.5504710000000  0.5587740000000 1.0
C      1  0.5980060000000  0.5461120000000  0.5291760000000 1.0
C      1  0.4791940000000  0.5121410000000  0.6180980000000 1.0
C      1  0.4918590000000  0.3753070000000  0.4625150000000 1.0
C      1  0.5142850000000  0.4631000000000  0.3875780000000 1.0
C      1  0.4733500000000  0.4694600000000  0.5212190000000 1.0
C      1  0.4704350000000  0.4804220000000  0.5667550000000 1.0
C      1  0.5189870000000  0.4300290000000  0.4252920000000 1.0
C      1  0.6120270000000  0.4928490000000  0.5223190000000 1.0
C      1  0.4670050000000  0.4425980000000  0.5193350000000 1.0
C      1  0.4671320000000  0.3871220000000  0.4577710000000 1.0
C      1  0.5279030000000  0.4300990000000  0.5505530000000 1.0
C      1  0.4076780000000  0.4690080000000  0.5697760000000 1.0
C      1  0.5170110000000  0.4908760000000  0.3937720000000 1.0
C      1  0.4477330000000  0.3914530000000  0.5290800000000 1.0
C      1  0.5152500000000  0.6055180000000  0.5372180000000 1.0
C      1  0.5192450000000  0.4829820000000  0.5289670000000 1.0
C      1  0.4894140000000  0.4251820000000  0.5223390000000 1.0
C      1  0.4917150000000  0.5024480000000  0.4007640000000 1.0
C      1  0.4215000000000  0.4016440000000  0.5229460000000 1.0
C      1  0.4678370000000  0.5517960000000  0.5073080000000 1.0
C      1  0.5864700000000  0.5095850000000  0.5599070000000 1.0
C      1  0.4851680000000  0.5260560000000  0.4151910000000 1.0
C      1  0.4590920000000  0.6017540000000  0.4858220000000 1.0
C      1  0.5585650000000  0.5829000000000  0.4376570000000 1.0
C      1  0.5369900000000  0.5590140000000  0.5097920000000 1.0
C      1  0.5298030000000  0.5052230000000  0.5739730000000 1.0
C      1  0.4087010000000  0.5516910000000  0.4516060000000 1.0
C      1  0.5120190000000  0.5477010000000  0.6061000000000 1.0
C      1  0.4627400000000  0.5919820000000  0.5373850000000 1.0
C      1  0.5506790000000  0.5279840000000  0.3997220000000 1.0
C      1  0.5240320000000  0.5021140000000  0.6022250000000 1.0
C      1  0.5668760000000  0.5876990000000  0.5489750000000 1.0
C      1  0.4895410000000  0.4389950000000  0.6053980000000 1.0
C      1  0.5056290000000  0.5211730000000  0.6128410000000 1.0
C      1  0.4213090000000  0.4534860000000  0.4730780000000 1.0
C      1  0.4068230000000  0.4243870000000  0.5257700000000 1.0
C      1  0.5173710000000  0.5537450000000  0.5308160000000 1.0
C      1  0.5371500000000  0.5474230000000  0.4617130000000 1.0
C      1  0.5697680000000  0.3868600000000  0.5251420000000 1.0
C      1  0.4496660000000  0.5734900000000  0.4207710000000 1.0
C      1  0.4408640000000  0.5542490000000  0.3746720000000 1.0
C      1  0.4074150000000  0.5322330000000  0.5297780000000 1.0
C      1  0.5661010000000  0.4846040000000  0.5130650000000 1.0
C      1  0.4191580000000  0.5581810000000  0.5302760000000 1.0
C      1  0.5059830000000  0.5126450000000  0.4892380000000 1.0
C      1  0.4586280000000  0.4966980000000  0.6096990000000 1.0
C      1  0.4453240000000  0.5179870000000  0.4839510000000 1.0
C      1  0.4891510000000  0.4065300000000  0.5007550000000 1.0
C      1  0.5007800000000  0.4205780000000  0.5478430000000 1.0
C      1  0.4135810000000  0.4880620000000  0.3943300000000 1.0
C      1  0.4510640000000  0.5267900000000  0.5106310000000 1.0
C      1  0.4371810000000  0.5824170000000  0.5257820000000 1.0
C      1  0.5601520000000  0.4824360000000  0.4168700000000 1.0
C      1  0.5393870000000  0.4656570000000  0.6320660000000 1.0
C      1  0.5664660000000  0.5911790000000  0.4868490000000 1.0
C      1  0.5167670000000  0.4864840000000  0.5570890000000 1.0
C      1  0.5518150000000  0.4396690000000  0.4772830000000 1.0
C      1  0.5531010000000  0.5988840000000  0.4619260000000 1.0
C      1  0.5400460000000  0.4955500000000  0.5151720000000 1.0
C      1  0.4595770000000  0.5330620000000  0.4637470000000 1.0
C      1  0.5928270000000  0.5496940000000  0.5010640000000 1.0
C      1  0.4520440000000  0.5131850000000  0.5359790000000 1.0
END
