TITL C-3866675-3766-430 0.094902160495259 125000 -305.426898853306 0 0 51 (C1) n - 1
REM
REM in /home/nfs/bkarasulu/CARBON/AIRSS/Generating-Clusters/LCBOP/Only-C1/SD-CG/FIRE-CG
REM
REM
REM
REM
REM
REM ./C.cell (11c1c37f851c82e70ff6c80c92926a4b)
REM AIRSS Version 0.9.1 bugfix July 2018 build 013d7b7c2542+ Fri, 06 Jul 2018 19:26:36 +0100
REM compiler GCC version 9.2.1 20190827 (Red Hat 9.2.1-1)
REM options -cpp -mtune=generic -march=x86-64 -g -O0 -fpre-include=/usr/include/finclude/math-vector-fortran.h
REM seed 1171099347 696171111 841024662 1304720435 -1419676006 127476601 1266554176 -1208699442 -1509208730 -1231691847 -1401525828 1320109948 641151853 -1357979972 -996499177 1796285625 1101552418 -15160812 2125283124 -965698094 688094219 -1576503437 932802105 205637388 24229342 1439781513 -199997850 -1322023506 -562550481 -598551852 -208391923 -153652262 -1689844686
REM
CELL 1.54180   50.00000   50.00000   50.00000   90.00000   90.00000   90.00000
LATT -1
SFAC C  
C      1  0.5093310000000  0.6235310000000  0.4998720000000 1.0
C      1  0.5221020000000  0.6008260000000  0.5046930000000 1.0
C      1  0.5461570000000  0.5373400000000  0.5390880000000 1.0
C      1  0.5666480000000  0.5444460000000  0.4969040000000 1.0
C      1  0.4619400000000  0.5276490000000  0.5059040000000 1.0
C      1  0.5210060000000  0.5085690000000  0.4343280000000 1.0
C      1  0.4668310000000  0.4596840000000  0.5240670000000 1.0
C      1  0.5434340000000  0.5588280000000  0.4878810000000 1.0
C      1  0.5128000000000  0.4601440000000  0.4475610000000 1.0
C      1  0.5148210000000  0.4191020000000  0.5031440000000 1.0
C      1  0.5315500000000  0.4414030000000  0.4977070000000 1.0
C      1  0.5629150000000  0.4743980000000  0.5236330000000 1.0
C      1  0.5303790000000  0.4488620000000  0.5468960000000 1.0
C      1  0.4772150000000  0.5283320000000  0.5293610000000 1.0
C      1  0.5343980000000  0.5763620000000  0.5088360000000 1.0
C      1  0.5217650000000  0.4849120000000  0.4845460000000 1.0
C      1  0.4207600000000  0.5233600000000  0.4816880000000 1.0
C      1  0.5649430000000  0.5265500000000  0.5200060000000 1.0
C      1  0.4742230000000  0.5317850000000  0.4796920000000 1.0
C      1  0.5249170000000  0.4580110000000  0.4745680000000 1.0
C      1  0.5245450000000  0.5226110000000  0.5492800000000 1.0
C      1  0.5679300000000  0.4980590000000  0.4840090000000 1.0
C      1  0.4981640000000  0.5224810000000  0.5447570000000 1.0
C      1  0.5250370000000  0.5458740000000  0.4698030000000 1.0
C      1  0.4743260000000  0.4695690000000  0.4981130000000 1.0
C      1  0.4026290000000  0.4616810000000  0.4840920000000 1.0
C      1  0.4746190000000  0.4332570000000  0.5293040000000 1.0
C      1  0.4972350000000  0.5472570000000  0.4750250000000 1.0
C      1  0.4493760000000  0.4811640000000  0.5632160000000 1.0
C      1  0.4941640000000  0.4652990000000  0.5807390000000 1.0
C      1  0.4521140000000  0.4661690000000  0.4804610000000 1.0
C      1  0.4695050000000  0.4756690000000  0.5801630000000 1.0
C      1  0.4336150000000  0.5206260000000  0.4576600000000 1.0
C      1  0.5419440000000  0.5020310000000  0.4746520000000 1.0
C      1  0.4265400000000  0.4717170000000  0.4921560000000 1.0
C      1  0.4966640000000  0.6457940000000  0.4950230000000 1.0
C      1  0.5152050000000  0.4549920000000  0.5679550000000 1.0
C      1  0.5331530000000  0.5216590000000  0.4564860000000 1.0
C      1  0.4619130000000  0.5173090000000  0.4575440000000 1.0
C      1  0.4964470000000  0.4868750000000  0.4962000000000 1.0
C      1  0.4350050000000  0.5166550000000  0.5057600000000 1.0
C      1  0.5088880000000  0.4166390000000  0.4158410000000 1.0
C      1  0.5024660000000  0.4868030000000  0.4387080000000 1.0
C      1  0.5109000000000  0.4378350000000  0.4308670000000 1.0
C      1  0.4465460000000  0.4767160000000  0.5357400000000 1.0
C      1  0.4924910000000  0.4165600000000  0.5180290000000 1.0
C      1  0.5701200000000  0.4991750000000  0.5124880000000 1.0
C      1  0.5400510000000  0.5652160000000  0.5345440000000 1.0
C      1  0.4761930000000  0.4968900000000  0.4438430000000 1.0
C      1  0.5433460000000  0.4537620000000  0.5221130000000 1.0
C      1  0.4307310000000  0.4895610000000  0.5150530000000 1.0
END
