TITL C-3866670-4165-7 0.52354332545068 125000 -1217.6184144322 0 0 196 (C1) n - 1
REM
REM in /home/nfs/bkarasulu/CARBON/AIRSS/Generating-Clusters/LCBOP/Only-C1/SD-CG/HFTN-CG/FIRE-CG
REM
REM
REM
REM
REM
REM ./C.cell (11c1c37f851c82e70ff6c80c92926a4b)
REM AIRSS Version 0.9.1 bugfix July 2018 build 013d7b7c2542+ Fri, 06 Jul 2018 19:26:36 +0100
REM compiler GCC version 9.2.1 20190827 (Red Hat 9.2.1-1)
REM options -cpp -mtune=generic -march=x86-64 -g -O0 -fpre-include=/usr/include/finclude/math-vector-fortran.h
REM seed -1874946063 -45891568 -1951671689 -630991419 2084985323 303718900 1906646777 1298327286 -1651567712 -278802621 -1893012422 -1038664070 -593231337 -181873033 538064952 1903297834 713239134 900434958 -574257371 -931262416 574821659 -1532477988 -818286630 -1904274011 1033060835 781240468 1858141171 1447684860 -2031751093 -955462538 1015410793 -1489227689 -600284712
REM
CELL 1.54180   50.00000   50.00000   50.00000   90.00000   90.00000   90.00000
LATT -1
SFAC C  
C      1  0.5131880000000  0.6002530000000  0.3970280000000 1.0
C      1  0.4921100000000  0.5721760000000  0.5002870000000 1.0
C      1  0.4241400000000  0.5745790000000  0.6314820000000 1.0
C      1  0.4068140000000  0.4704420000000  0.5142810000000 1.0
C      1  0.4032190000000  0.5795580000000  0.6476920000000 1.0
C      1  0.4610780000000  0.3893760000000  0.5817650000000 1.0
C      1  0.4932200000000  0.4753600000000  0.5156150000000 1.0
C      1  0.5026760000000  0.3615300000000  0.5141490000000 1.0
C      1  0.5419350000000  0.4689050000000  0.6241650000000 1.0
C      1  0.4336830000000  0.4761950000000  0.5199660000000 1.0
C      1  0.5916210000000  0.4962970000000  0.5716870000000 1.0
C      1  0.5279330000000  0.5246950000000  0.4521180000000 1.0
C      1  0.4095050000000  0.4778470000000  0.4436020000000 1.0
C      1  0.4425160000000  0.4092510000000  0.4154610000000 1.0
C      1  0.5209000000000  0.6295600000000  0.5246970000000 1.0
C      1  0.4925200000000  0.6255790000000  0.4569980000000 1.0
C      1  0.5633760000000  0.6035730000000  0.4683770000000 1.0
C      1  0.5785180000000  0.5388350000000  0.4201600000000 1.0
C      1  0.4824930000000  0.5420160000000  0.4283910000000 1.0
C      1  0.5075510000000  0.5370260000000  0.6045480000000 1.0
C      1  0.4672370000000  0.5199460000000  0.4405370000000 1.0
C      1  0.4669930000000  0.4081400000000  0.4558590000000 1.0
C      1  0.4464680000000  0.5451890000000  0.4740370000000 1.0
C      1  0.5034350000000  0.4185700000000  0.4872450000000 1.0
C      1  0.4880280000000  0.4034190000000  0.4360210000000 1.0
C      1  0.5428910000000  0.5121840000000  0.4978320000000 1.0
C      1  0.3819160000000  0.5534760000000  0.5996140000000 1.0
C      1  0.4681630000000  0.5538650000000  0.4056500000000 1.0
C      1  0.5725240000000  0.4353350000000  0.4824220000000 1.0
C      1  0.4471280000000  0.4631650000000  0.4887000000000 1.0
C      1  0.4521220000000  0.6453640000000  0.5416640000000 1.0
C      1  0.4547170000000  0.3781630000000  0.5341500000000 1.0
C      1  0.5160700000000  0.5701640000000  0.4612340000000 1.0
C      1  0.4617600000000  0.5812590000000  0.4078760000000 1.0
C      1  0.4763150000000  0.4219140000000  0.4790910000000 1.0
C      1  0.4789920000000  0.6156230000000  0.4340870000000 1.0
C      1  0.4002000000000  0.4424470000000  0.5154210000000 1.0
C      1  0.5450290000000  0.5083280000000  0.5263200000000 1.0
C      1  0.5372670000000  0.4000700000000  0.5915770000000 1.0
C      1  0.6147300000000  0.4893510000000  0.5566470000000 1.0
C      1  0.4607940000000  0.4310390000000  0.4094010000000 1.0
C      1  0.6168790000000  0.5043190000000  0.4474460000000 1.0
C      1  0.4079700000000  0.5566580000000  0.5889590000000 1.0
C      1  0.4040370000000  0.5603780000000  0.5340240000000 1.0
C      1  0.4670930000000  0.5300420000000  0.4881710000000 1.0
C      1  0.6078170000000  0.4393130000000  0.5165430000000 1.0
C      1  0.4929810000000  0.5607060000000  0.4471260000000 1.0
C      1  0.4646850000000  0.4429600000000  0.4936680000000 1.0
C      1  0.5623720000000  0.6044300000000  0.5195410000000 1.0
C      1  0.4208550000000  0.5556970000000  0.4814450000000 1.0
C      1  0.5441770000000  0.4971410000000  0.5528140000000 1.0
C      1  0.4207100000000  0.4282870000000  0.4527560000000 1.0
C      1  0.4895630000000  0.3889600000000  0.5801380000000 1.0
C      1  0.6011770000000  0.5359280000000  0.4871140000000 1.0
C      1  0.4233950000000  0.4960330000000  0.3968350000000 1.0
C      1  0.6143160000000  0.4157220000000  0.4727720000000 1.0
C      1  0.5195380000000  0.5133100000000  0.6140810000000 1.0
C      1  0.4885210000000  0.6572660000000  0.5083410000000 1.0
C      1  0.5589260000000  0.4818470000000  0.6425010000000 1.0
C      1  0.5640170000000  0.4554960000000  0.5637680000000 1.0
C      1  0.5041800000000  0.3631370000000  0.4850570000000 1.0
C      1  0.5211790000000  0.5676040000000  0.5622140000000 1.0
C      1  0.4628220000000  0.6143820000000  0.4974290000000 1.0
C      1  0.5680650000000  0.5173910000000  0.4061420000000 1.0
C      1  0.4940040000000  0.5174100000000  0.4875330000000 1.0
C      1  0.3985100000000  0.4944860000000  0.4664040000000 1.0
C      1  0.3979590000000  0.4249990000000  0.4684780000000 1.0
C      1  0.5414100000000  0.6222370000000  0.4654190000000 1.0
C      1  0.5323730000000  0.5614870000000  0.4181480000000 1.0
C      1  0.5478290000000  0.4421090000000  0.6167060000000 1.0
C      1  0.3913780000000  0.5380850000000  0.5219680000000 1.0
C      1  0.5635470000000  0.5813480000000  0.4496670000000 1.0
C      1  0.4108850000000  0.5585240000000  0.5612290000000 1.0
C      1  0.4549030000000  0.5985030000000  0.4300750000000 1.0
C      1  0.4520330000000  0.4871920000000  0.4756110000000 1.0
C      1  0.6343160000000  0.4442470000000  0.5572260000000 1.0
C      1  0.5604220000000  0.5544710000000  0.5153150000000 1.0
C      1  0.5684190000000  0.4494030000000  0.4558860000000 1.0
C      1  0.5978530000000  0.4266550000000  0.4930020000000 1.0
C      1  0.5385260000000  0.6084230000000  0.5337140000000 1.0
C      1  0.5444740000000  0.3785860000000  0.5738750000000 1.0
C      1  0.4961050000000  0.6154280000000  0.4109920000000 1.0
C      1  0.5150240000000  0.3959810000000  0.4434360000000 1.0
C      1  0.4788280000000  0.6498610000000  0.5348980000000 1.0
C      1  0.5406730000000  0.3906720000000  0.4820560000000 1.0
C      1  0.4296460000000  0.5605250000000  0.6075130000000 1.0
C      1  0.4988910000000  0.4743240000000  0.4241370000000 1.0
C      1  0.5104860000000  0.4756250000000  0.5864000000000 1.0
C      1  0.5782720000000  0.5002990000000  0.6411930000000 1.0
C      1  0.5119240000000  0.4748700000000  0.4705590000000 1.0
C      1  0.6101710000000  0.4230120000000  0.4469600000000 1.0
C      1  0.5730920000000  0.6025290000000  0.4948740000000 1.0
C      1  0.4164580000000  0.6082870000000  0.5328930000000 1.0
C      1  0.4439290000000  0.4425240000000  0.5665190000000 1.0
C      1  0.5208010000000  0.5549960000000  0.5873080000000 1.0
C      1  0.4149310000000  0.4214560000000  0.5294600000000 1.0
C      1  0.5398000000000  0.4442090000000  0.4441210000000 1.0
C      1  0.5407340000000  0.3638900000000  0.5513710000000 1.0
C      1  0.4442940000000  0.5384350000000  0.4006410000000 1.0
C      1  0.4134540000000  0.5657410000000  0.4371860000000 1.0
C      1  0.4885120000000  0.4219880000000  0.4119090000000 1.0
C      1  0.5741060000000  0.4323450000000  0.5774470000000 1.0
C      1  0.5140430000000  0.5516150000000  0.5393240000000 1.0
C      1  0.5224840000000  0.5025730000000  0.3913290000000 1.0
C      1  0.5434620000000  0.5563130000000  0.3470180000000 1.0
C      1  0.4293120000000  0.5910800000000  0.4442330000000 1.0
C      1  0.5458790000000  0.4465560000000  0.5441990000000 1.0
C      1  0.4252370000000  0.6011100000000  0.4715580000000 1.0
C      1  0.4521240000000  0.4542580000000  0.4253660000000 1.0
C      1  0.3950070000000  0.4904750000000  0.4961680000000 1.0
C      1  0.3680200000000  0.5605080000000  0.6215850000000 1.0
C      1  0.5683430000000  0.4786750000000  0.4643800000000 1.0
C      1  0.5801850000000  0.5614200000000  0.4362560000000 1.0
C      1  0.4994810000000  0.4305030000000  0.6018520000000 1.0
C      1  0.4330580000000  0.4203950000000  0.5524090000000 1.0
C      1  0.4808100000000  0.4502230000000  0.5157390000000 1.0
C      1  0.4728860000000  0.4996470000000  0.3897470000000 1.0
C      1  0.4720780000000  0.4722340000000  0.4338100000000 1.0
C      1  0.4398960000000  0.4085560000000  0.4445390000000 1.0
C      1  0.4267650000000  0.4541330000000  0.4414720000000 1.0
C      1  0.5174260000000  0.5586670000000  0.4897160000000 1.0
C      1  0.5058590000000  0.6148380000000  0.5659830000000 1.0
C      1  0.5256800000000  0.5952810000000  0.5572260000000 1.0
C      1  0.5153820000000  0.6308300000000  0.4734620000000 1.0
C      1  0.5342190000000  0.4482600000000  0.3923860000000 1.0
C      1  0.5001920000000  0.4852750000000  0.5404110000000 1.0
C      1  0.5181750000000  0.4875170000000  0.5614390000000 1.0
C      1  0.5084110000000  0.4042830000000  0.5958100000000 1.0
C      1  0.5554210000000  0.4224360000000  0.5973800000000 1.0
C      1  0.4984320000000  0.4914300000000  0.4004040000000 1.0
C      1  0.5913580000000  0.5127360000000  0.6214740000000 1.0
C      1  0.5271240000000  0.3563990000000  0.5290350000000 1.0
C      1  0.5497980000000  0.4970720000000  0.3955430000000 1.0
C      1  0.4645290000000  0.4932640000000  0.4504700000000 1.0
C      1  0.4176970000000  0.5816210000000  0.4916480000000 1.0
C      1  0.4487120000000  0.5010700000000  0.5230180000000 1.0
C      1  0.3871300000000  0.5144050000000  0.5101230000000 1.0
C      1  0.4347010000000  0.3776390000000  0.5144090000000 1.0
C      1  0.5271900000000  0.5758770000000  0.3945060000000 1.0
C      1  0.4548860000000  0.5489590000000  0.6042900000000 1.0
C      1  0.6330820000000  0.4698570000000  0.5662380000000 1.0
C      1  0.6112840000000  0.4674790000000  0.5131940000000 1.0
C      1  0.5669810000000  0.4838510000000  0.5644740000000 1.0
C      1  0.4830000000000  0.3736430000000  0.5319370000000 1.0
C      1  0.5187640000000  0.4655780000000  0.4444870000000 1.0
C      1  0.4517080000000  0.5076750000000  0.4954980000000 1.0
C      1  0.5303070000000  0.4243770000000  0.5492800000000 1.0
C      1  0.6128060000000  0.4853530000000  0.4289090000000 1.0
C      1  0.4889990000000  0.5352710000000  0.5402640000000 1.0
C      1  0.5607440000000  0.4975490000000  0.4814760000000 1.0
C      1  0.5942120000000  0.4193830000000  0.5620510000000 1.0
C      1  0.5235430000000  0.4856390000000  0.6096810000000 1.0
C      1  0.5207570000000  0.3780080000000  0.4658160000000 1.0
C      1  0.6125200000000  0.5211430000000  0.4678510000000 1.0
C      1  0.5492610000000  0.4350220000000  0.4976640000000 1.0
C      1  0.5294130000000  0.5344890000000  0.4269540000000 1.0
C      1  0.4463860000000  0.3945160000000  0.5575790000000 1.0
C      1  0.5115220000000  0.6412440000000  0.4997210000000 1.0
C      1  0.4646770000000  0.4546000000000  0.5787870000000 1.0
C      1  0.4965070000000  0.3890350000000  0.5523480000000 1.0
C      1  0.4014150000000  0.5499020000000  0.4602260000000 1.0
C      1  0.5470800000000  0.4537540000000  0.5177030000000 1.0
C      1  0.5212210000000  0.5284600000000  0.4815990000000 1.0
C      1  0.5354500000000  0.5665080000000  0.3696230000000 1.0
C      1  0.3928190000000  0.5225200000000  0.4589410000000 1.0
C      1  0.5920850000000  0.4430140000000  0.4382880000000 1.0
C      1  0.4799870000000  0.5411550000000  0.6081840000000 1.0
C      1  0.5826620000000  0.4623210000000  0.3961990000000 1.0
C      1  0.4290090000000  0.5447040000000  0.4245770000000 1.0
C      1  0.4664520000000  0.5185830000000  0.5390200000000 1.0
C      1  0.5306470000000  0.4191520000000  0.4318900000000 1.0
C      1  0.4466700000000  0.5113210000000  0.3919390000000 1.0
C      1  0.5554360000000  0.4686720000000  0.3926370000000 1.0
C      1  0.5171410000000  0.4291330000000  0.4063800000000 1.0
C      1  0.5321010000000  0.5566740000000  0.5164320000000 1.0
C      1  0.6134620000000  0.4299330000000  0.5437180000000 1.0
C      1  0.4986750000000  0.4887020000000  0.4913210000000 1.0
C      1  0.4773650000000  0.5935600000000  0.5052090000000 1.0
C      1  0.4864900000000  0.4315120000000  0.5347010000000 1.0
C      1  0.3773090000000  0.5728990000000  0.6437520000000 1.0
C      1  0.4909860000000  0.4546150000000  0.5894890000000 1.0
C      1  0.6129320000000  0.4895430000000  0.5284540000000 1.0
C      1  0.4421830000000  0.6210200000000  0.4816590000000 1.0
C      1  0.5366150000000  0.5758140000000  0.4428650000000 1.0
C      1  0.5055200000000  0.4140870000000  0.5440990000000 1.0
C      1  0.4306220000000  0.6294630000000  0.5409580000000 1.0
C      1  0.4114790000000  0.5841020000000  0.5193290000000 1.0
C      1  0.5941810000000  0.5114640000000  0.5950000000000 1.0
C      1  0.4072870000000  0.4894660000000  0.4174160000000 1.0
C      1  0.5309140000000  0.4151200000000  0.4922080000000 1.0
C      1  0.4155250000000  0.3967430000000  0.5145990000000 1.0
C      1  0.4439910000000  0.5344280000000  0.4475230000000 1.0
C      1  0.5987440000000  0.4628600000000  0.4192030000000 1.0
C      1  0.3874550000000  0.4327610000000  0.4919070000000 1.0
C      1  0.5836820000000  0.5472470000000  0.5039690000000 1.0
C      1  0.5005180000000  0.6347140000000  0.5461890000000 1.0
END
