TITL C-3866673-4222-452 -1.32812569645601e-07 125000 -600.860102322554 0 0 98 (C1) n - 1
REM
REM in /home/nfs/bkarasulu/CARBON/AIRSS/Generating-Clusters/LCBOP/Only-C1/SD-CG/FIRE-CG
REM
REM
REM
REM
REM
REM ./C.cell (11c1c37f851c82e70ff6c80c92926a4b)
REM AIRSS Version 0.9.1 bugfix July 2018 build 013d7b7c2542+ Fri, 06 Jul 2018 19:26:36 +0100
REM compiler GCC version 9.2.1 20190827 (Red Hat 9.2.1-1)
REM options -cpp -mtune=generic -march=x86-64 -g -O0 -fpre-include=/usr/include/finclude/math-vector-fortran.h
REM seed 1679004584 -1815227191 -1541461677 -1040121812 -90954152 -2102578795 -1923453200 544679531 -1806944510 -426684895 -1871335484 758723729 2140950499 -1160532375 -1230231230 -1320923422 -288952684 2061362453 720042565 -669118500 -1407789492 -881986389 -1505407012 1274618507 -1196651512 653418588 -144439724 1043957139 469517848 573193036 1250028209 -1787911445 -1475566831
REM
CELL 1.54180   50.00000   50.00000   50.00000   90.00000   90.00000   90.00000
LATT -1
SFAC C  
C      1  0.4670700000000  0.5852550000000  0.5296020000000 1.0
C      1  0.5375210000000  0.5733820000000  0.4333790000000 1.0
C      1  0.4874700000000  0.4662680000000  0.5180180000000 1.0
C      1  0.5377910000000  0.5958310000000  0.5310360000000 1.0
C      1  0.5593360000000  0.5262070000000  0.4620730000000 1.0
C      1  0.4320340000000  0.4400980000000  0.5004430000000 1.0
C      1  0.5802340000000  0.4719840000000  0.4858530000000 1.0
C      1  0.6283100000000  0.5712860000000  0.5270270000000 1.0
C      1  0.4351120000000  0.5305990000000  0.4617350000000 1.0
C      1  0.5677690000000  0.5316820000000  0.5358440000000 1.0
C      1  0.5576630000000  0.5782050000000  0.5436530000000 1.0
C      1  0.4943440000000  0.4663840000000  0.3955880000000 1.0
C      1  0.5335310000000  0.5265210000000  0.4168440000000 1.0
C      1  0.5332930000000  0.4553530000000  0.5109530000000 1.0
C      1  0.4340630000000  0.4478680000000  0.4717450000000 1.0
C      1  0.5210480000000  0.4697170000000  0.5941530000000 1.0
C      1  0.5055700000000  0.5204980000000  0.4882420000000 1.0
C      1  0.4728700000000  0.4910840000000  0.5249240000000 1.0
C      1  0.4952240000000  0.5102720000000  0.5907090000000 1.0
C      1  0.5296480000000  0.4075520000000  0.5283080000000 1.0
C      1  0.5123220000000  0.3933670000000  0.5088800000000 1.0
C      1  0.4918200000000  0.4124790000000  0.4991750000000 1.0
C      1  0.4900080000000  0.5050990000000  0.5441930000000 1.0
C      1  0.4397830000000  0.4439820000000  0.4429280000000 1.0
C      1  0.5631350000000  0.4524820000000  0.4738270000000 1.0
C      1  0.4924990000000  0.4367910000000  0.5168760000000 1.0
C      1  0.4600100000000  0.5085360000000  0.5072060000000 1.0
C      1  0.4417580000000  0.5569720000000  0.5015590000000 1.0
C      1  0.5393770000000  0.4971260000000  0.5567370000000 1.0
C      1  0.4371430000000  0.4763240000000  0.4734860000000 1.0
C      1  0.5805930000000  0.4936270000000  0.5022950000000 1.0
C      1  0.5274280000000  0.5546850000000  0.4139410000000 1.0
C      1  0.4511340000000  0.5066050000000  0.5703490000000 1.0
C      1  0.5142710000000  0.5068580000000  0.4088820000000 1.0
C      1  0.5699010000000  0.3891190000000  0.5086290000000 1.0
C      1  0.4942630000000  0.5736030000000  0.4563140000000 1.0
C      1  0.4530560000000  0.4598620000000  0.4239410000000 1.0
C      1  0.5359050000000  0.4561010000000  0.4814350000000 1.0
C      1  0.4676510000000  0.5537320000000  0.4893010000000 1.0
C      1  0.5164050000000  0.4795140000000  0.5157900000000 1.0
C      1  0.4816540000000  0.4403360000000  0.4611930000000 1.0
C      1  0.4449170000000  0.5651560000000  0.5289290000000 1.0
C      1  0.3724910000000  0.4744760000000  0.4870830000000 1.0
C      1  0.4901090000000  0.4155780000000  0.4706340000000 1.0
C      1  0.4753200000000  0.5951770000000  0.5028930000000 1.0
C      1  0.4294410000000  0.5185530000000  0.5554160000000 1.0
C      1  0.4861680000000  0.5053310000000  0.4194280000000 1.0
C      1  0.5140030000000  0.4734650000000  0.4702980000000 1.0
C      1  0.5406870000000  0.4776430000000  0.5771940000000 1.0
C      1  0.5685350000000  0.5183450000000  0.5099540000000 1.0
C      1  0.5511360000000  0.5228810000000  0.5578960000000 1.0
C      1  0.5365520000000  0.6024230000000  0.5038450000000 1.0
C      1  0.4876690000000  0.5878920000000  0.5489170000000 1.0
C      1  0.4774540000000  0.5265140000000  0.4366310000000 1.0
C      1  0.4996090000000  0.5595430000000  0.4103600000000 1.0
C      1  0.4952780000000  0.4813250000000  0.5962530000000 1.0
C      1  0.4334120000000  0.5460100000000  0.5473380000000 1.0
C      1  0.4736900000000  0.4776120000000  0.4132080000000 1.0
C      1  0.5525750000000  0.5207520000000  0.4367980000000 1.0
C      1  0.4496010000000  0.4768290000000  0.5713050000000 1.0
C      1  0.5325240000000  0.5969170000000  0.4778110000000 1.0
C      1  0.5259360000000  0.5384170000000  0.4953990000000 1.0
C      1  0.5325470000000  0.3996810000000  0.4460290000000 1.0
C      1  0.4628560000000  0.5167480000000  0.4601210000000 1.0
C      1  0.5690700000000  0.4267220000000  0.4637540000000 1.0
C      1  0.4319850000000  0.4501320000000  0.5266330000000 1.0
C      1  0.4710870000000  0.4673120000000  0.5878540000000 1.0
C      1  0.5360380000000  0.5408850000000  0.5752320000000 1.0
C      1  0.3921430000000  0.4921690000000  0.5285060000000 1.0
C      1  0.5167750000000  0.4824910000000  0.3936320000000 1.0
C      1  0.4263710000000  0.5367730000000  0.4891280000000 1.0
C      1  0.5525470000000  0.5303240000000  0.4890580000000 1.0
C      1  0.4628360000000  0.4862510000000  0.4637490000000 1.0
C      1  0.5064300000000  0.4012600000000  0.4525420000000 1.0
C      1  0.5195330000000  0.5562890000000  0.5145120000000 1.0
C      1  0.5169900000000  0.5285060000000  0.5927430000000 1.0
C      1  0.6034440000000  0.5655630000000  0.5323220000000 1.0
C      1  0.5346830000000  0.5676840000000  0.5682800000000 1.0
C      1  0.5137920000000  0.4942360000000  0.4898600000000 1.0
C      1  0.3933900000000  0.4847760000000  0.5010690000000 1.0
C      1  0.4191050000000  0.4899300000000  0.4902610000000 1.0
C      1  0.4800720000000  0.5772680000000  0.4806580000000 1.0
C      1  0.4866870000000  0.4679430000000  0.4622970000000 1.0
C      1  0.5545340000000  0.3842000000000  0.4851730000000 1.0
C      1  0.4853440000000  0.5546540000000  0.4347610000000 1.0
C      1  0.5566650000000  0.3993080000000  0.5302470000000 1.0
C      1  0.5275670000000  0.3759130000000  0.4922350000000 1.0
C      1  0.5169100000000  0.4962480000000  0.5399720000000 1.0
C      1  0.4782680000000  0.5145830000000  0.5680540000000 1.0
C      1  0.4144980000000  0.4945830000000  0.5456540000000 1.0
C      1  0.5212720000000  0.4345290000000  0.5263210000000 1.0
C      1  0.5556650000000  0.4016590000000  0.4623910000000 1.0
C      1  0.5768320000000  0.5590100000000  0.5371820000000 1.0
C      1  0.4764770000000  0.5254350000000  0.4871660000000 1.0
C      1  0.4318470000000  0.5118120000000  0.5021850000000 1.0
C      1  0.5220150000000  0.5829300000000  0.4555500000000 1.0
C      1  0.4311340000000  0.4693690000000  0.5489900000000 1.0
C      1  0.5154720000000  0.5887400000000  0.5512240000000 1.0
END
