TITL C-3866670-4165-82 -0.0104371751227783 125000 -641.443438773786 0 0 106 (C1) n - 1
REM
REM in /home/nfs/bkarasulu/CARBON/AIRSS/Generating-Clusters/LCBOP/Only-C1/SD-CG/HFTN-CG/FIRE-CG
REM
REM
REM
REM
REM
REM ./C.cell (11c1c37f851c82e70ff6c80c92926a4b)
REM AIRSS Version 0.9.1 bugfix July 2018 build 013d7b7c2542+ Fri, 06 Jul 2018 19:26:36 +0100
REM compiler GCC version 9.2.1 20190827 (Red Hat 9.2.1-1)
REM options -cpp -mtune=generic -march=x86-64 -g -O0 -fpre-include=/usr/include/finclude/math-vector-fortran.h
REM seed 1572197269 -1508889374 857582454 -1431495087 -157769904 -808290855 -1876840278 -1689273407 -776197402 -1359012373 -1191218418 616583761 601285457 -370176444 -992811049 1121901103 1725334354 331285680 -340869861 1782356037 1220675591 1654823314 2090320019 -280904061 -335558967 164740357 1592053474 -1564380800 424653383 -1765427658 -1572241714 162722516 -1649107831
REM
CELL 1.54180   50.00000   50.00000   50.00000   90.00000   90.00000   90.00000
LATT -1
SFAC C  
C      1  0.4936090000000  0.4612630000000  0.4091670000000 1.0
C      1  0.4325570000000  0.4579960000000  0.5044170000000 1.0
C      1  0.4972390000000  0.4899500000000  0.4842520000000 1.0
C      1  0.5457490000000  0.4332920000000  0.5474450000000 1.0
C      1  0.4985560000000  0.5001060000000  0.5895230000000 1.0
C      1  0.4595630000000  0.4611970000000  0.5109610000000 1.0
C      1  0.5092110000000  0.4871580000000  0.6110260000000 1.0
C      1  0.5119440000000  0.4661440000000  0.4915430000000 1.0
C      1  0.5189610000000  0.5253460000000  0.4189210000000 1.0
C      1  0.5550430000000  0.4738480000000  0.4745880000000 1.0
C      1  0.4169790000000  0.4557650000000  0.5280410000000 1.0
C      1  0.4987250000000  0.4253630000000  0.5143610000000 1.0
C      1  0.4692000000000  0.5230730000000  0.5340390000000 1.0
C      1  0.4319100000000  0.4884720000000  0.5924140000000 1.0
C      1  0.5367840000000  0.4795500000000  0.5457010000000 1.0
C      1  0.5835900000000  0.5165750000000  0.4519390000000 1.0
C      1  0.4109110000000  0.4819030000000  0.4661100000000 1.0
C      1  0.4277140000000  0.4614180000000  0.4763960000000 1.0
C      1  0.4000200000000  0.5310060000000  0.5229560000000 1.0
C      1  0.5492150000000  0.4991090000000  0.5610290000000 1.0
C      1  0.4293030000000  0.5460160000000  0.5644580000000 1.0
C      1  0.5185630000000  0.5686510000000  0.4013440000000 1.0
C      1  0.5045190000000  0.5442790000000  0.4044250000000 1.0
C      1  0.5311440000000  0.4586390000000  0.4722090000000 1.0
C      1  0.5432000000000  0.5257980000000  0.5534340000000 1.0
C      1  0.5923550000000  0.5345550000000  0.4727980000000 1.0
C      1  0.4719710000000  0.5775900000000  0.4410890000000 1.0
C      1  0.4220910000000  0.5252490000000  0.4488780000000 1.0
C      1  0.4865600000000  0.5615500000000  0.5593770000000 1.0
C      1  0.5128660000000  0.4495410000000  0.5144700000000 1.0
C      1  0.5667260000000  0.5822120000000  0.4584970000000 1.0
C      1  0.5053140000000  0.4246580000000  0.5774590000000 1.0
C      1  0.5670970000000  0.4931740000000  0.5814780000000 1.0
C      1  0.4491000000000  0.5365980000000  0.5828750000000 1.0
C      1  0.4636760000000  0.5522140000000  0.4301030000000 1.0
C      1  0.5018970000000  0.5278720000000  0.5856370000000 1.0
C      1  0.4642990000000  0.3863680000000  0.5054690000000 1.0
C      1  0.4681270000000  0.4628240000000  0.5757070000000 1.0
C      1  0.4033760000000  0.3408440000000  0.4838870000000 1.0
C      1  0.5368560000000  0.4822760000000  0.4134370000000 1.0
C      1  0.4825970000000  0.4872490000000  0.5699930000000 1.0
C      1  0.4597730000000  0.5675210000000  0.4973580000000 1.0
C      1  0.4609830000000  0.5380390000000  0.3832220000000 1.0
C      1  0.5225780000000  0.4502630000000  0.4464930000000 1.0
C      1  0.5421540000000  0.4576280000000  0.4267400000000 1.0
C      1  0.4441300000000  0.3705620000000  0.4987230000000 1.0
C      1  0.4946570000000  0.4524650000000  0.4366440000000 1.0
C      1  0.5543200000000  0.5138530000000  0.4510790000000 1.0
C      1  0.5230620000000  0.5830280000000  0.4253500000000 1.0
C      1  0.4423940000000  0.5453130000000  0.4993990000000 1.0
C      1  0.4770230000000  0.5441450000000  0.5811430000000 1.0
C      1  0.6003360000000  0.5368850000000  0.5210860000000 1.0
C      1  0.4850470000000  0.5600300000000  0.5084820000000 1.0
C      1  0.5386670000000  0.5074710000000  0.4275620000000 1.0
C      1  0.4089120000000  0.5091800000000  0.4281930000000 1.0
C      1  0.4405090000000  0.5135880000000  0.5970320000000 1.0
C      1  0.6001830000000  0.4714870000000  0.5153160000000 1.0
C      1  0.4748950000000  0.4773190000000  0.5250830000000 1.0
C      1  0.6071190000000  0.4939360000000  0.5021760000000 1.0
C      1  0.5529720000000  0.5323040000000  0.5269750000000 1.0
C      1  0.5017950000000  0.5435510000000  0.4926810000000 1.0
C      1  0.5037410000000  0.5168310000000  0.4898890000000 1.0
C      1  0.4010030000000  0.5208280000000  0.4979690000000 1.0
C      1  0.4518590000000  0.5916760000000  0.4855450000000 1.0
C      1  0.5732070000000  0.5699860000000  0.5036820000000 1.0
C      1  0.5650910000000  0.6054620000000  0.4760570000000 1.0
C      1  0.4106150000000  0.5410860000000  0.5456360000000 1.0
C      1  0.5127640000000  0.4774830000000  0.3980210000000 1.0
C      1  0.5298670000000  0.4206330000000  0.5670910000000 1.0
C      1  0.5752750000000  0.5500160000000  0.5233040000000 1.0
C      1  0.4031280000000  0.4838870000000  0.4380830000000 1.0
C      1  0.4407210000000  0.4249840000000  0.4464840000000 1.0
C      1  0.5805140000000  0.4695130000000  0.4622420000000 1.0
C      1  0.4828020000000  0.4391370000000  0.5792840000000 1.0
C      1  0.4548030000000  0.5921630000000  0.4577120000000 1.0
C      1  0.5319750000000  0.4546620000000  0.5346350000000 1.0
C      1  0.5477530000000  0.5157180000000  0.5036370000000 1.0
C      1  0.4395700000000  0.4667810000000  0.5758020000000 1.0
C      1  0.5491760000000  0.5024700000000  0.4782870000000 1.0
C      1  0.5786160000000  0.5603900000000  0.4755440000000 1.0
C      1  0.4125060000000  0.5108400000000  0.4741300000000 1.0
C      1  0.4229460000000  0.4580320000000  0.5544530000000 1.0
C      1  0.4499350000000  0.5313480000000  0.4447750000000 1.0
C      1  0.4235980000000  0.3555360000000  0.4912940000000 1.0
C      1  0.4759760000000  0.5445610000000  0.4051120000000 1.0
C      1  0.6041460000000  0.5217390000000  0.4971030000000 1.0
C      1  0.5878010000000  0.4514950000000  0.5282650000000 1.0
C      1  0.5148320000000  0.5660490000000  0.5633940000000 1.0
C      1  0.4422100000000  0.6127490000000  0.4998310000000 1.0
C      1  0.5736190000000  0.4307860000000  0.5416570000000 1.0
C      1  0.4471130000000  0.4488920000000  0.4583650000000 1.0
C      1  0.4987440000000  0.5870810000000  0.4392110000000 1.0
C      1  0.4726840000000  0.4611740000000  0.4532810000000 1.0
C      1  0.4830640000000  0.4042930000000  0.5108210000000 1.0
C      1  0.5252860000000  0.5398980000000  0.5707590000000 1.0
C      1  0.5995850000000  0.3858030000000  0.5564160000000 1.0
C      1  0.4665780000000  0.5100620000000  0.4528720000000 1.0
C      1  0.4771980000000  0.4870260000000  0.4642890000000 1.0
C      1  0.5872320000000  0.4075670000000  0.5491420000000 1.0
C      1  0.5673440000000  0.5978270000000  0.5024080000000 1.0
C      1  0.5840270000000  0.4858910000000  0.5998990000000 1.0
C      1  0.5484340000000  0.5817470000000  0.4373570000000 1.0
C      1  0.4813790000000  0.5493750000000  0.5346840000000 1.0
C      1  0.4777370000000  0.4977720000000  0.5438350000000 1.0
C      1  0.5946910000000  0.4900160000000  0.4504900000000 1.0
C      1  0.4482320000000  0.5234740000000  0.5146660000000 1.0
END
