TITL C-3866674-3872-608 -0.0403567165664292 125000 -155.556393218805 0 0 28 (C1) n - 1
REM
REM in /home/nfs/bkarasulu/CARBON/AIRSS/Generating-Clusters/LCBOP/Only-C1/SD-CG/FIRE-CG
REM
REM
REM
REM
REM
REM ./C.cell (11c1c37f851c82e70ff6c80c92926a4b)
REM AIRSS Version 0.9.1 bugfix July 2018 build 013d7b7c2542+ Fri, 06 Jul 2018 19:26:36 +0100
REM compiler GCC version 9.2.1 20190827 (Red Hat 9.2.1-1)
REM options -cpp -mtune=generic -march=x86-64 -g -O0 -fpre-include=/usr/include/finclude/math-vector-fortran.h
REM seed -1086657673 1277638243 1361962937 -473743111 2106981038 1483162256 120666144 -1191388668 -40526138 -1054439192 -508727476 71892571 -761680311 468518403 -1512501447 -592135541 -1699448286 -75474094 -1015195603 -65326094 -394099789 -778564168 -1866926325 -2066670757 -879685520 -358700178 -1817582987 165177898 611009773 1919204299 -125513263 900911121 900731436
REM
CELL 1.54180   50.00000   50.00000   50.00000   90.00000   90.00000   90.00000
LATT -1
SFAC C  
C      1  0.4808490000000  0.6016780000000  0.5372780000000 1.0
C      1  0.5450800000000  0.5055010000000  0.5476260000000 1.0
C      1  0.5676500000000  0.5172560000000  0.5532770000000 1.0
C      1  0.5164960000000  0.4520430000000  0.4636170000000 1.0
C      1  0.5526620000000  0.4659280000000  0.4345920000000 1.0
C      1  0.5704600000000  0.4602730000000  0.4164140000000 1.0
C      1  0.4595020000000  0.4086490000000  0.4506710000000 1.0
C      1  0.5258870000000  0.5210800000000  0.4757320000000 1.0
C      1  0.4411210000000  0.3950680000000  0.4381290000000 1.0
C      1  0.5335790000000  0.4719560000000  0.4540650000000 1.0
C      1  0.4977300000000  0.4366460000000  0.4774100000000 1.0
C      1  0.5106870000000  0.5649550000000  0.5328550000000 1.0
C      1  0.5314740000000  0.4979430000000  0.4641050000000 1.0
C      1  0.4984100000000  0.4358560000000  0.5058270000000 1.0
C      1  0.4749290000000  0.5019150000000  0.5315580000000 1.0
C      1  0.4207820000000  0.5594320000000  0.5316010000000 1.0
C      1  0.4751900000000  0.6001060000000  0.5105810000000 1.0
C      1  0.4379500000000  0.5398150000000  0.5316010000000 1.0
C      1  0.4556950000000  0.5201270000000  0.5316210000000 1.0
C      1  0.5173880000000  0.5422540000000  0.4891890000000 1.0
C      1  0.4986070000000  0.5840270000000  0.5482460000000 1.0
C      1  0.4974490000000  0.4854150000000  0.5309320000000 1.0
C      1  0.5019660000000  0.4121220000000  0.5189570000000 1.0
C      1  0.4870050000000  0.5811280000000  0.4948670000000 1.0
C      1  0.4781700000000  0.4224140000000  0.4634750000000 1.0
C      1  0.5057010000000  0.5619140000000  0.5048510000000 1.0
C      1  0.4957470000000  0.4597630000000  0.5200590000000 1.0
C      1  0.5218360000000  0.4947340000000  0.5408650000000 1.0
END
