TITL C-3866673-4222-659 1432.39220676656 125000 -1091.51947345848 0 0 178 (C1) n - 1
REM
REM in /home/nfs/bkarasulu/CARBON/AIRSS/Generating-Clusters/LCBOP/Only-C1/SD-CG/FIRE-CG
REM
REM
REM
REM
REM
REM ./C.cell (11c1c37f851c82e70ff6c80c92926a4b)
REM AIRSS Version 0.9.1 bugfix July 2018 build 013d7b7c2542+ Fri, 06 Jul 2018 19:26:36 +0100
REM compiler GCC version 9.2.1 20190827 (Red Hat 9.2.1-1)
REM options -cpp -mtune=generic -march=x86-64 -g -O0 -fpre-include=/usr/include/finclude/math-vector-fortran.h
REM seed 2053831342 -176435974 -587050046 -700117057 -1787730578 -320101906 -726913729 -2137026952 -872952608 96542626 -1626398540 -497097012 821163796 898478242 -81924230 2143049394 501292 -308509295 -129422386 -272681346 300435319 -776869312 63951949 906309612 -585763640 1863623342 930918249 -852464651 1526549998 -2088241362 -1016269815 -1786992307 -625831872
REM
CELL 1.54180   50.00000   50.00000   50.00000   90.00000   90.00000   90.00000
LATT -1
SFAC C  
C      1  0.4785600000000  0.5548810000000  0.5425240000000 1.0
C      1  0.5415170000000  0.5224460000000  0.4784250000000 1.0
C      1  0.5534260000000  0.4582670000000  0.5583570000000 1.0
C      1  0.5957100000000  0.4749400000000  0.6163420000000 1.0
C      1  0.5744290000000  0.4775520000000  0.5520970000000 1.0
C      1  0.5524010000000  0.5829620000000  0.5039500000000 1.0
C      1  0.5785010000000  0.4884960000000  0.4790080000000 1.0
C      1  0.4056590000000  0.4139600000000  0.5206880000000 1.0
C      1  0.6138170000000  0.5219560000000  0.4753680000000 1.0
C      1  0.5207310000000  0.5996890000000  0.5565330000000 1.0
C      1  0.5293610000000  0.6192590000000  0.4931570000000 1.0
C      1  0.4863820000000  0.3735650000000  0.5124170000000 1.0
C      1  0.4955200000000  0.4670500000000  0.3933140000000 1.0
C      1  0.5395020000000  0.6142800000000  0.4654820000000 1.0
C      1  0.5505430000000  0.5794360000000  0.5866890000000 1.0
C      1  0.5145040000000  0.4251390000000  0.4586830000000 1.0
C      1  0.6058800000000  0.4983620000000  0.5203180000000 1.0
C      1  0.5861420000000  0.5257880000000  0.5570370000000 1.0
C      1  0.4998230000000  0.6141950000000  0.4912150000000 1.0
C      1  0.5159200000000  0.5514460000000  0.5106910000000 1.0
C      1  0.4309910000000  0.5656390000000  0.4600390000000 1.0
C      1  0.5636680000000  0.4337870000000  0.5692870000000 1.0
C      1  0.3544030000000  0.5254850000000  0.4303750000000 1.0
C      1  0.5767050000000  0.4585950000000  0.4762100000000 1.0
C      1  0.4640750000000  0.4126770000000  0.4498410000000 1.0
C      1  0.5139870000000  0.5438370000000  0.6112110000000 1.0
C      1  0.4085660000000  0.5538880000000  0.5066660000000 1.0
C      1  0.4069620000000  0.4731910000000  0.5648000000000 1.0
C      1  0.4751030000000  0.5763600000000  0.4237630000000 1.0
C      1  0.4766730000000  0.5040650000000  0.5827600000000 1.0
C      1  0.4124180000000  0.5559220000000  0.4787330000000 1.0
C      1  0.5389930000000  0.5513640000000  0.6226710000000 1.0
C      1  0.3593930000000  0.5483850000000  0.4177190000000 1.0
C      1  0.4137380000000  0.4764640000000  0.5927680000000 1.0
C      1  0.3647760000000  0.5055460000000  0.4445680000000 1.0
C      1  0.5952380000000  0.5275470000000  0.6138240000000 1.0
C      1  0.5473860000000  0.5039130000000  0.5876720000000 1.0
C      1  0.5599430000000  0.5624950000000  0.6075870000000 1.0
C      1  0.4914070000000  0.5409800000000  0.5208300000000 1.0
C      1  0.4937040000000  0.5254180000000  0.3518630000000 1.0
C      1  0.5035330000000  0.5483890000000  0.4637220000000 1.0
C      1  0.5774120000000  0.4355610000000  0.5935970000000 1.0
C      1  0.5124880000000  0.4290660000000  0.4319610000000 1.0
C      1  0.4073290000000  0.4591420000000  0.4844500000000 1.0
C      1  0.4046260000000  0.5710050000000  0.4179250000000 1.0
C      1  0.5180430000000  0.3821330000000  0.5869710000000 1.0
C      1  0.5847030000000  0.5467380000000  0.5102460000000 1.0
C      1  0.4577990000000  0.4770120000000  0.5146160000000 1.0
C      1  0.4356760000000  0.4120520000000  0.5798430000000 1.0
C      1  0.5096670000000  0.5297980000000  0.4190030000000 1.0
C      1  0.5596020000000  0.4766150000000  0.3671110000000 1.0
C      1  0.4910970000000  0.5188500000000  0.5646740000000 1.0
C      1  0.5934760000000  0.4991400000000  0.5461390000000 1.0
C      1  0.5615050000000  0.4108630000000  0.5533390000000 1.0
C      1  0.5471550000000  0.4932220000000  0.3858280000000 1.0
C      1  0.4418430000000  0.5853220000000  0.5278810000000 1.0
C      1  0.4726250000000  0.5898030000000  0.4509790000000 1.0
C      1  0.4997070000000  0.4506910000000  0.5040270000000 1.0
C      1  0.4580210000000  0.6048900000000  0.5162110000000 1.0
C      1  0.6025160000000  0.5013930000000  0.4922000000000 1.0
C      1  0.5696170000000  0.5590130000000  0.4222460000000 1.0
C      1  0.4332460000000  0.4382470000000  0.4093670000000 1.0
C      1  0.5365500000000  0.3870080000000  0.5138350000000 1.0
C      1  0.5778500000000  0.5013810000000  0.4231050000000 1.0
C      1  0.4924040000000  0.4956190000000  0.6044860000000 1.0
C      1  0.4662830000000  0.5203800000000  0.4708300000000 1.0
C      1  0.4238230000000  0.4509550000000  0.6018330000000 1.0
C      1  0.4077120000000  0.5293580000000  0.5212980000000 1.0
C      1  0.4890960000000  0.3579190000000  0.5572350000000 1.0
C      1  0.5604790000000  0.5430200000000  0.5247480000000 1.0
C      1  0.4505160000000  0.4978590000000  0.4204170000000 1.0
C      1  0.5923750000000  0.5517390000000  0.4385400000000 1.0
C      1  0.4466870000000  0.3963690000000  0.4946290000000 1.0
C      1  0.4694200000000  0.4128110000000  0.5363490000000 1.0
C      1  0.6002180000000  0.4309590000000  0.6359830000000 1.0
C      1  0.5198630000000  0.5399620000000  0.4857250000000 1.0
C      1  0.4719400000000  0.4583380000000  0.4990450000000 1.0
C      1  0.4081720000000  0.4771510000000  0.4605760000000 1.0
C      1  0.5401760000000  0.4686920000000  0.4433580000000 1.0
C      1  0.4987240000000  0.3823420000000  0.5675510000000 1.0
C      1  0.4597340000000  0.4233930000000  0.5913030000000 1.0
C      1  0.5163090000000  0.4906320000000  0.3900450000000 1.0
C      1  0.4902040000000  0.5137730000000  0.5082630000000 1.0
C      1  0.5109660000000  0.4332490000000  0.4842180000000 1.0
C      1  0.4135680000000  0.4307930000000  0.5808890000000 1.0
C      1  0.5692570000000  0.5802410000000  0.4812330000000 1.0
C      1  0.5445390000000  0.5303320000000  0.4511540000000 1.0
C      1  0.5517780000000  0.4986600000000  0.4905370000000 1.0
C      1  0.5580830000000  0.4528320000000  0.4556850000000 1.0
C      1  0.5453870000000  0.6080480000000  0.5150300000000 1.0
C      1  0.5201190000000  0.5424440000000  0.4411600000000 1.0
C      1  0.5674340000000  0.5806360000000  0.5635900000000 1.0
C      1  0.4538810000000  0.5679960000000  0.5466090000000 1.0
C      1  0.4243120000000  0.4135230000000  0.4994090000000 1.0
C      1  0.5049430000000  0.5076590000000  0.3679680000000 1.0
C      1  0.5141340000000  0.5023650000000  0.4175020000000 1.0
C      1  0.5042600000000  0.5177160000000  0.6175470000000 1.0
C      1  0.4198840000000  0.5274280000000  0.6029210000000 1.0
C      1  0.5884050000000  0.5601190000000  0.4853470000000 1.0
C      1  0.5824250000000  0.4402900000000  0.3360320000000 1.0
C      1  0.4293790000000  0.4777040000000  0.4395360000000 1.0
C      1  0.5530040000000  0.3967440000000  0.5324020000000 1.0
C      1  0.4529100000000  0.5558800000000  0.4192450000000 1.0
C      1  0.5525500000000  0.5808100000000  0.4321860000000 1.0
C      1  0.4274550000000  0.4388860000000  0.4863690000000 1.0
C      1  0.5367220000000  0.4824600000000  0.5092440000000 1.0
C      1  0.4248250000000  0.4837470000000  0.5458780000000 1.0
C      1  0.5594170000000  0.5938100000000  0.4584310000000 1.0
C      1  0.5588040000000  0.5273770000000  0.5474320000000 1.0
C      1  0.4854620000000  0.6109720000000  0.5157530000000 1.0
C      1  0.4398710000000  0.5628510000000  0.5704950000000 1.0
C      1  0.4001010000000  0.4451360000000  0.5587500000000 1.0
C      1  0.5409450000000  0.5612370000000  0.5177020000000 1.0
C      1  0.5192950000000  0.4874450000000  0.4412910000000 1.0
C      1  0.5060850000000  0.5596170000000  0.5873280000000 1.0
C      1  0.5145780000000  0.5087660000000  0.5539170000000 1.0
C      1  0.4588160000000  0.5695600000000  0.4664400000000 1.0
C      1  0.5127170000000  0.3793950000000  0.5044300000000 1.0
C      1  0.4610550000000  0.4425760000000  0.4517470000000 1.0
C      1  0.5471800000000  0.6025750000000  0.5437410000000 1.0
C      1  0.4469230000000  0.4650620000000  0.5383640000000 1.0
C      1  0.4925020000000  0.6068530000000  0.4628910000000 1.0
C      1  0.5627750000000  0.5123310000000  0.4018270000000 1.0
C      1  0.5982990000000  0.5013950000000  0.6181570000000 1.0
C      1  0.3790880000000  0.5656400000000  0.4127790000000 1.0
C      1  0.4160940000000  0.5775440000000  0.5201240000000 1.0
C      1  0.4217290000000  0.5054240000000  0.5265210000000 1.0
C      1  0.5571410000000  0.5530180000000  0.3754440000000 1.0
C      1  0.4409640000000  0.4985720000000  0.5060950000000 1.0
C      1  0.4703000000000  0.4824930000000  0.4065820000000 1.0
C      1  0.4835480000000  0.3527770000000  0.5313580000000 1.0
C      1  0.5182960000000  0.4638990000000  0.5229140000000 1.0
C      1  0.4739260000000  0.4562940000000  0.6206920000000 1.0
C      1  0.4279940000000  0.5649890000000  0.4315890000000 1.0
C      1  0.3913060000000  0.4580420000000  0.5089840000000 1.0
C      1  0.4406790000000  0.4345040000000  0.3839360000000 1.0
C      1  0.3951390000000  0.4386340000000  0.5309900000000 1.0
C      1  0.4820670000000  0.4632130000000  0.4508480000000 1.0
C      1  0.5063980000000  0.4443930000000  0.4105940000000 1.0
C      1  0.4753690000000  0.5466000000000  0.4673080000000 1.0
C      1  0.4668160000000  0.3943480000000  0.5145460000000 1.0
C      1  0.4541400000000  0.4373730000000  0.5402160000000 1.0
C      1  0.4540120000000  0.4456260000000  0.4806430000000 1.0
C      1  0.4975790000000  0.4850670000000  0.4599120000000 1.0
C      1  0.5910680000000  0.4472410000000  0.6151760000000 1.0
C      1  0.5709260000000  0.4588250000000  0.3510910000000 1.0
C      1  0.4148210000000  0.5013920000000  0.6047840000000 1.0
C      1  0.4389920000000  0.4514240000000  0.4334410000000 1.0
C      1  0.6014260000000  0.5456080000000  0.4648730000000 1.0
C      1  0.5020410000000  0.4514430000000  0.5793090000000 1.0
C      1  0.4905870000000  0.5470530000000  0.5671420000000 1.0
C      1  0.5938410000000  0.4218480000000  0.3215680000000 1.0
C      1  0.6086300000000  0.4157850000000  0.6554310000000 1.0
C      1  0.4831890000000  0.4551170000000  0.3684910000000 1.0
C      1  0.4284520000000  0.5490710000000  0.5901070000000 1.0
C      1  0.4948680000000  0.4674320000000  0.6042000000000 1.0
C      1  0.4822100000000  0.5440100000000  0.3376600000000 1.0
C      1  0.4991620000000  0.6086940000000  0.5407450000000 1.0
C      1  0.5171830000000  0.6093920000000  0.4474500000000 1.0
C      1  0.5239110000000  0.4585070000000  0.5526810000000 1.0
C      1  0.4512190000000  0.4441310000000  0.6096620000000 1.0
C      1  0.5904900000000  0.4406280000000  0.4911620000000 1.0
C      1  0.5404500000000  0.5131700000000  0.5627710000000 1.0
C      1  0.3846770000000  0.4918090000000  0.4554470000000 1.0
C      1  0.4878610000000  0.4071410000000  0.5579990000000 1.0
C      1  0.5245370000000  0.5905960000000  0.4261160000000 1.0
C      1  0.4553560000000  0.3940290000000  0.4675580000000 1.0
C      1  0.5629000000000  0.5414660000000  0.3997520000000 1.0
C      1  0.5883450000000  0.5516580000000  0.5711550000000 1.0
C      1  0.5014040000000  0.5803080000000  0.4125590000000 1.0
C      1  0.5225990000000  0.5822320000000  0.5796460000000 1.0
C      1  0.5821230000000  0.4965270000000  0.4489420000000 1.0
C      1  0.4878160000000  0.5033800000000  0.4801810000000 1.0
C      1  0.4421760000000  0.5121970000000  0.4818430000000 1.0
C      1  0.4852680000000  0.4271110000000  0.5779650000000 1.0
C      1  0.4601340000000  0.4412150000000  0.3667120000000 1.0
C      1  0.4528950000000  0.5266590000000  0.4170970000000 1.0
C      1  0.5841290000000  0.5490990000000  0.5998530000000 1.0
END
