TITL C-3866672-3872-417 1.31842108082899 125000 -301.595208232475 0 0 51 (C1) n - 1
REM
REM in /home/nfs/bkarasulu/CARBON/AIRSS/Generating-Clusters/LCBOP/Only-C1/SD-CG/FIRE-CG
REM
REM
REM
REM
REM
REM ./C.cell (11c1c37f851c82e70ff6c80c92926a4b)
REM AIRSS Version 0.9.1 bugfix July 2018 build 013d7b7c2542+ Fri, 06 Jul 2018 19:26:36 +0100
REM compiler GCC version 9.2.1 20190827 (Red Hat 9.2.1-1)
REM options -cpp -mtune=generic -march=x86-64 -g -O0 -fpre-include=/usr/include/finclude/math-vector-fortran.h
REM seed -242070916 -344181824 768653176 1449129195 -1098313372 1996182851 141479418 -2040550553 -1040856835 -836793209 930502327 1799511366 -1883053562 1237238583 847541108 -2127586184 -1884041948 -176513260 1592392638 -1433397309 571944060 -591472263 -1521502723 240597881 1739475060 715681213 -1413040259 -1948377529 -1582470302 -1612453238 -202518897 -1265135239 -1035991909
REM
CELL 1.54180   50.00000   50.00000   50.00000   90.00000   90.00000   90.00000
LATT -1
SFAC C  
C      1  0.4008440000000  0.5085610000000  0.5600350000000 1.0
C      1  0.5485630000000  0.4804280000000  0.4574670000000 1.0
C      1  0.4382380000000  0.5492750000000  0.5468280000000 1.0
C      1  0.4910400000000  0.5725230000000  0.5171610000000 1.0
C      1  0.6117960000000  0.4905400000000  0.4137660000000 1.0
C      1  0.3821180000000  0.5901610000000  0.5716320000000 1.0
C      1  0.5381010000000  0.4137280000000  0.4942080000000 1.0
C      1  0.4366750000000  0.5258920000000  0.5298440000000 1.0
C      1  0.5897170000000  0.4554380000000  0.4600590000000 1.0
C      1  0.5488410000000  0.5354130000000  0.4888030000000 1.0
C      1  0.5892640000000  0.4863920000000  0.3996470000000 1.0
C      1  0.5264480000000  0.3941060000000  0.5068050000000 1.0
C      1  0.5474860000000  0.4818960000000  0.4272760000000 1.0
C      1  0.4237840000000  0.5951330000000  0.5428300000000 1.0
C      1  0.6302420000000  0.5169400000000  0.4513210000000 1.0
C      1  0.5391340000000  0.4038570000000  0.4233420000000 1.0
C      1  0.4524670000000  0.5206670000000  0.5068700000000 1.0
C      1  0.6036310000000  0.4331670000000  0.4497460000000 1.0
C      1  0.5963550000000  0.4833880000000  0.4585610000000 1.0
C      1  0.3811170000000  0.5420640000000  0.5919990000000 1.0
C      1  0.5959830000000  0.5396270000000  0.4773100000000 1.0
C      1  0.4957200000000  0.4265100000000  0.4404760000000 1.0
C      1  0.4795030000000  0.5279810000000  0.5061000000000 1.0
C      1  0.5488340000000  0.4333780000000  0.4800490000000 1.0
C      1  0.3746120000000  0.5686700000000  0.5855810000000 1.0
C      1  0.4438880000000  0.5759920000000  0.5386170000000 1.0
C      1  0.4690240000000  0.5825160000000  0.5284180000000 1.0
C      1  0.4987950000000  0.4701160000000  0.4666090000000 1.0
C      1  0.6160130000000  0.4948250000000  0.4413060000000 1.0
C      1  0.4893220000000  0.4480390000000  0.4548800000000 1.0
C      1  0.5141220000000  0.4111000000000  0.4289060000000 1.0
C      1  0.4007390000000  0.6001690000000  0.5553290000000 1.0
C      1  0.3671620000000  0.5278380000000  0.6114190000000 1.0
C      1  0.5722300000000  0.4992610000000  0.4653720000000 1.0
C      1  0.5656640000000  0.4052160000000  0.4251570000000 1.0
C      1  0.6206060000000  0.5366960000000  0.4669300000000 1.0
C      1  0.3540430000000  0.5138470000000  0.6296870000000 1.0
C      1  0.4993870000000  0.5477270000000  0.5070420000000 1.0
C      1  0.5632820000000  0.4834170000000  0.4056930000000 1.0
C      1  0.5886850000000  0.4150180000000  0.4342790000000 1.0
C      1  0.5719260000000  0.5248820000000  0.4773150000000 1.0
C      1  0.5613130000000  0.4535470000000  0.4657670000000 1.0
C      1  0.5254120000000  0.5430460000000  0.4984930000000 1.0
C      1  0.4168850000000  0.5069920000000  0.5381320000000 1.0
C      1  0.4411190000000  0.5087920000000  0.4849350000000 1.0
C      1  0.4261940000000  0.5458870000000  0.5725370000000 1.0
C      1  0.5218010000000  0.4837410000000  0.4691160000000 1.0
C      1  0.3409300000000  0.4998020000000  0.6479450000000 1.0
C      1  0.3280320000000  0.4859870000000  0.6659020000000 1.0
C      1  0.4027410000000  0.5306080000000  0.5777870000000 1.0
C      1  0.6301720000000  0.4292040000000  0.4547110000000 1.0
END
