TITL C-3866672-3872-35 0.330908664371809 125000 -364.979699584686 0 0 61 (C1) n - 1
REM
REM in /home/nfs/bkarasulu/CARBON/AIRSS/Generating-Clusters/LCBOP/Only-C1/SD-CG/HFTN-CG/FIRE-CG
REM
REM
REM
REM
REM
REM ./C.cell (11c1c37f851c82e70ff6c80c92926a4b)
REM AIRSS Version 0.9.1 bugfix July 2018 build 013d7b7c2542+ Fri, 06 Jul 2018 19:26:36 +0100
REM compiler GCC version 9.2.1 20190827 (Red Hat 9.2.1-1)
REM options -cpp -mtune=generic -march=x86-64 -g -O0 -fpre-include=/usr/include/finclude/math-vector-fortran.h
REM seed -858688484 -485633534 1576701988 -1345006698 -1837417836 -1998328620 1098511441 -983892737 1583310520 1762806072 1177351724 -1084062969 1834379568 -784099036 1061702871 -1654331307 1480323279 -1442356143 641104984 -1974900057 1896152367 551016078 -1517451644 -2134662609 -986480521 -453240734 -303957284 1856506820 -378309229 -1727705144 109201478 1976873839 573290365
REM
CELL 1.54180   50.00000   50.00000   50.00000   90.00000   90.00000   90.00000
LATT -1
SFAC C  
C      1  0.5701500000000  0.6309670000000  0.4410650000000 1.0
C      1  0.5152450000000  0.5304060000000  0.4315420000000 1.0
C      1  0.5503910000000  0.6004970000000  0.4790640000000 1.0
C      1  0.4525170000000  0.4443120000000  0.5035600000000 1.0
C      1  0.4893340000000  0.5502690000000  0.4688940000000 1.0
C      1  0.4941510000000  0.5453120000000  0.5420330000000 1.0
C      1  0.4954330000000  0.5086690000000  0.4333800000000 1.0
C      1  0.4692000000000  0.5147070000000  0.4424190000000 1.0
C      1  0.5023850000000  0.4201960000000  0.4709910000000 1.0
C      1  0.5053320000000  0.4987870000000  0.5984650000000 1.0
C      1  0.4365220000000  0.4930240000000  0.5267590000000 1.0
C      1  0.5432940000000  0.4420500000000  0.4446660000000 1.0
C      1  0.5404430000000  0.5169380000000  0.4269100000000 1.0
C      1  0.5100310000000  0.4842860000000  0.4366470000000 1.0
C      1  0.4669500000000  0.4586080000000  0.5484830000000 1.0
C      1  0.4175360000000  0.4736560000000  0.5185610000000 1.0
C      1  0.4794070000000  0.4484530000000  0.5719990000000 1.0
C      1  0.4656060000000  0.4489990000000  0.4792250000000 1.0
C      1  0.4251350000000  0.4922930000000  0.4201650000000 1.0
C      1  0.5077530000000  0.5524270000000  0.4472380000000 1.0
C      1  0.5545740000000  0.5680200000000  0.5148560000000 1.0
C      1  0.4931380000000  0.5589200000000  0.5642520000000 1.0
C      1  0.4541020000000  0.4845650000000  0.5480940000000 1.0
C      1  0.5225780000000  0.4727610000000  0.5105040000000 1.0
C      1  0.4254250000000  0.4503530000000  0.5074940000000 1.0
C      1  0.4978750000000  0.5570350000000  0.4950060000000 1.0
C      1  0.4672700000000  0.5319070000000  0.4654080000000 1.0
C      1  0.5733190000000  0.4725220000000  0.5018320000000 1.0
C      1  0.4491260000000  0.5263320000000  0.4863490000000 1.0
C      1  0.5055190000000  0.4898490000000  0.6243060000000 1.0
C      1  0.4569320000000  0.5016050000000  0.5708250000000 1.0
C      1  0.4989590000000  0.4838670000000  0.4996490000000 1.0
C      1  0.5386900000000  0.4882670000000  0.4308690000000 1.0
C      1  0.5034480000000  0.4649640000000  0.4555640000000 1.0
C      1  0.5060220000000  0.4153480000000  0.4989450000000 1.0
C      1  0.5293110000000  0.5045570000000  0.5852720000000 1.0
C      1  0.4703110000000  0.4410380000000  0.5254850000000 1.0
C      1  0.4040280000000  0.4799880000000  0.4110720000000 1.0
C      1  0.5560810000000  0.4671480000000  0.4387730000000 1.0
C      1  0.4358350000000  0.5168800000000  0.5792950000000 1.0
C      1  0.4975320000000  0.4282430000000  0.5718320000000 1.0
C      1  0.5862390000000  0.4740690000000  0.4784650000000 1.0
C      1  0.4861500000000  0.4696720000000  0.4779140000000 1.0
C      1  0.5386960000000  0.5837180000000  0.4980480000000 1.0
C      1  0.4937430000000  0.5100770000000  0.5080830000000 1.0
C      1  0.4956170000000  0.5371770000000  0.5153750000000 1.0
C      1  0.5477100000000  0.5154460000000  0.5696030000000 1.0
C      1  0.5045350000000  0.4157880000000  0.5487420000000 1.0
C      1  0.5591160000000  0.5311770000000  0.5515510000000 1.0
C      1  0.4743370000000  0.4251390000000  0.4657810000000 1.0
C      1  0.4410460000000  0.5145380000000  0.5090600000000 1.0
C      1  0.5800380000000  0.4725540000000  0.4524120000000 1.0
C      1  0.4466010000000  0.5043850000000  0.4299010000000 1.0
C      1  0.5178440000000  0.4397090000000  0.4565140000000 1.0
C      1  0.4935050000000  0.4228760000000  0.5235190000000 1.0
C      1  0.4811400000000  0.5022870000000  0.5848460000000 1.0
C      1  0.5490300000000  0.4708150000000  0.5127110000000 1.0
C      1  0.5103490000000  0.5820180000000  0.5000980000000 1.0
C      1  0.5615230000000  0.5497010000000  0.5327190000000 1.0
C      1  0.5604290000000  0.6158980000000  0.4599870000000 1.0
C      1  0.4954630000000  0.6039330000000  0.5069220000000 1.0
END
