TITL C-3866672-3872-326 -0.32391581512437 125000 -913.974358709746 0 0 150 (C1) n - 1
REM
REM in /home/nfs/bkarasulu/CARBON/AIRSS/Generating-Clusters/LCBOP/Only-C1/SD-CG/FIRE-CG
REM
REM
REM
REM
REM
REM ./C.cell (11c1c37f851c82e70ff6c80c92926a4b)
REM AIRSS Version 0.9.1 bugfix July 2018 build 013d7b7c2542+ Fri, 06 Jul 2018 19:26:36 +0100
REM compiler GCC version 9.2.1 20190827 (Red Hat 9.2.1-1)
REM options -cpp -mtune=generic -march=x86-64 -g -O0 -fpre-include=/usr/include/finclude/math-vector-fortran.h
REM seed 55378570 -1155238042 2038049676 -972852776 477447908 -2104320464 -1934579051 -404437264 -1476699222 370238202 2020330237 1911140662 -2124488155 -1215761113 -926612249 153396037 1506852481 1584343209 -1033526095 -1017476218 -719906979 -715448994 -1352341191 -1452624052 1734503124 -882840572 512919040 1495552297 -2059539126 -1711793632 1592602754 1424500640 761427082
REM
CELL 1.54180   50.00000   50.00000   50.00000   90.00000   90.00000   90.00000
LATT -1
SFAC C  
C      1  0.4017720000000  0.4607560000000  0.4550050000000 1.0
C      1  0.5379820000000  0.5338860000000  0.4591140000000 1.0
C      1  0.4680660000000  0.5276950000000  0.5281050000000 1.0
C      1  0.5650340000000  0.5025290000000  0.5865940000000 1.0
C      1  0.5643260000000  0.5408860000000  0.4214660000000 1.0
C      1  0.5398030000000  0.3937090000000  0.5075050000000 1.0
C      1  0.5325380000000  0.5884090000000  0.5937640000000 1.0
C      1  0.5630350000000  0.5335330000000  0.4990990000000 1.0
C      1  0.5494250000000  0.5086720000000  0.4996400000000 1.0
C      1  0.4268280000000  0.5637300000000  0.5484170000000 1.0
C      1  0.4712020000000  0.4678150000000  0.4903460000000 1.0
C      1  0.4743430000000  0.5401270000000  0.5945160000000 1.0
C      1  0.5077200000000  0.4217070000000  0.5255230000000 1.0
C      1  0.4913070000000  0.3968610000000  0.4735300000000 1.0
C      1  0.4848500000000  0.4834220000000  0.5127380000000 1.0
C      1  0.4770280000000  0.5174370000000  0.6120500000000 1.0
C      1  0.5705300000000  0.5957590000000  0.4856700000000 1.0
C      1  0.4456900000000  0.5215570000000  0.5085530000000 1.0
C      1  0.5794690000000  0.4778840000000  0.5827690000000 1.0
C      1  0.5714930000000  0.5473300000000  0.5228870000000 1.0
C      1  0.5304670000000  0.4549000000000  0.4153490000000 1.0
C      1  0.5025700000000  0.6160490000000  0.5070500000000 1.0
C      1  0.5198390000000  0.4130270000000  0.4385660000000 1.0
C      1  0.4115340000000  0.4402710000000  0.5457540000000 1.0
C      1  0.4070690000000  0.5572590000000  0.5277360000000 1.0
C      1  0.5438880000000  0.5601670000000  0.4252540000000 1.0
C      1  0.5199030000000  0.4677400000000  0.4380530000000 1.0
C      1  0.5149780000000  0.5193570000000  0.5607800000000 1.0
C      1  0.5281870000000  0.4029740000000  0.5329290000000 1.0
C      1  0.5205390000000  0.5699550000000  0.5770030000000 1.0
C      1  0.5441160000000  0.4440940000000  0.4990250000000 1.0
C      1  0.5633500000000  0.5391780000000  0.4713820000000 1.0
C      1  0.4923470000000  0.5127530000000  0.5151430000000 1.0
C      1  0.5578050000000  0.5465650000000  0.5489130000000 1.0
C      1  0.5806720000000  0.4609690000000  0.4383910000000 1.0
C      1  0.5093140000000  0.4677840000000  0.5202760000000 1.0
C      1  0.4969770000000  0.5569710000000  0.4926610000000 1.0
C      1  0.4731370000000  0.4187890000000  0.4291640000000 1.0
C      1  0.4974280000000  0.5646530000000  0.5198470000000 1.0
C      1  0.4624930000000  0.4435750000000  0.5034190000000 1.0
C      1  0.5343970000000  0.5651520000000  0.5513930000000 1.0
C      1  0.5379900000000  0.4476590000000  0.5941890000000 1.0
C      1  0.5640160000000  0.4795720000000  0.5294100000000 1.0
C      1  0.5892050000000  0.4165530000000  0.4932120000000 1.0
C      1  0.5350690000000  0.5808210000000  0.4540970000000 1.0
C      1  0.5223120000000  0.5765750000000  0.5273430000000 1.0
C      1  0.5684970000000  0.3995080000000  0.5011430000000 1.0
C      1  0.4896370000000  0.4272280000000  0.5723490000000 1.0
C      1  0.4439560000000  0.4549770000000  0.5827150000000 1.0
C      1  0.4939560000000  0.5371790000000  0.3990900000000 1.0
C      1  0.5891510000000  0.5080460000000  0.4420230000000 1.0
C      1  0.4997450000000  0.5788260000000  0.4230520000000 1.0
C      1  0.5179610000000  0.5117710000000  0.5340100000000 1.0
C      1  0.4202490000000  0.4289430000000  0.4944140000000 1.0
C      1  0.4035930000000  0.4158070000000  0.5554640000000 1.0
C      1  0.4905720000000  0.5226550000000  0.4630360000000 1.0
C      1  0.6017760000000  0.4404140000000  0.4861430000000 1.0
C      1  0.5417630000000  0.4923420000000  0.4783770000000 1.0
C      1  0.4500720000000  0.4989170000000  0.3879970000000 1.0
C      1  0.4613560000000  0.4902210000000  0.5587100000000 1.0
C      1  0.6082630000000  0.4998580000000  0.5196460000000 1.0
C      1  0.6055270000000  0.4658880000000  0.4751410000000 1.0
C      1  0.5069180000000  0.5822720000000  0.4500100000000 1.0
C      1  0.5338860000000  0.4120130000000  0.4633720000000 1.0
C      1  0.5665350000000  0.5267940000000  0.5692850000000 1.0
C      1  0.4766400000000  0.4887750000000  0.3921570000000 1.0
C      1  0.4639500000000  0.4336820000000  0.5852180000000 1.0
C      1  0.4629080000000  0.5173130000000  0.5549330000000 1.0
C      1  0.5428550000000  0.5918490000000  0.4808960000000 1.0
C      1  0.4076730000000  0.5725460000000  0.5040210000000 1.0
C      1  0.5952940000000  0.4813710000000  0.4519060000000 1.0
C      1  0.5204480000000  0.3958700000000  0.4839870000000 1.0
C      1  0.5490000000000  0.4341300000000  0.4721790000000 1.0
C      1  0.4183120000000  0.5146220000000  0.5075090000000 1.0
C      1  0.4447020000000  0.5224150000000  0.4025830000000 1.0
C      1  0.5173770000000  0.4434650000000  0.5091800000000 1.0
C      1  0.5749910000000  0.4340610000000  0.5360720000000 1.0
C      1  0.4422830000000  0.5879910000000  0.4746630000000 1.0
C      1  0.4655360000000  0.5315060000000  0.4546800000000 1.0
C      1  0.4057050000000  0.5603690000000  0.4776880000000 1.0
C      1  0.5395340000000  0.4987100000000  0.5990360000000 1.0
C      1  0.4286960000000  0.5248210000000  0.4274720000000 1.0
C      1  0.5147760000000  0.4693860000000  0.5478180000000 1.0
C      1  0.4666360000000  0.4738950000000  0.5368300000000 1.0
C      1  0.5336440000000  0.4069460000000  0.5611880000000 1.0
C      1  0.4698730000000  0.5937980000000  0.4784030000000 1.0
C      1  0.4858360000000  0.4274670000000  0.5431010000000 1.0
C      1  0.4906010000000  0.5760230000000  0.4718700000000 1.0
C      1  0.4506540000000  0.5975330000000  0.5200100000000 1.0
C      1  0.4759330000000  0.4896960000000  0.6049460000000 1.0
C      1  0.5933950000000  0.5655870000000  0.5201280000000 1.0
C      1  0.5985550000000  0.4791970000000  0.5623170000000 1.0
C      1  0.5213750000000  0.5166860000000  0.5866980000000 1.0
C      1  0.4104680000000  0.4448200000000  0.5172990000000 1.0
C      1  0.5848750000000  0.5326690000000  0.4554930000000 1.0
C      1  0.5017310000000  0.4709750000000  0.5706470000000 1.0
C      1  0.4288790000000  0.5658440000000  0.4614320000000 1.0
C      1  0.4320740000000  0.4872440000000  0.3712050000000 1.0
C      1  0.5658800000000  0.4531920000000  0.5887700000000 1.0
C      1  0.5253650000000  0.5969170000000  0.5055620000000 1.0
C      1  0.4653590000000  0.5439680000000  0.4006670000000 1.0
C      1  0.4749680000000  0.6067210000000  0.5044470000000 1.0
C      1  0.3757040000000  0.4551480000000  0.4080200000000 1.0
C      1  0.4202290000000  0.4605430000000  0.5647670000000 1.0
C      1  0.5076880000000  0.6427590000000  0.5109780000000 1.0
C      1  0.4145540000000  0.5065870000000  0.4438320000000 1.0
C      1  0.4554750000000  0.5628740000000  0.4198170000000 1.0
C      1  0.4662980000000  0.4449770000000  0.5319350000000 1.0
C      1  0.4083160000000  0.4924310000000  0.4927530000000 1.0
C      1  0.4969650000000  0.5091350000000  0.3936840000000 1.0
C      1  0.4108930000000  0.5178360000000  0.5564030000000 1.0
C      1  0.4082370000000  0.4876240000000  0.4640750000000 1.0
C      1  0.4735220000000  0.5571230000000  0.5325910000000 1.0
C      1  0.4655290000000  0.4002800000000  0.4856750000000 1.0
C      1  0.5729590000000  0.5138400000000  0.4172120000000 1.0
C      1  0.5270610000000  0.4728460000000  0.6060390000000 1.0
C      1  0.6167430000000  0.5628030000000  0.5349920000000 1.0
C      1  0.5897960000000  0.5863450000000  0.5015960000000 1.0
C      1  0.5264730000000  0.4795660000000  0.4608610000000 1.0
C      1  0.4287570000000  0.5927930000000  0.5009200000000 1.0
C      1  0.5466500000000  0.4715980000000  0.3992330000000 1.0
C      1  0.4924790000000  0.4064630000000  0.4452950000000 1.0
C      1  0.5429730000000  0.4993660000000  0.5251460000000 1.0
C      1  0.4090360000000  0.4377270000000  0.4697870000000 1.0
C      1  0.4996950000000  0.4756440000000  0.5987090000000 1.0
C      1  0.5909510000000  0.4871230000000  0.5363800000000 1.0
C      1  0.4566320000000  0.4807600000000  0.5853330000000 1.0
C      1  0.5657260000000  0.4436570000000  0.4520680000000 1.0
C      1  0.5128120000000  0.5570730000000  0.4098780000000 1.0
C      1  0.4520150000000  0.5753290000000  0.5385040000000 1.0
C      1  0.3877660000000  0.4575780000000  0.4309940000000 1.0
C      1  0.5620830000000  0.4525050000000  0.5201510000000 1.0
C      1  0.4672660000000  0.4740910000000  0.4643930000000 1.0
C      1  0.5347500000000  0.4120800000000  0.3923170000000 1.0
C      1  0.4481860000000  0.4214840000000  0.4937030000000 1.0
C      1  0.4012910000000  0.4703320000000  0.5090170000000 1.0
C      1  0.5200720000000  0.4262590000000  0.5796860000000 1.0
C      1  0.5148390000000  0.5242250000000  0.4491130000000 1.0
C      1  0.6378210000000  0.5590310000000  0.5498460000000 1.0
C      1  0.4706230000000  0.4392400000000  0.4120140000000 1.0
C      1  0.5614820000000  0.4939940000000  0.4011090000000 1.0
C      1  0.4953650000000  0.5287820000000  0.4899010000000 1.0
C      1  0.4778990000000  0.4617690000000  0.3995820000000 1.0
C      1  0.4429390000000  0.5479310000000  0.4429760000000 1.0
C      1  0.4273660000000  0.5413370000000  0.5675270000000 1.0
C      1  0.4540800000000  0.5350450000000  0.5752380000000 1.0
C      1  0.4959610000000  0.5579530000000  0.5869150000000 1.0
C      1  0.4041190000000  0.5278880000000  0.5288460000000 1.0
C      1  0.5285040000000  0.4262860000000  0.4148300000000 1.0
C      1  0.4111830000000  0.4891580000000  0.5627470000000 1.0
END
