TITL C-3866669-3764-630 0.369110498825012 125000 -175.515272940858 0 0 32 (C1) n - 1
REM
REM in /home/nfs/bkarasulu/CARBON/AIRSS/Generating-Clusters/LCBOP/Only-C1/SD-CG/FIRE-CG
REM
REM
REM
REM
REM
REM ./C.cell (11c1c37f851c82e70ff6c80c92926a4b)
REM AIRSS Version 0.9.1 bugfix July 2018 build 013d7b7c2542+ Fri, 06 Jul 2018 19:26:36 +0100
REM compiler GCC version 9.2.1 20190827 (Red Hat 9.2.1-1)
REM options -cpp -mtune=generic -march=x86-64 -g -O0 -fpre-include=/usr/include/finclude/math-vector-fortran.h
REM seed -638054476 477525128 -1361504133 645131167 663081516 -1965660708 174555423 625883276 677582404 -1380754084 966214360 -88584234 -99600080 28393673 -1967334638 -501353960 -1776052383 -1014960324 938120090 1546644336 -1705687617 1793714150 1729289586 -1475200602 -1911551768 -2075688603 48410613 -2130370887 1050064364 -640255419 -1249398016 1362281907 783896458
REM
CELL 1.54180   50.00000   50.00000   50.00000   90.00000   90.00000   90.00000
LATT -1
SFAC C  
C      1  0.4642130000000  0.5337260000000  0.3771550000000 1.0
C      1  0.4824370000000  0.4226000000000  0.5717480000000 1.0
C      1  0.4896490000000  0.5543440000000  0.5556330000000 1.0
C      1  0.5832490000000  0.5712750000000  0.4547010000000 1.0
C      1  0.5190810000000  0.5424460000000  0.5196350000000 1.0
C      1  0.4827740000000  0.3864010000000  0.6116850000000 1.0
C      1  0.5115530000000  0.4322440000000  0.5288370000000 1.0
C      1  0.5118190000000  0.5331360000000  0.4312540000000 1.0
C      1  0.5343860000000  0.4960710000000  0.4536760000000 1.0
C      1  0.5125360000000  0.4498680000000  0.5090020000000 1.0
C      1  0.5531600000000  0.4842870000000  0.4376600000000 1.0
C      1  0.5404480000000  0.5420520000000  0.4697910000000 1.0
C      1  0.4781490000000  0.5515330000000  0.3925980000000 1.0
C      1  0.4632360000000  0.4429800000000  0.5705350000000 1.0
C      1  0.5014680000000  0.4219840000000  0.5511830000000 1.0
C      1  0.5297020000000  0.5444160000000  0.4954600000000 1.0
C      1  0.5288480000000  0.5238500000000  0.4513230000000 1.0
C      1  0.5144710000000  0.5133160000000  0.5578170000000 1.0
C      1  0.5075660000000  0.5369280000000  0.5445110000000 1.0
C      1  0.4954690000000  0.5420540000000  0.4124390000000 1.0
C      1  0.5203960000000  0.4811770000000  0.4727360000000 1.0
C      1  0.4529750000000  0.4642640000000  0.5583710000000 1.0
C      1  0.4826080000000  0.4039010000000  0.5923720000000 1.0
C      1  0.5625800000000  0.5573130000000  0.4622510000000 1.0
C      1  0.5202490000000  0.4907400000000  0.5694840000000 1.0
C      1  0.4600390000000  0.4961580000000  0.5161030000000 1.0
C      1  0.4519720000000  0.4826530000000  0.5392460000000 1.0
C      1  0.5049520000000  0.4723710000000  0.4942130000000 1.0
C      1  0.4818480000000  0.4863280000000  0.5015900000000 1.0
C      1  0.4468210000000  0.5192830000000  0.5078070000000 1.0
C      1  0.4360150000000  0.5417910000000  0.5003390000000 1.0
C      1  0.4753310000000  0.5785100000000  0.3888460000000 1.0
END
