TITL C-3866675-3766-261 -1556.62881651141 125000 -335.925797199996 0 0 57 (C1) n - 1
REM
REM in /home/nfs/bkarasulu/CARBON/AIRSS/Generating-Clusters/LCBOP/Only-C1/SD-CG/HFTN-CG/FIRE-CG
REM
REM
REM
REM
REM
REM ./C.cell (11c1c37f851c82e70ff6c80c92926a4b)
REM AIRSS Version 0.9.1 bugfix July 2018 build 013d7b7c2542+ Fri, 06 Jul 2018 19:26:36 +0100
REM compiler GCC version 9.2.1 20190827 (Red Hat 9.2.1-1)
REM options -cpp -mtune=generic -march=x86-64 -g -O0 -fpre-include=/usr/include/finclude/math-vector-fortran.h
REM seed -1235440262 1663822140 -1866785688 -1384519812 1687393862 -1313578407 -603263611 -1982383545 -690746336 232270440 -1708701265 -1207747028 638605854 1467796283 876770146 -557905203 1407860849 -1117441896 494203841 -106396062 -1022036560 1630449452 928671144 -51323746 856708441 1668904862 1573588827 -1349357895 -1314129675 2082417717 -123318276 -1979463969 -1926247964
REM
CELL 1.54180   50.00000   50.00000   50.00000   90.00000   90.00000   90.00000
LATT -1
SFAC C  
C      1  0.5714410000000  0.5003450000000  0.4705780000000 1.0
C      1  0.5713990000000  0.4956730000000  0.4998580000000 1.0
C      1  0.5382850000000  0.4574210000000  0.5598320000000 1.0
C      1  0.4823680000000  0.5536890000000  0.5024660000000 1.0
C      1  0.5020520000000  0.5124640000000  0.4816570000000 1.0
C      1  0.5318000000000  0.5759420000000  0.5101510000000 1.0
C      1  0.4787440000000  0.5945980000000  0.4076810000000 1.0
C      1  0.5291070000000  0.5529820000000  0.4940850000000 1.0
C      1  0.5254390000000  0.4448980000000  0.4753140000000 1.0
C      1  0.5261160000000  0.4945440000000  0.4323720000000 1.0
C      1  0.5133000000000  0.4459720000000  0.5660460000000 1.0
C      1  0.4897140000000  0.4853530000000  0.5362490000000 1.0
C      1  0.5181210000000  0.4478870000000  0.5230430000000 1.0
C      1  0.5250630000000  0.5187360000000  0.5482300000000 1.0
C      1  0.4364550000000  0.5276700000000  0.5014410000000 1.0
C      1  0.5482670000000  0.5226550000000  0.5353410000000 1.0
C      1  0.4557310000000  0.4944900000000  0.4219060000000 1.0
C      1  0.5314670000000  0.5201720000000  0.4435950000000 1.0
C      1  0.5350800000000  0.4686860000000  0.4897860000000 1.0
C      1  0.5511710000000  0.5369330000000  0.4880800000000 1.0
C      1  0.4881520000000  0.4342160000000  0.5549920000000 1.0
C      1  0.5101160000000  0.5394330000000  0.4410530000000 1.0
C      1  0.5134290000000  0.4211450000000  0.4889640000000 1.0
C      1  0.5157620000000  0.4210080000000  0.5173940000000 1.0
C      1  0.4804270000000  0.5710490000000  0.5488380000000 1.0
C      1  0.4845550000000  0.5527740000000  0.4415740000000 1.0
C      1  0.4988260000000  0.5093480000000  0.5493870000000 1.0
C      1  0.4716690000000  0.5683610000000  0.5220970000000 1.0
C      1  0.4693760000000  0.4807900000000  0.4909100000000 1.0
C      1  0.4813860000000  0.5741890000000  0.4236710000000 1.0
C      1  0.4636410000000  0.4776370000000  0.5470240000000 1.0
C      1  0.4738960000000  0.5219440000000  0.5585210000000 1.0
C      1  0.4513170000000  0.5049460000000  0.5483920000000 1.0
C      1  0.5039450000000  0.5394610000000  0.4916580000000 1.0
C      1  0.4509790000000  0.4342160000000  0.5253020000000 1.0
C      1  0.5044350000000  0.5857110000000  0.5512210000000 1.0
C      1  0.4922120000000  0.4787280000000  0.5092910000000 1.0
C      1  0.4447850000000  0.4692630000000  0.4905090000000 1.0
C      1  0.5150340000000  0.4701820000000  0.4347330000000 1.0
C      1  0.4834470000000  0.4206010000000  0.4838990000000 1.0
C      1  0.4774920000000  0.5000680000000  0.4706950000000 1.0
C      1  0.4735390000000  0.5491870000000  0.5652240000000 1.0
C      1  0.5614760000000  0.5211270000000  0.5104760000000 1.0
C      1  0.4916180000000  0.4144900000000  0.5319720000000 1.0
C      1  0.4672800000000  0.4987970000000  0.4448840000000 1.0
C      1  0.4446770000000  0.5385750000000  0.4779080000000 1.0
C      1  0.4618880000000  0.5468470000000  0.4584580000000 1.0
C      1  0.5073230000000  0.4498510000000  0.4524240000000 1.0
C      1  0.5532310000000  0.5220790000000  0.4627450000000 1.0
C      1  0.4372010000000  0.5159090000000  0.5259300000000 1.0
C      1  0.4825460000000  0.4354580000000  0.4587370000000 1.0
C      1  0.5147570000000  0.4888090000000  0.4940220000000 1.0
C      1  0.5571360000000  0.4724680000000  0.5094050000000 1.0
C      1  0.5541490000000  0.4655160000000  0.5381440000000 1.0
C      1  0.5245250000000  0.5874500000000  0.5332860000000 1.0
C      1  0.4702650000000  0.4182220000000  0.5104930000000 1.0
C      1  0.4623850000000  0.4490390000000  0.5480560000000 1.0
END
