TITL C-3866672-3872-727 0.397751799709806 125000 -488.306906101971 0 0 81 (C1) n - 1
REM
REM in /home/nfs/bkarasulu/CARBON/AIRSS/Generating-Clusters/LCBOP/Only-C1/SD-CG/FIRE-CG
REM
REM
REM
REM
REM
REM ./C.cell (11c1c37f851c82e70ff6c80c92926a4b)
REM AIRSS Version 0.9.1 bugfix July 2018 build 013d7b7c2542+ Fri, 06 Jul 2018 19:26:36 +0100
REM compiler GCC version 9.2.1 20190827 (Red Hat 9.2.1-1)
REM options -cpp -mtune=generic -march=x86-64 -g -O0 -fpre-include=/usr/include/finclude/math-vector-fortran.h
REM seed 2041811434 271126478 2123218885 1245965077 -1440716228 1115876543 -1882161861 516254805 -1969032128 613732161 -115187696 542288437 1886882383 -473788725 -1218837216 -888608056 -1506075854 -4996019 -1958080370 -137927500 -320546973 -1324744089 -1747037847 1940536928 -367289245 384389205 -2018245611 -301997125 -414372281 1505967448 -436420419 1535965625 -1108104433
REM
CELL 1.54180   50.00000   50.00000   50.00000   90.00000   90.00000   90.00000
LATT -1
SFAC C  
C      1  0.6065600000000  0.4010470000000  0.4787090000000 1.0
C      1  0.5374450000000  0.4485940000000  0.5592830000000 1.0
C      1  0.5796260000000  0.4915440000000  0.4392200000000 1.0
C      1  0.5045490000000  0.4791570000000  0.5131170000000 1.0
C      1  0.4109840000000  0.4660940000000  0.4944670000000 1.0
C      1  0.4610730000000  0.6168810000000  0.4946170000000 1.0
C      1  0.5806920000000  0.6005530000000  0.5086000000000 1.0
C      1  0.4163700000000  0.5063150000000  0.4682050000000 1.0
C      1  0.4981690000000  0.5474580000000  0.4847520000000 1.0
C      1  0.4495120000000  0.4353440000000  0.4966390000000 1.0
C      1  0.3706230000000  0.5889700000000  0.4789410000000 1.0
C      1  0.4232320000000  0.5032930000000  0.5459420000000 1.0
C      1  0.5741020000000  0.4928400000000  0.4998440000000 1.0
C      1  0.5474030000000  0.5286510000000  0.4449660000000 1.0
C      1  0.5198110000000  0.5227320000000  0.4494800000000 1.0
C      1  0.5761030000000  0.5736850000000  0.5060120000000 1.0
C      1  0.4166010000000  0.5121190000000  0.5187270000000 1.0
C      1  0.4436610000000  0.4505860000000  0.5200310000000 1.0
C      1  0.4390060000000  0.5561180000000  0.5262380000000 1.0
C      1  0.5254640000000  0.5152970000000  0.5345080000000 1.0
C      1  0.4350620000000  0.4465880000000  0.4509880000000 1.0
C      1  0.4980390000000  0.4289490000000  0.5146450000000 1.0
C      1  0.4154010000000  0.4554350000000  0.5214030000000 1.0
C      1  0.4582410000000  0.5267400000000  0.4869390000000 1.0
C      1  0.6216300000000  0.3813800000000  0.4706030000000 1.0
C      1  0.4311630000000  0.5039020000000  0.4458470000000 1.0
C      1  0.5346980000000  0.5236110000000  0.5090400000000 1.0
C      1  0.4788420000000  0.4862370000000  0.5040600000000 1.0
C      1  0.4494360000000  0.4879500000000  0.4339510000000 1.0
C      1  0.5813300000000  0.4689310000000  0.4856610000000 1.0
C      1  0.5751080000000  0.4423750000000  0.4951770000000 1.0
C      1  0.4776740000000  0.5058630000000  0.4828380000000 1.0
C      1  0.5638170000000  0.5164530000000  0.4005670000000 1.0
C      1  0.4933480000000  0.4337690000000  0.5441990000000 1.0
C      1  0.4641880000000  0.4783080000000  0.5496050000000 1.0
C      1  0.5200880000000  0.4648210000000  0.4951620000000 1.0
C      1  0.4286120000000  0.4466490000000  0.4782390000000 1.0
C      1  0.5531220000000  0.4366470000000  0.5130190000000 1.0
C      1  0.5221360000000  0.5474960000000  0.4998020000000 1.0
C      1  0.4829340000000  0.4512870000000  0.4451070000000 1.0
C      1  0.3940320000000  0.5805040000000  0.4900190000000 1.0
C      1  0.5602450000000  0.5594490000000  0.5512840000000 1.0
C      1  0.4924840000000  0.5295090000000  0.5680040000000 1.0
C      1  0.5773870000000  0.5566830000000  0.5290050000000 1.0
C      1  0.4508030000000  0.5023560000000  0.5563080000000 1.0
C      1  0.4706170000000  0.5527280000000  0.4914730000000 1.0
C      1  0.5293310000000  0.4758370000000  0.5602330000000 1.0
C      1  0.4026520000000  0.4967490000000  0.5630550000000 1.0
C      1  0.4991150000000  0.5220190000000  0.4687990000000 1.0
C      1  0.4596940000000  0.4741830000000  0.5212280000000 1.0
C      1  0.4771770000000  0.4282580000000  0.4929460000000 1.0
C      1  0.4541300000000  0.5700600000000  0.5060980000000 1.0
C      1  0.5478890000000  0.5025570000000  0.4927360000000 1.0
C      1  0.5702900000000  0.5626880000000  0.4805960000000 1.0
C      1  0.5912560000000  0.4210570000000  0.4869090000000 1.0
C      1  0.4516930000000  0.5497090000000  0.5504390000000 1.0
C      1  0.4123870000000  0.4952940000000  0.4941350000000 1.0
C      1  0.5574750000000  0.4409200000000  0.5408160000000 1.0
C      1  0.4565620000000  0.4611160000000  0.4393490000000 1.0
C      1  0.3964240000000  0.5556720000000  0.5031480000000 1.0
C      1  0.5221050000000  0.5252570000000  0.5635200000000 1.0
C      1  0.5905720000000  0.5083350000000  0.5160940000000 1.0
C      1  0.5637460000000  0.5121080000000  0.4281530000000 1.0
C      1  0.4650980000000  0.5270360000000  0.5607160000000 1.0
C      1  0.5163570000000  0.4295800000000  0.5606640000000 1.0
C      1  0.4853750000000  0.4316260000000  0.4657600000000 1.0
C      1  0.5066080000000  0.4647200000000  0.4379300000000 1.0
C      1  0.5867420000000  0.4740470000000  0.4582860000000 1.0
C      1  0.4162000000000  0.5410060000000  0.5166240000000 1.0
C      1  0.5633680000000  0.5205920000000  0.3748410000000 1.0
C      1  0.4759590000000  0.4533370000000  0.5569500000000 1.0
C      1  0.5182050000000  0.4875350000000  0.5358830000000 1.0
C      1  0.5309220000000  0.4990650000000  0.5778750000000 1.0
C      1  0.5405810000000  0.5482760000000  0.5659090000000 1.0
C      1  0.5274260000000  0.4762110000000  0.4505390000000 1.0
C      1  0.5601020000000  0.5490080000000  0.4599980000000 1.0
C      1  0.5920750000000  0.5327780000000  0.5267140000000 1.0
C      1  0.4448110000000  0.5950750000000  0.4964820000000 1.0
C      1  0.5333790000000  0.4820680000000  0.4774350000000 1.0
C      1  0.5252590000000  0.4384010000000  0.5047360000000 1.0
C      1  0.4176080000000  0.5959180000000  0.4891600000000 1.0
END
