TITL C-3866673-4222-658 0.0250473171151151 125000 -117.921849628962 0 0 21 (C1) n - 1
REM
REM in /home/nfs/bkarasulu/CARBON/AIRSS/Generating-Clusters/LCBOP/Only-C1/SD-CG/FIRE-CG
REM
REM
REM
REM
REM
REM ./C.cell (11c1c37f851c82e70ff6c80c92926a4b)
REM AIRSS Version 0.9.1 bugfix July 2018 build 013d7b7c2542+ Fri, 06 Jul 2018 19:26:36 +0100
REM compiler GCC version 9.2.1 20190827 (Red Hat 9.2.1-1)
REM options -cpp -mtune=generic -march=x86-64 -g -O0 -fpre-include=/usr/include/finclude/math-vector-fortran.h
REM seed 2142794160 -518726151 -111591827 679965728 646755877 82752246 1893569949 -591713745 2141322129 1498160146 -65037719 270431999 643821733 -1342072919 1767665580 -688667605 -751444163 -1521820955 651543060 -2078795868 1527520594 1213066089 1553390653 1104677020 1605397451 305790031 496838536 -622957977 -315014825 342975208 -694924488 681060978 532434801
REM
CELL 1.54180   50.00000   50.00000   50.00000   90.00000   90.00000   90.00000
LATT -1
SFAC C  
C      1  0.5482550000000  0.4830160000000  0.5130280000000 1.0
C      1  0.4623370000000  0.5127620000000  0.5030090000000 1.0
C      1  0.5896950000000  0.5031830000000  0.4928670000000 1.0
C      1  0.4489260000000  0.5341510000000  0.4910870000000 1.0
C      1  0.4660930000000  0.4744290000000  0.4730350000000 1.0
C      1  0.4546450000000  0.4546340000000  0.4596590000000 1.0
C      1  0.5740520000000  0.4888880000000  0.5092400000000 1.0
C      1  0.5234110000000  0.4869330000000  0.5041470000000 1.0
C      1  0.5175790000000  0.5155170000000  0.4659070000000 1.0
C      1  0.4433820000000  0.4351520000000  0.4464990000000 1.0
C      1  0.4604670000000  0.5084560000000  0.5305180000000 1.0
C      1  0.4367630000000  0.5540330000000  0.4794290000000 1.0
C      1  0.5864560000000  0.5190840000000  0.4715380000000 1.0
C      1  0.4858300000000  0.4905240000000  0.5673900000000 1.0
C      1  0.4624910000000  0.5025520000000  0.5577560000000 1.0
C      1  0.4419110000000  0.5084640000000  0.5747700000000 1.0
C      1  0.4781300000000  0.4953210000000  0.4870980000000 1.0
C      1  0.5061300000000  0.4991920000000  0.4856970000000 1.0
C      1  0.5660750000000  0.5280820000000  0.4566790000000 1.0
C      1  0.5079130000000  0.4793630000000  0.5755740000000 1.0
C      1  0.5394590000000  0.5262620000000  0.4550750000000 1.0
END
