TITL C-3866671-3735-187 -248.537937048892 125000 -1184.26197579484 0 0 194 (C1) n - 1
REM
REM in /home/nfs/bkarasulu/CARBON/AIRSS/Generating-Clusters/LCBOP/Only-C1/SD-CG/HFTN-CG/FIRE-CG
REM
REM
REM
REM
REM
REM ./C.cell (11c1c37f851c82e70ff6c80c92926a4b)
REM AIRSS Version 0.9.1 bugfix July 2018 build 013d7b7c2542+ Fri, 06 Jul 2018 19:26:36 +0100
REM compiler GCC version 9.2.1 20190827 (Red Hat 9.2.1-1)
REM options -cpp -mtune=generic -march=x86-64 -g -O0 -fpre-include=/usr/include/finclude/math-vector-fortran.h
REM seed 1397119373 -548093016 -1513952704 -2067759396 1172868201 -2009039712 -534136365 1176498283 -1002754558 1419159497 -299279835 492432393 395479393 1790636977 581141981 1172065356 1300949844 722459543 -518489785 -2007176450 -1607935791 -972797154 901825031 -676334634 -1197921378 -916754254 1228452603 106464281 -452176454 -1760499988 123079083 1449733657 299395956
REM
CELL 1.54180   50.00000   50.00000   50.00000   90.00000   90.00000   90.00000
LATT -1
SFAC C  
C      1  0.3958230000000  0.4825280000000  0.3988670000000 1.0
C      1  0.5229340000000  0.4187040000000  0.5118490000000 1.0
C      1  0.3522690000000  0.5362710000000  0.4585500000000 1.0
C      1  0.5658330000000  0.6093540000000  0.5073940000000 1.0
C      1  0.5351540000000  0.5008680000000  0.5960520000000 1.0
C      1  0.5594120000000  0.4652500000000  0.5288440000000 1.0
C      1  0.6152150000000  0.5689900000000  0.4620260000000 1.0
C      1  0.4609300000000  0.5867950000000  0.5839740000000 1.0
C      1  0.4667100000000  0.6107350000000  0.3993200000000 1.0
C      1  0.4131000000000  0.5644660000000  0.5020130000000 1.0
C      1  0.4397630000000  0.6083140000000  0.5124070000000 1.0
C      1  0.6103560000000  0.4710260000000  0.4874890000000 1.0
C      1  0.4925480000000  0.5533510000000  0.5620630000000 1.0
C      1  0.6163330000000  0.4737850000000  0.5621670000000 1.0
C      1  0.4691660000000  0.5742310000000  0.4624930000000 1.0
C      1  0.6864460000000  0.3698710000000  0.4045180000000 1.0
C      1  0.4839000000000  0.3672080000000  0.4774390000000 1.0
C      1  0.5288160000000  0.4917420000000  0.5519120000000 1.0
C      1  0.5704570000000  0.6354880000000  0.4970630000000 1.0
C      1  0.5993680000000  0.4094570000000  0.4525200000000 1.0
C      1  0.5607690000000  0.4706990000000  0.4789690000000 1.0
C      1  0.5044250000000  0.5047130000000  0.3913850000000 1.0
C      1  0.5105740000000  0.5210110000000  0.5971110000000 1.0
C      1  0.5777350000000  0.3837000000000  0.4968330000000 1.0
C      1  0.4889320000000  0.5316500000000  0.4833780000000 1.0
C      1  0.4713310000000  0.4276600000000  0.5026050000000 1.0
C      1  0.6218050000000  0.3983600000000  0.4400250000000 1.0
C      1  0.4550870000000  0.3798890000000  0.5409100000000 1.0
C      1  0.5844370000000  0.4829800000000  0.4885570000000 1.0
C      1  0.4274620000000  0.6353630000000  0.4706630000000 1.0
C      1  0.6020160000000  0.5540750000000  0.4806760000000 1.0
C      1  0.4764280000000  0.4150460000000  0.6159240000000 1.0
C      1  0.4195860000000  0.4927290000000  0.5275630000000 1.0
C      1  0.5220850000000  0.5193360000000  0.5501220000000 1.0
C      1  0.5605180000000  0.4399140000000  0.4465360000000 1.0
C      1  0.4704720000000  0.4713800000000  0.4258610000000 1.0
C      1  0.4737210000000  0.4193530000000  0.4248120000000 1.0
C      1  0.4278340000000  0.5945310000000  0.4454750000000 1.0
C      1  0.5115340000000  0.5935220000000  0.5900980000000 1.0
C      1  0.5569990000000  0.5529430000000  0.5610840000000 1.0
C      1  0.5805950000000  0.4322620000000  0.5688960000000 1.0
C      1  0.5308740000000  0.4786860000000  0.5774090000000 1.0
C      1  0.4799290000000  0.5377930000000  0.5135590000000 1.0
C      1  0.5360650000000  0.5453840000000  0.5432890000000 1.0
C      1  0.5307120000000  0.5702590000000  0.4012550000000 1.0
C      1  0.4063600000000  0.4640410000000  0.4914820000000 1.0
C      1  0.4456510000000  0.5398670000000  0.6038110000000 1.0
C      1  0.4502900000000  0.5604030000000  0.5831840000000 1.0
C      1  0.4711900000000  0.6035570000000  0.5651610000000 1.0
C      1  0.5272060000000  0.5007340000000  0.4911850000000 1.0
C      1  0.5155200000000  0.5537240000000  0.4450160000000 1.0
C      1  0.6043580000000  0.5594380000000  0.5082780000000 1.0
C      1  0.5879570000000  0.3955160000000  0.4747820000000 1.0
C      1  0.5594670000000  0.3975720000000  0.5436320000000 1.0
C      1  0.4627110000000  0.4915320000000  0.5140910000000 1.0
C      1  0.4242970000000  0.5850750000000  0.5188160000000 1.0
C      1  0.6651220000000  0.3792360000000  0.4162310000000 1.0
C      1  0.4779490000000  0.6018180000000  0.4655010000000 1.0
C      1  0.6008610000000  0.4875810000000  0.5790320000000 1.0
C      1  0.4667350000000  0.6198540000000  0.4461910000000 1.0
C      1  0.5417930000000  0.5458930000000  0.4561810000000 1.0
C      1  0.5554160000000  0.4652980000000  0.4301850000000 1.0
C      1  0.4047480000000  0.4156110000000  0.6016700000000 1.0
C      1  0.4449950000000  0.4743220000000  0.4152510000000 1.0
C      1  0.4749880000000  0.3706040000000  0.5254890000000 1.0
C      1  0.4870680000000  0.5494350000000  0.4081410000000 1.0
C      1  0.6237330000000  0.4655910000000  0.5113400000000 1.0
C      1  0.4465450000000  0.4763940000000  0.5928200000000 1.0
C      1  0.4743400000000  0.4855580000000  0.4884060000000 1.0
C      1  0.4900750000000  0.5205270000000  0.6181130000000 1.0
C      1  0.4524140000000  0.4488630000000  0.5378070000000 1.0
C      1  0.4514390000000  0.5902920000000  0.3909600000000 1.0
C      1  0.4894670000000  0.4368530000000  0.4841030000000 1.0
C      1  0.4791940000000  0.6237670000000  0.4210150000000 1.0
C      1  0.4203240000000  0.4772680000000  0.4060470000000 1.0
C      1  0.5380070000000  0.4852320000000  0.4702540000000 1.0
C      1  0.4872040000000  0.4929960000000  0.4355490000000 1.0
C      1  0.5152610000000  0.4686920000000  0.4617290000000 1.0
C      1  0.4513260000000  0.5284760000000  0.3547830000000 1.0
C      1  0.5071570000000  0.4472240000000  0.4444590000000 1.0
C      1  0.5349480000000  0.5700040000000  0.5014620000000 1.0
C      1  0.5002850000000  0.4131100000000  0.6272910000000 1.0
C      1  0.4620100000000  0.5189180000000  0.6169520000000 1.0
C      1  0.5076060000000  0.4313350000000  0.5350350000000 1.0
C      1  0.4394340000000  0.5725590000000  0.4600570000000 1.0
C      1  0.5459660000000  0.5944230000000  0.4927420000000 1.0
C      1  0.3774800000000  0.4981900000000  0.4698210000000 1.0
C      1  0.4249130000000  0.5775670000000  0.5459420000000 1.0
C      1  0.4686380000000  0.6093570000000  0.5159710000000 1.0
C      1  0.4592860000000  0.5468690000000  0.4105750000000 1.0
C      1  0.4280360000000  0.6288140000000  0.4968170000000 1.0
C      1  0.4266010000000  0.4558630000000  0.5860540000000 1.0
C      1  0.5760400000000  0.5112910000000  0.4302260000000 1.0
C      1  0.4523430000000  0.4199590000000  0.6060580000000 1.0
C      1  0.5657440000000  0.4388950000000  0.5222700000000 1.0
C      1  0.3349660000000  0.5146560000000  0.4609510000000 1.0
C      1  0.4756790000000  0.3804300000000  0.4542510000000 1.0
C      1  0.4043670000000  0.4643910000000  0.5684590000000 1.0
C      1  0.5352030000000  0.4498670000000  0.5769330000000 1.0
C      1  0.4894420000000  0.4039100000000  0.4455390000000 1.0
C      1  0.4906010000000  0.5545920000000  0.4624040000000 1.0
C      1  0.5267730000000  0.6397750000000  0.4356820000000 1.0
C      1  0.5082160000000  0.5673500000000  0.5830880000000 1.0
C      1  0.4380050000000  0.4004150000000  0.5447440000000 1.0
C      1  0.3494050000000  0.4918600000000  0.4676070000000 1.0
C      1  0.4433050000000  0.4748570000000  0.5274320000000 1.0
C      1  0.5227910000000  0.4283240000000  0.5598610000000 1.0
C      1  0.5800440000000  0.4819430000000  0.4321710000000 1.0
C      1  0.4524340000000  0.4911400000000  0.6171010000000 1.0
C      1  0.5662910000000  0.3811630000000  0.5213610000000 1.0
C      1  0.4270010000000  0.4455030000000  0.4862280000000 1.0
C      1  0.5118010000000  0.5578850000000  0.4174000000000 1.0
C      1  0.3989740000000  0.4920790000000  0.5726990000000 1.0
C      1  0.5745330000000  0.4219700000000  0.5432730000000 1.0
C      1  0.6009170000000  0.4614780000000  0.4401120000000 1.0
C      1  0.5616710000000  0.4425830000000  0.5853760000000 1.0
C      1  0.5841800000000  0.5538670000000  0.5530970000000 1.0
C      1  0.5181870000000  0.5260970000000  0.4893390000000 1.0
C      1  0.4492650000000  0.4040710000000  0.4238900000000 1.0
C      1  0.5338610000000  0.4765690000000  0.5297280000000 1.0
C      1  0.5098200000000  0.4956500000000  0.4176150000000 1.0
C      1  0.4455800000000  0.5626380000000  0.3909520000000 1.0
C      1  0.3923190000000  0.4584960000000  0.5163510000000 1.0
C      1  0.4068310000000  0.5348260000000  0.4656230000000 1.0
C      1  0.4839290000000  0.4464400000000  0.4262170000000 1.0
C      1  0.5608760000000  0.5166160000000  0.5930810000000 1.0
C      1  0.5552380000000  0.4422510000000  0.4754950000000 1.0
C      1  0.5167190000000  0.4796450000000  0.5080820000000 1.0
C      1  0.6250430000000  0.4668520000000  0.5379400000000 1.0
C      1  0.4205460000000  0.5097570000000  0.5768140000000 1.0
C      1  0.4969330000000  0.5230700000000  0.5681880000000 1.0
C      1  0.4276120000000  0.4301440000000  0.5978530000000 1.0
C      1  0.4487410000000  0.5298300000000  0.4305030000000 1.0
C      1  0.5357800000000  0.4010820000000  0.5604320000000 1.0
C      1  0.5807270000000  0.5959110000000  0.5270410000000 1.0
C      1  0.4293080000000  0.3844530000000  0.4655540000000 1.0
C      1  0.5844370000000  0.5107300000000  0.4909960000000 1.0
C      1  0.5503850000000  0.4096210000000  0.6440550000000 1.0
C      1  0.3941670000000  0.4546040000000  0.5434150000000 1.0
C      1  0.5482280000000  0.4295540000000  0.5008180000000 1.0
C      1  0.4974760000000  0.4659330000000  0.4876400000000 1.0
C      1  0.5359200000000  0.5474630000000  0.4847410000000 1.0
C      1  0.4311330000000  0.3976780000000  0.4888740000000 1.0
C      1  0.4381940000000  0.6207870000000  0.4490360000000 1.0
C      1  0.5137760000000  0.3924880000000  0.5054580000000 1.0
C      1  0.5418820000000  0.6317470000000  0.4577490000000 1.0
C      1  0.4200510000000  0.5581940000000  0.4751480000000 1.0
C      1  0.6434400000000  0.3887580000000  0.4281400000000 1.0
C      1  0.5255760000000  0.3807430000000  0.5756310000000 1.0
C      1  0.6193150000000  0.4672720000000  0.4609640000000 1.0
C      1  0.5986000000000  0.5338250000000  0.5670510000000 1.0
C      1  0.5376750000000  0.6057160000000  0.4681870000000 1.0
C      1  0.4842400000000  0.6059560000000  0.5399510000000 1.0
C      1  0.4649010000000  0.5174520000000  0.5298530000000 1.0
C      1  0.4792330000000  0.4374070000000  0.5296120000000 1.0
C      1  0.4922090000000  0.3743600000000  0.5034410000000 1.0
C      1  0.5517860000000  0.5443030000000  0.5881420000000 1.0
C      1  0.3793740000000  0.5279610000000  0.4637260000000 1.0
C      1  0.4481370000000  0.3838110000000  0.4448000000000 1.0
C      1  0.4009670000000  0.5415030000000  0.5153300000000 1.0
C      1  0.5328890000000  0.4789600000000  0.4199010000000 1.0
C      1  0.4225560000000  0.5099510000000  0.4668190000000 1.0
C      1  0.5757450000000  0.4081510000000  0.6499120000000 1.0
C      1  0.5201100000000  0.5681100000000  0.5275500000000 1.0
C      1  0.4197680000000  0.5294170000000  0.5969870000000 1.0
C      1  0.4722730000000  0.5080650000000  0.5589830000000 1.0
C      1  0.4389440000000  0.5485590000000  0.3675300000000 1.0
C      1  0.4977690000000  0.5034460000000  0.3641000000000 1.0
C      1  0.5872590000000  0.5118150000000  0.5821520000000 1.0
C      1  0.5157400000000  0.4932290000000  0.3461650000000 1.0
C      1  0.4479270000000  0.5147790000000  0.4551650000000 1.0
C      1  0.4401450000000  0.5332300000000  0.5382390000000 1.0
C      1  0.4830110000000  0.6105800000000  0.4916060000000 1.0
C      1  0.4926300000000  0.5558170000000  0.5318950000000 1.0
C      1  0.5851690000000  0.5325070000000  0.4734230000000 1.0
C      1  0.4727710000000  0.5126410000000  0.3552110000000 1.0
C      1  0.4351050000000  0.4252160000000  0.5313670000000 1.0
C      1  0.4406470000000  0.4230740000000  0.5006890000000 1.0
C      1  0.4039580000000  0.4878270000000  0.4754190000000 1.0
C      1  0.5918510000000  0.5701640000000  0.5311020000000 1.0
C      1  0.4385190000000  0.5552390000000  0.5567660000000 1.0
C      1  0.5249440000000  0.4114370000000  0.6368450000000 1.0
C      1  0.4479620000000  0.4978310000000  0.5728130000000 1.0
C      1  0.5484050000000  0.5834990000000  0.3874470000000 1.0
C      1  0.5819210000000  0.5223550000000  0.4054530000000 1.0
C      1  0.5013130000000  0.4240320000000  0.4614520000000 1.0
C      1  0.4748640000000  0.5070840000000  0.4662140000000 1.0
C      1  0.5045780000000  0.6357150000000  0.4212610000000 1.0
C      1  0.5889570000000  0.4341060000000  0.4424590000000 1.0
C      1  0.5120110000000  0.5967710000000  0.5366090000000 1.0
C      1  0.4165060000000  0.5212620000000  0.5275370000000 1.0
C      1  0.5599770000000  0.6462120000000  0.4742180000000 1.0
C      1  0.5248520000000  0.5482010000000  0.5967030000000 1.0
C      1  0.5669510000000  0.5307440000000  0.4508560000000 1.0
END
