TITL C-3866673-4222-744 5.52189127735865 125000 -244.259054178756 0 0 42 (C1) n - 1
REM
REM in /home/nfs/bkarasulu/CARBON/AIRSS/Generating-Clusters/LCBOP/Only-C1/SD-CG/FIRE-CG
REM
REM
REM
REM
REM
REM ./C.cell (11c1c37f851c82e70ff6c80c92926a4b)
REM AIRSS Version 0.9.1 bugfix July 2018 build 013d7b7c2542+ Fri, 06 Jul 2018 19:26:36 +0100
REM compiler GCC version 9.2.1 20190827 (Red Hat 9.2.1-1)
REM options -cpp -mtune=generic -march=x86-64 -g -O0 -fpre-include=/usr/include/finclude/math-vector-fortran.h
REM seed 1615187830 1614600602 490551121 1912514594 -793480873 1577172929 1446624993 -565598102 -329240813 -1567720063 -815628067 -2125736469 365728780 1141001538 -1717947880 1686583692 -189515461 1590317418 -446955896 1718692378 33061805 1615534367 1261593977 444942704 -642271582 1397671257 -746465158 -946925298 -1582190660 1738686521 2096129520 -1268274746 487061249
REM
CELL 1.54180   50.00000   50.00000   50.00000   90.00000   90.00000   90.00000
LATT -1
SFAC C  
C      1  0.4697090000000  0.5839580000000  0.4773840000000 1.0
C      1  0.5735110000000  0.4506680000000  0.4618820000000 1.0
C      1  0.5534600000000  0.4564020000000  0.4808280000000 1.0
C      1  0.5305350000000  0.4552890000000  0.5676820000000 1.0
C      1  0.4237990000000  0.4447030000000  0.6008440000000 1.0
C      1  0.6645030000000  0.4109490000000  0.3871560000000 1.0
C      1  0.3505890000000  0.7232430000000  0.5060080000000 1.0
C      1  0.5385860000000  0.5033980000000  0.4608480000000 1.0
C      1  0.4630530000000  0.4211820000000  0.5728310000000 1.0
C      1  0.4914110000000  0.4264450000000  0.5746520000000 1.0
C      1  0.4923240000000  0.3835680000000  0.5158180000000 1.0
C      1  0.3335670000000  0.7431450000000  0.5100990000000 1.0
C      1  0.6453120000000  0.4232690000000  0.3997890000000 1.0
C      1  0.4810490000000  0.3610770000000  0.5052200000000 1.0
C      1  0.5436890000000  0.4366420000000  0.5506590000000 1.0
C      1  0.5037410000000  0.5441590000000  0.4692090000000 1.0
C      1  0.4016420000000  0.6635500000000  0.4937390000000 1.0
C      1  0.3676070000000  0.7033450000000  0.5019180000000 1.0
C      1  0.4604070000000  0.4005090000000  0.5526870000000 1.0
C      1  0.4867260000000  0.5640590000000  0.4732960000000 1.0
C      1  0.5326650000000  0.4105430000000  0.5532560000000 1.0
C      1  0.5396450000000  0.4807440000000  0.4775880000000 1.0
C      1  0.5759160000000  0.4864920000000  0.4306590000000 1.0
C      1  0.5569500000000  0.5033320000000  0.4394520000000 1.0
C      1  0.5207490000000  0.5242680000000  0.4651240000000 1.0
C      1  0.5053900000000  0.4061600000000  0.5583040000000 1.0
C      1  0.4186590000000  0.6436520000000  0.4896500000000 1.0
C      1  0.5590530000000  0.4430410000000  0.5278350000000 1.0
C      1  0.4526930000000  0.6038560000000  0.4814720000000 1.0
C      1  0.5858470000000  0.4614340000000  0.4389370000000 1.0
C      1  0.3846240000000  0.6834480000000  0.4978280000000 1.0
C      1  0.5297680000000  0.4173270000000  0.4975620000000 1.0
C      1  0.6063000000000  0.4483120000000  0.4254670000000 1.0
C      1  0.5110290000000  0.3987950000000  0.5012840000000 1.0
C      1  0.4427400000000  0.4331390000000  0.5871810000000 1.0
C      1  0.4859410000000  0.3924550000000  0.5417500000000 1.0
C      1  0.3168260000000  0.7627200000000  0.5141220000000 1.0
C      1  0.5845380000000  0.4526470000000  0.5304120000000 1.0
C      1  0.5064830000000  0.4498720000000  0.5793520000000 1.0
C      1  0.5474900000000  0.4386540000000  0.5020250000000 1.0
C      1  0.6257990000000  0.4357950000000  0.4126320000000 1.0
C      1  0.4356760000000  0.6237540000000  0.4855610000000 1.0
END
