TITL C-3866672-3872-164 470.294595184751 125000 -1163.72420539125 0 0 189 (C1) n - 1
REM
REM in /home/nfs/bkarasulu/CARBON/AIRSS/Generating-Clusters/LCBOP/Only-C1/SD-CG/HFTN-CG/FIRE-CG
REM
REM
REM
REM
REM
REM ./C.cell (11c1c37f851c82e70ff6c80c92926a4b)
REM AIRSS Version 0.9.1 bugfix July 2018 build 013d7b7c2542+ Fri, 06 Jul 2018 19:26:36 +0100
REM compiler GCC version 9.2.1 20190827 (Red Hat 9.2.1-1)
REM options -cpp -mtune=generic -march=x86-64 -g -O0 -fpre-include=/usr/include/finclude/math-vector-fortran.h
REM seed -2144721644 -1480330951 1788161611 -2106207112 1290587379 -783159926 1669167150 -2122408863 1229383469 1732424157 -501280108 814968141 139522851 1358483917 -173597034 -178117653 -1808657302 795888639 -1475861015 1148787134 -1018720161 1450472125 1648072282 893596807 1934919497 951969739 -1008929147 -1240630030 1858398469 344740327 -222982805 1103318616 -1756691524
REM
CELL 1.54180   50.00000   50.00000   50.00000   90.00000   90.00000   90.00000
LATT -1
SFAC C  
C      1  0.4493150000000  0.4600740000000  0.6124540000000 1.0
C      1  0.5745650000000  0.5386330000000  0.5777060000000 1.0
C      1  0.4382450000000  0.5004020000000  0.5430140000000 1.0
C      1  0.4929400000000  0.4351740000000  0.3872070000000 1.0
C      1  0.5274040000000  0.4714470000000  0.5926610000000 1.0
C      1  0.4887290000000  0.3996810000000  0.4571850000000 1.0
C      1  0.4750450000000  0.4661620000000  0.5047580000000 1.0
C      1  0.4666390000000  0.4458620000000  0.4496110000000 1.0
C      1  0.4538890000000  0.4150030000000  0.5656010000000 1.0
C      1  0.4158600000000  0.4609230000000  0.5695060000000 1.0
C      1  0.4765000000000  0.4699070000000  0.5559720000000 1.0
C      1  0.4778320000000  0.4215480000000  0.4079490000000 1.0
C      1  0.5014120000000  0.5359660000000  0.5405370000000 1.0
C      1  0.4783910000000  0.5732760000000  0.4078130000000 1.0
C      1  0.5696360000000  0.6172140000000  0.4475040000000 1.0
C      1  0.5692190000000  0.4797060000000  0.3999050000000 1.0
C      1  0.4595590000000  0.4766590000000  0.4119420000000 1.0
C      1  0.5729650000000  0.4385300000000  0.5113640000000 1.0
C      1  0.5311280000000  0.5032660000000  0.3777440000000 1.0
C      1  0.4363980000000  0.6084490000000  0.5876300000000 1.0
C      1  0.4161900000000  0.4272940000000  0.5341920000000 1.0
C      1  0.5745680000000  0.4819680000000  0.4778090000000 1.0
C      1  0.5196890000000  0.4751880000000  0.4335250000000 1.0
C      1  0.4320940000000  0.4630480000000  0.4969320000000 1.0
C      1  0.5201490000000  0.5212200000000  0.5558720000000 1.0
C      1  0.5566450000000  0.5156350000000  0.5876420000000 1.0
C      1  0.4728290000000  0.5718690000000  0.4651750000000 1.0
C      1  0.5988580000000  0.4026960000000  0.5427490000000 1.0
C      1  0.5232020000000  0.4760280000000  0.3708660000000 1.0
C      1  0.4135220000000  0.4452420000000  0.4848340000000 1.0
C      1  0.5880210000000  0.5326070000000  0.5281600000000 1.0
C      1  0.5629030000000  0.5763680000000  0.5388740000000 1.0
C      1  0.4116150000000  0.4527670000000  0.4364800000000 1.0
C      1  0.4323300000000  0.4061320000000  0.5225520000000 1.0
C      1  0.4511170000000  0.4581290000000  0.5165070000000 1.0
C      1  0.5147700000000  0.5561540000000  0.5265430000000 1.0
C      1  0.5708510000000  0.4558070000000  0.4138050000000 1.0
C      1  0.4757040000000  0.4694740000000  0.6031050000000 1.0
C      1  0.5631470000000  0.4436480000000  0.4394060000000 1.0
C      1  0.6566460000000  0.4619740000000  0.5242410000000 1.0
C      1  0.4813810000000  0.4930250000000  0.5109630000000 1.0
C      1  0.5601400000000  0.5318040000000  0.5342660000000 1.0
C      1  0.4354730000000  0.5196870000000  0.3839720000000 1.0
C      1  0.5329560000000  0.4630190000000  0.4765150000000 1.0
C      1  0.6301580000000  0.4691340000000  0.5302080000000 1.0
C      1  0.5287990000000  0.5746650000000  0.6099060000000 1.0
C      1  0.5580590000000  0.4661840000000  0.4587430000000 1.0
C      1  0.5644940000000  0.5098410000000  0.4713280000000 1.0
C      1  0.4614100000000  0.4032770000000  0.4691820000000 1.0
C      1  0.5216510000000  0.5797990000000  0.6358140000000 1.0
C      1  0.5690800000000  0.5708350000000  0.4878460000000 1.0
C      1  0.5375020000000  0.6075110000000  0.5073110000000 1.0
C      1  0.4299910000000  0.5641280000000  0.4164590000000 1.0
C      1  0.5492800000000  0.4246550000000  0.5812930000000 1.0
C      1  0.4260000000000  0.5389200000000  0.6131950000000 1.0
C      1  0.4347480000000  0.4721270000000  0.3983260000000 1.0
C      1  0.4195280000000  0.5686960000000  0.5381120000000 1.0
C      1  0.4743770000000  0.5295010000000  0.5415880000000 1.0
C      1  0.5231080000000  0.4143450000000  0.5799800000000 1.0
C      1  0.4202750000000  0.5650550000000  0.6116550000000 1.0
C      1  0.4528610000000  0.6146070000000  0.5672780000000 1.0
C      1  0.6773540000000  0.4718940000000  0.5390990000000 1.0
C      1  0.4597320000000  0.4133250000000  0.6136450000000 1.0
C      1  0.5370330000000  0.5024230000000  0.5087630000000 1.0
C      1  0.5779560000000  0.4676520000000  0.5038420000000 1.0
C      1  0.3874570000000  0.4920840000000  0.4674020000000 1.0
C      1  0.5567830000000  0.5058100000000  0.3931810000000 1.0
C      1  0.4899150000000  0.4471210000000  0.4645070000000 1.0
C      1  0.4883950000000  0.6094220000000  0.5309460000000 1.0
C      1  0.4423950000000  0.5107660000000  0.4984500000000 1.0
C      1  0.5432600000000  0.5558040000000  0.5335090000000 1.0
C      1  0.5625740000000  0.5900630000000  0.5120790000000 1.0
C      1  0.5821340000000  0.5711170000000  0.4609740000000 1.0
C      1  0.5406880000000  0.4121040000000  0.4727540000000 1.0
C      1  0.4716490000000  0.3862330000000  0.5228270000000 1.0
C      1  0.5239050000000  0.5829210000000  0.4347610000000 1.0
C      1  0.5696370000000  0.4389270000000  0.5690390000000 1.0
C      1  0.5930560000000  0.5476850000000  0.4481140000000 1.0
C      1  0.4345490000000  0.4386260000000  0.5574980000000 1.0
C      1  0.5876360000000  0.4841780000000  0.5256840000000 1.0
C      1  0.4155250000000  0.5027780000000  0.4264200000000 1.0
C      1  0.4770420000000  0.5725860000000  0.4932630000000 1.0
C      1  0.4476580000000  0.4258370000000  0.4572740000000 1.0
C      1  0.6615270000000  0.4445450000000  0.5029230000000 1.0
C      1  0.4545500000000  0.4563220000000  0.5439580000000 1.0
C      1  0.5544790000000  0.4171430000000  0.4994350000000 1.0
C      1  0.5448160000000  0.4831020000000  0.5497880000000 1.0
C      1  0.4479440000000  0.4865520000000  0.4584770000000 1.0
C      1  0.4770640000000  0.5759450000000  0.5976560000000 1.0
C      1  0.5545290000000  0.5568620000000  0.4056920000000 1.0
C      1  0.5462010000000  0.4208860000000  0.4450070000000 1.0
C      1  0.4535720000000  0.5820710000000  0.4224410000000 1.0
C      1  0.4588650000000  0.5112900000000  0.5843910000000 1.0
C      1  0.5165940000000  0.4564860000000  0.5225380000000 1.0
C      1  0.4114100000000  0.5493480000000  0.5168310000000 1.0
C      1  0.5051800000000  0.5117260000000  0.4688080000000 1.0
C      1  0.5094540000000  0.4529840000000  0.3751530000000 1.0
C      1  0.4874800000000  0.4446300000000  0.4918940000000 1.0
C      1  0.5241970000000  0.4139570000000  0.4270310000000 1.0
C      1  0.3938800000000  0.5433290000000  0.4588210000000 1.0
C      1  0.5026990000000  0.5675900000000  0.4229650000000 1.0
C      1  0.4696660000000  0.5536350000000  0.3886280000000 1.0
C      1  0.6157820000000  0.4934120000000  0.5207720000000 1.0
C      1  0.5023190000000  0.4556990000000  0.6016970000000 1.0
C      1  0.4534170000000  0.3973050000000  0.5425170000000 1.0
C      1  0.4510360000000  0.5310200000000  0.4562700000000 1.0
C      1  0.5455580000000  0.4860800000000  0.4385030000000 1.0
C      1  0.4401940000000  0.5177130000000  0.6047370000000 1.0
C      1  0.6122160000000  0.5216000000000  0.5220080000000 1.0
C      1  0.4371080000000  0.4873700000000  0.4839520000000 1.0
C      1  0.5208020000000  0.3931390000000  0.5618430000000 1.0
C      1  0.4522610000000  0.3956130000000  0.4947500000000 1.0
C      1  0.5298170000000  0.4744030000000  0.5031250000000 1.0
C      1  0.5239190000000  0.4713510000000  0.5638550000000 1.0
C      1  0.3903390000000  0.5202020000000  0.4787820000000 1.0
C      1  0.3942620000000  0.4995910000000  0.5301770000000 1.0
C      1  0.4590100000000  0.5904500000000  0.4490040000000 1.0
C      1  0.3890930000000  0.4510610000000  0.4988210000000 1.0
C      1  0.5122450000000  0.4606510000000  0.4564150000000 1.0
C      1  0.5033020000000  0.5652710000000  0.5020320000000 1.0
C      1  0.5436190000000  0.5939920000000  0.5949490000000 1.0
C      1  0.5738760000000  0.5671890000000  0.5661690000000 1.0
C      1  0.5224320000000  0.3881400000000  0.5342810000000 1.0
C      1  0.5509020000000  0.6278930000000  0.4639930000000 1.0
C      1  0.5712030000000  0.5896290000000  0.4412950000000 1.0
C      1  0.4819140000000  0.4884600000000  0.4020060000000 1.0
C      1  0.5281600000000  0.6213250000000  0.5540230000000 1.0
C      1  0.3757360000000  0.4722120000000  0.4851140000000 1.0
C      1  0.4483020000000  0.4264150000000  0.4081150000000 1.0
C      1  0.5414810000000  0.5089150000000  0.5375690000000 1.0
C      1  0.5233060000000  0.5881460000000  0.4638420000000 1.0
C      1  0.4417440000000  0.5334550000000  0.4829890000000 1.0
C      1  0.4136070000000  0.5492470000000  0.4368660000000 1.0
C      1  0.4960470000000  0.5073360000000  0.4927180000000 1.0
C      1  0.5745060000000  0.4674750000000  0.5757640000000 1.0
C      1  0.5439700000000  0.3986820000000  0.5192630000000 1.0
C      1  0.4526480000000  0.5729720000000  0.5069700000000 1.0
C      1  0.4240180000000  0.5900020000000  0.6026400000000 1.0
C      1  0.4595720000000  0.5146990000000  0.3674540000000 1.0
C      1  0.5888990000000  0.4305750000000  0.5420400000000 1.0
C      1  0.4264030000000  0.4470490000000  0.4107030000000 1.0
C      1  0.5059620000000  0.4335530000000  0.5096950000000 1.0
C      1  0.5493810000000  0.5226900000000  0.4915660000000 1.0
C      1  0.4589120000000  0.4703900000000  0.4392170000000 1.0
C      1  0.3956480000000  0.4477470000000  0.5270640000000 1.0
C      1  0.6646180000000  0.4280780000000  0.4829620000000 1.0
C      1  0.5173780000000  0.6134950000000  0.5288870000000 1.0
C      1  0.4324370000000  0.5552970000000  0.4970220000000 1.0
C      1  0.3986570000000  0.4723410000000  0.5448120000000 1.0
C      1  0.5197430000000  0.5248160000000  0.4484500000000 1.0
C      1  0.4725080000000  0.4159240000000  0.5881930000000 1.0
C      1  0.3960560000000  0.5236930000000  0.5100980000000 1.0
C      1  0.4404500000000  0.5470520000000  0.3939780000000 1.0
C      1  0.5465550000000  0.5128440000000  0.4475110000000 1.0
C      1  0.4225640000000  0.4982780000000  0.3985480000000 1.0
C      1  0.4448140000000  0.5837410000000  0.5320910000000 1.0
C      1  0.5052330000000  0.4869340000000  0.4138450000000 1.0
C      1  0.5880220000000  0.5318090000000  0.4262740000000 1.0
C      1  0.4689070000000  0.5582850000000  0.5803300000000 1.0
C      1  0.4295180000000  0.5245530000000  0.4384180000000 1.0
C      1  0.4206800000000  0.4362570000000  0.4590940000000 1.0
C      1  0.5909880000000  0.4750870000000  0.5533710000000 1.0
C      1  0.4950720000000  0.4093120000000  0.4292430000000 1.0
C      1  0.5670930000000  0.5308620000000  0.4060610000000 1.0
C      1  0.5504320000000  0.5785310000000  0.4241090000000 1.0
C      1  0.4492020000000  0.4351240000000  0.6258720000000 1.0
C      1  0.4983020000000  0.3797360000000  0.5226030000000 1.0
C      1  0.5225060000000  0.5651080000000  0.4811910000000 1.0
C      1  0.5560190000000  0.4846150000000  0.5928220000000 1.0
C      1  0.6108820000000  0.4532090000000  0.5465920000000 1.0
C      1  0.5296150000000  0.5268940000000  0.5825220000000 1.0
C      1  0.4997680000000  0.4277240000000  0.5903740000000 1.0
C      1  0.4749820000000  0.5456000000000  0.4523890000000 1.0
C      1  0.5319800000000  0.6143390000000  0.5795520000000 1.0
C      1  0.5136660000000  0.3988910000000  0.4730280000000 1.0
C      1  0.5696250000000  0.5865250000000  0.5867860000000 1.0
C      1  0.4717340000000  0.4859610000000  0.5798880000000 1.0
C      1  0.5467950000000  0.5511460000000  0.4870770000000 1.0
C      1  0.4998540000000  0.5427670000000  0.4374170000000 1.0
C      1  0.4624340000000  0.6035150000000  0.5431110000000 1.0
C      1  0.5031940000000  0.4640270000000  0.5471360000000 1.0
C      1  0.5230900000000  0.5495670000000  0.5979720000000 1.0
C      1  0.4827440000000  0.5317920000000  0.3741190000000 1.0
C      1  0.5100890000000  0.5230720000000  0.3742010000000 1.0
C      1  0.4594850000000  0.5095270000000  0.5233870000000 1.0
C      1  0.4256600000000  0.4665970000000  0.5963090000000 1.0
C      1  0.4646860000000  0.5336340000000  0.5679410000000 1.0
C      1  0.5327390000000  0.6116660000000  0.4785330000000 1.0
C      1  0.4020620000000  0.4819510000000  0.4425760000000 1.0
END
