TITL C-3866675-3766-506 -0.00515771763626648 125000 -484.675427882867 0 0 80 (C1) n - 1
REM
REM in /home/nfs/bkarasulu/CARBON/AIRSS/Generating-Clusters/LCBOP/Only-C1/SD-CG/FIRE-CG
REM
REM
REM
REM
REM
REM ./C.cell (11c1c37f851c82e70ff6c80c92926a4b)
REM AIRSS Version 0.9.1 bugfix July 2018 build 013d7b7c2542+ Fri, 06 Jul 2018 19:26:36 +0100
REM compiler GCC version 9.2.1 20190827 (Red Hat 9.2.1-1)
REM options -cpp -mtune=generic -march=x86-64 -g -O0 -fpre-include=/usr/include/finclude/math-vector-fortran.h
REM seed 2058647529 1125784519 1856272488 1237842723 -789739278 -931653277 -748253283 -1947276396 -1480338347 -25850015 15673578 91852924 327853665 1039894945 1977740243 -1584317798 -2112960291 1265968286 1536187384 11564842 872659937 -1202779076 1310736447 -1312393255 101461016 -839132584 -1191326264 -174108436 -499256308 -1056271230 1837815330 -1626470229 -15147755
REM
CELL 1.54180   50.00000   50.00000   50.00000   90.00000   90.00000   90.00000
LATT -1
SFAC C  
C      1  0.4727830000000  0.4459060000000  0.5588980000000 1.0
C      1  0.5530710000000  0.5510790000000  0.4467290000000 1.0
C      1  0.4270330000000  0.5274270000000  0.5041460000000 1.0
C      1  0.5294480000000  0.4333990000000  0.4191840000000 1.0
C      1  0.5311750000000  0.5171800000000  0.5147980000000 1.0
C      1  0.5818160000000  0.3834970000000  0.4125050000000 1.0
C      1  0.4482830000000  0.4537830000000  0.4895320000000 1.0
C      1  0.5819540000000  0.5439160000000  0.4959620000000 1.0
C      1  0.4260320000000  0.6191300000000  0.5262430000000 1.0
C      1  0.5049520000000  0.4192340000000  0.4163510000000 1.0
C      1  0.5169680000000  0.5599720000000  0.6029110000000 1.0
C      1  0.4550240000000  0.5317100000000  0.4584980000000 1.0
C      1  0.4695050000000  0.4350260000000  0.4477950000000 1.0
C      1  0.5118700000000  0.4894350000000  0.4769300000000 1.0
C      1  0.5216090000000  0.4505590000000  0.5582360000000 1.0
C      1  0.4247810000000  0.4988770000000  0.5120860000000 1.0
C      1  0.5835890000000  0.4692090000000  0.5072830000000 1.0
C      1  0.4997290000000  0.4047470000000  0.5150920000000 1.0
C      1  0.4470750000000  0.4638690000000  0.3995310000000 1.0
C      1  0.4320000000000  0.4643350000000  0.4446330000000 1.0
C      1  0.5026970000000  0.5356640000000  0.4778900000000 1.0
C      1  0.4906140000000  0.5687490000000  0.6061850000000 1.0
C      1  0.4448790000000  0.5907750000000  0.5931500000000 1.0
C      1  0.5484190000000  0.4488610000000  0.4808590000000 1.0
C      1  0.4418380000000  0.5266080000000  0.4342810000000 1.0
C      1  0.5374280000000  0.5727820000000  0.5431170000000 1.0
C      1  0.5172180000000  0.4051140000000  0.5371010000000 1.0
C      1  0.5173430000000  0.5141540000000  0.4910490000000 1.0
C      1  0.5318400000000  0.5479070000000  0.5552410000000 1.0
C      1  0.5432550000000  0.5604780000000  0.4712890000000 1.0
C      1  0.5366090000000  0.4744480000000  0.5577640000000 1.0
C      1  0.4998900000000  0.5843060000000  0.4735150000000 1.0
C      1  0.5267140000000  0.4662820000000  0.4782690000000 1.0
C      1  0.4225130000000  0.6130290000000  0.5518340000000 1.0
C      1  0.4805150000000  0.4324050000000  0.4218480000000 1.0
C      1  0.5598000000000  0.5611490000000  0.4945350000000 1.0
C      1  0.4800580000000  0.6016550000000  0.4763930000000 1.0
C      1  0.4135550000000  0.5425410000000  0.5249620000000 1.0
C      1  0.5338990000000  0.5017440000000  0.5613110000000 1.0
C      1  0.5217470000000  0.5128790000000  0.5853530000000 1.0
C      1  0.4348770000000  0.4767000000000  0.4989420000000 1.0
C      1  0.4900720000000  0.4958890000000  0.4592660000000 1.0
C      1  0.4036450000000  0.5252600000000  0.5442900000000 1.0
C      1  0.5354550000000  0.5224270000000  0.5416380000000 1.0
C      1  0.5481580000000  0.5096330000000  0.4152120000000 1.0
C      1  0.5636290000000  0.4497640000000  0.5048330000000 1.0
C      1  0.5299730000000  0.5963270000000  0.5548530000000 1.0
C      1  0.5536770000000  0.5324050000000  0.4277750000000 1.0
C      1  0.4339480000000  0.4781020000000  0.4199830000000 1.0
C      1  0.4663370000000  0.5789920000000  0.6033540000000 1.0
C      1  0.4494430000000  0.4495890000000  0.4614290000000 1.0
C      1  0.5933240000000  0.4938390000000  0.5047560000000 1.0
C      1  0.4959260000000  0.4706460000000  0.5940930000000 1.0
C      1  0.4816890000000  0.5236000000000  0.4617930000000 1.0
C      1  0.5367350000000  0.5690050000000  0.6195260000000 1.0
C      1  0.5048400000000  0.3931680000000  0.4079590000000 1.0
C      1  0.4792600000000  0.4167340000000  0.5027830000000 1.0
C      1  0.4292910000000  0.6028130000000  0.5753720000000 1.0
C      1  0.4583630000000  0.6135500000000  0.4859530000000 1.0
C      1  0.5056510000000  0.4951400000000  0.5998850000000 1.0
C      1  0.5229010000000  0.5416780000000  0.5824160000000 1.0
C      1  0.4664320000000  0.4453000000000  0.4010450000000 1.0
C      1  0.4590550000000  0.4432170000000  0.5362180000000 1.0
C      1  0.5545810000000  0.4312640000000  0.4601800000000 1.0
C      1  0.4609330000000  0.4371630000000  0.5087350000000 1.0
C      1  0.4964910000000  0.4528690000000  0.5720050000000 1.0
C      1  0.5541430000000  0.4347320000000  0.5264610000000 1.0
C      1  0.4099780000000  0.4991670000000  0.5371840000000 1.0
C      1  0.4398130000000  0.5367400000000  0.4814510000000 1.0
C      1  0.5399030000000  0.4851310000000  0.4090570000000 1.0
C      1  0.4324860000000  0.5060190000000  0.4200580000000 1.0
C      1  0.5670510000000  0.4020980000000  0.4232360000000 1.0
C      1  0.5505180000000  0.5730500000000  0.5182060000000 1.0
C      1  0.5148230000000  0.5608630000000  0.4744320000000 1.0
C      1  0.5326780000000  0.4595670000000  0.4097120000000 1.0
C      1  0.4389870000000  0.6194790000000  0.5030820000000 1.0
C      1  0.5929430000000  0.5200280000000  0.5000800000000 1.0
C      1  0.5506540000000  0.4217570000000  0.4342210000000 1.0
C      1  0.5204580000000  0.3832300000000  0.5531110000000 1.0
C      1  0.5313520000000  0.4292440000000  0.5421280000000 1.0
END
