TITL C-3866674-3872-175 2.24214696894204 125000 -419.56703988215 0 0 70 (C1) n - 1
REM
REM in /home/nfs/bkarasulu/CARBON/AIRSS/Generating-Clusters/LCBOP/Only-C1/SD-CG/HFTN-CG/FIRE-CG
REM
REM
REM
REM
REM
REM ./C.cell (11c1c37f851c82e70ff6c80c92926a4b)
REM AIRSS Version 0.9.1 bugfix July 2018 build 013d7b7c2542+ Fri, 06 Jul 2018 19:26:36 +0100
REM compiler GCC version 9.2.1 20190827 (Red Hat 9.2.1-1)
REM options -cpp -mtune=generic -march=x86-64 -g -O0 -fpre-include=/usr/include/finclude/math-vector-fortran.h
REM seed -675010522 -1817564146 -2117066981 1866192431 1675634090 198675873 120732516 -176155129 1844819028 -203618298 124469008 944442880 728837924 -1421998225 -1925964701 -734398821 -2014640398 787460110 -444126039 886758534 1135813813 -1711459909 -999896781 -1069353856 -937062139 -656630705 -536268391 508231931 493404235 1455186934 -2009921192 -1538184031 -1801261298
REM
CELL 1.54180   50.00000   50.00000   50.00000   90.00000   90.00000   90.00000
LATT -1
SFAC C  
C      1  0.5223400000000  0.4879150000000  0.5168370000000 1.0
C      1  0.5266800000000  0.4418170000000  0.5450360000000 1.0
C      1  0.5427340000000  0.4643360000000  0.5552170000000 1.0
C      1  0.6166960000000  0.4717990000000  0.4886570000000 1.0
C      1  0.5420660000000  0.5573360000000  0.4574560000000 1.0
C      1  0.5669880000000  0.4769440000000  0.5432060000000 1.0
C      1  0.4653500000000  0.5607740000000  0.5091820000000 1.0
C      1  0.5214570000000  0.5141430000000  0.5077080000000 1.0
C      1  0.5604610000000  0.5882280000000  0.4248720000000 1.0
C      1  0.4921640000000  0.5724670000000  0.4685360000000 1.0
C      1  0.4493270000000  0.4541220000000  0.5653100000000 1.0
C      1  0.4416800000000  0.5538860000000  0.5245170000000 1.0
C      1  0.5628950000000  0.5063720000000  0.5413410000000 1.0
C      1  0.6128360000000  0.5065010000000  0.4497760000000 1.0
C      1  0.4675390000000  0.4829090000000  0.4245020000000 1.0
C      1  0.5661720000000  0.5321510000000  0.4943350000000 1.0
C      1  0.4157360000000  0.4841640000000  0.4785830000000 1.0
C      1  0.5710040000000  0.5220160000000  0.5190350000000 1.0
C      1  0.5396650000000  0.5131180000000  0.5585340000000 1.0
C      1  0.4291700000000  0.5259160000000  0.4859940000000 1.0
C      1  0.4383000000000  0.4561490000000  0.5391840000000 1.0
C      1  0.4347470000000  0.4632710000000  0.4775160000000 1.0
C      1  0.5129810000000  0.4523840000000  0.4719900000000 1.0
C      1  0.5319150000000  0.4872590000000  0.5700400000000 1.0
C      1  0.4891970000000  0.4360120000000  0.4794270000000 1.0
C      1  0.4895550000000  0.5618720000000  0.5259560000000 1.0
C      1  0.4963950000000  0.4761890000000  0.5255640000000 1.0
C      1  0.5338640000000  0.4157670000000  0.5523190000000 1.0
C      1  0.4872320000000  0.4811340000000  0.5535540000000 1.0
C      1  0.6184870000000  0.4871170000000  0.4670270000000 1.0
C      1  0.4532540000000  0.5055830000000  0.4254920000000 1.0
C      1  0.5837360000000  0.5473230000000  0.4347130000000 1.0
C      1  0.4100200000000  0.4911740000000  0.5078410000000 1.0
C      1  0.5376170000000  0.4531860000000  0.4849180000000 1.0
C      1  0.4124430000000  0.5208640000000  0.5081160000000 1.0
C      1  0.4530140000000  0.5155560000000  0.5651110000000 1.0
C      1  0.5415000000000  0.4709020000000  0.5046560000000 1.0
C      1  0.4324760000000  0.5085810000000  0.5472650000000 1.0
C      1  0.4549610000000  0.4441630000000  0.5174090000000 1.0
C      1  0.4245250000000  0.5317240000000  0.5311580000000 1.0
C      1  0.4224580000000  0.5092210000000  0.4633580000000 1.0
C      1  0.5033760000000  0.4457070000000  0.5274350000000 1.0
C      1  0.4741320000000  0.5320320000000  0.5629080000000 1.0
C      1  0.5620680000000  0.5646870000000  0.4386990000000 1.0
C      1  0.6066920000000  0.4634200000000  0.5118130000000 1.0
C      1  0.5019430000000  0.5023220000000  0.4686220000000 1.0
C      1  0.4575050000000  0.5220220000000  0.4884690000000 1.0
C      1  0.4720290000000  0.4675780000000  0.5713790000000 1.0
C      1  0.5069660000000  0.5829580000000  0.5224370000000 1.0
C      1  0.4393410000000  0.5705460000000  0.4352020000000 1.0
C      1  0.4825540000000  0.4334410000000  0.5099210000000 1.0
C      1  0.4395600000000  0.5222790000000  0.4434890000000 1.0
C      1  0.4675620000000  0.5628960000000  0.4786720000000 1.0
C      1  0.5892080000000  0.4646150000000  0.5318240000000 1.0
C      1  0.6008550000000  0.5274070000000  0.4386140000000 1.0
C      1  0.5173330000000  0.5706770000000  0.4598070000000 1.0
C      1  0.4538580000000  0.4657160000000  0.4983680000000 1.0
C      1  0.5212980000000  0.5341370000000  0.5544730000000 1.0
C      1  0.4758130000000  0.4827550000000  0.5038800000000 1.0
C      1  0.4428680000000  0.4438460000000  0.4590110000000 1.0
C      1  0.4710280000000  0.4422210000000  0.4557140000000 1.0
C      1  0.5457410000000  0.5348590000000  0.4743540000000 1.0
C      1  0.4951270000000  0.5433500000000  0.5477430000000 1.0
C      1  0.4820480000000  0.4654050000000  0.4408910000000 1.0
C      1  0.4245110000000  0.4823640000000  0.5333450000000 1.0
C      1  0.4480010000000  0.5502330000000  0.4513000000000 1.0
C      1  0.5232210000000  0.5185270000000  0.4795290000000 1.0
C      1  0.4785770000000  0.5042270000000  0.4859140000000 1.0
C      1  0.5407490000000  0.3914400000000  0.5586310000000 1.0
C      1  0.5043990000000  0.4759870000000  0.4563070000000 1.0
END
