TITL C-3866671-3735-2 -751.433668187552 125000 -629.601075720338 0 0 105 (C1) n - 1
REM
REM in /home/nfs/bkarasulu/CARBON/AIRSS/Generating-Clusters/LCBOP/Only-C1/SD-CG/HFTN-CG/FIRE-CG
REM
REM
REM
REM
REM
REM ./C.cell (11c1c37f851c82e70ff6c80c92926a4b)
REM AIRSS Version 0.9.1 bugfix July 2018 build 013d7b7c2542+ Fri, 06 Jul 2018 19:26:36 +0100
REM compiler GCC version 9.2.1 20190827 (Red Hat 9.2.1-1)
REM options -cpp -mtune=generic -march=x86-64 -g -O0 -fpre-include=/usr/include/finclude/math-vector-fortran.h
REM seed 1961404921 1998555645 -2114063468 186020384 -1042531188 506455843 -1955844772 -256749047 1500197995 491203252 257671782 -1564337713 398616664 958597793 -1029438983 -84653321 -669441558 1508574599 -2125844616 -863419727 -28432406 -1067678411 1297959102 -548041187 871935229 70968548 -768695814 746285986 537414221 1062010650 -1574699623 166671265 1242072710
REM
CELL 1.54180   50.00000   50.00000   50.00000   90.00000   90.00000   90.00000
LATT -1
SFAC C  
C      1  0.4215420000000  0.4268720000000  0.5285660000000 1.0
C      1  0.4148720000000  0.4141850000000  0.5029580000000 1.0
C      1  0.5889260000000  0.4999240000000  0.4983080000000 1.0
C      1  0.4419150000000  0.4108610000000  0.4911970000000 1.0
C      1  0.4902660000000  0.5023250000000  0.5622220000000 1.0
C      1  0.5169350000000  0.5365650000000  0.5858940000000 1.0
C      1  0.4960190000000  0.5159200000000  0.5875640000000 1.0
C      1  0.5532540000000  0.5044510000000  0.5447190000000 1.0
C      1  0.5278600000000  0.4159560000000  0.4871400000000 1.0
C      1  0.6018410000000  0.5026590000000  0.5242680000000 1.0
C      1  0.5123870000000  0.4268910000000  0.4656510000000 1.0
C      1  0.4602160000000  0.4576760000000  0.5125260000000 1.0
C      1  0.4585260000000  0.5069520000000  0.5073820000000 1.0
C      1  0.5022580000000  0.5889370000000  0.4797660000000 1.0
C      1  0.5892660000000  0.5506940000000  0.5408010000000 1.0
C      1  0.5285540000000  0.4249730000000  0.5130450000000 1.0
C      1  0.4882870000000  0.4667100000000  0.5910800000000 1.0
C      1  0.4541780000000  0.5930980000000  0.5196680000000 1.0
C      1  0.5857490000000  0.5491990000000  0.4851510000000 1.0
C      1  0.5947630000000  0.4403560000000  0.5695270000000 1.0
C      1  0.4899870000000  0.4928880000000  0.6061480000000 1.0
C      1  0.4589550000000  0.4051220000000  0.5170880000000 1.0
C      1  0.5824630000000  0.5207600000000  0.4802100000000 1.0
C      1  0.5223690000000  0.4971170000000  0.5148350000000 1.0
C      1  0.4315620000000  0.5144510000000  0.5080060000000 1.0
C      1  0.4357630000000  0.4645790000000  0.5530670000000 1.0
C      1  0.4790830000000  0.5033510000000  0.4903570000000 1.0
C      1  0.6019170000000  0.4382160000000  0.4059730000000 1.0
C      1  0.4943750000000  0.5367520000000  0.3982940000000 1.0
C      1  0.5192350000000  0.5200270000000  0.5293430000000 1.0
C      1  0.4222340000000  0.5333780000000  0.4885880000000 1.0
C      1  0.5818220000000  0.4449250000000  0.3886260000000 1.0
C      1  0.4640690000000  0.5779310000000  0.4501170000000 1.0
C      1  0.4394540000000  0.4930880000000  0.5514480000000 1.0
C      1  0.4393990000000  0.5528550000000  0.5413310000000 1.0
C      1  0.4838990000000  0.4912750000000  0.4449370000000 1.0
C      1  0.4743460000000  0.5513380000000  0.4114260000000 1.0
C      1  0.4206630000000  0.5073260000000  0.5338770000000 1.0
C      1  0.5534690000000  0.5834070000000  0.5049040000000 1.0
C      1  0.5124360000000  0.5426100000000  0.4894360000000 1.0
C      1  0.5036820000000  0.4905680000000  0.4961220000000 1.0
C      1  0.6046790000000  0.5292990000000  0.5339190000000 1.0
C      1  0.5044760000000  0.5906670000000  0.4299510000000 1.0
C      1  0.4218470000000  0.5603750000000  0.4980300000000 1.0
C      1  0.5018680000000  0.4746330000000  0.5661680000000 1.0
C      1  0.4370620000000  0.5704980000000  0.4494390000000 1.0
C      1  0.4804780000000  0.5998480000000  0.5206440000000 1.0
C      1  0.4320250000000  0.5437750000000  0.4408760000000 1.0
C      1  0.4676550000000  0.5015330000000  0.5428740000000 1.0
C      1  0.4968750000000  0.4470850000000  0.4797860000000 1.0
C      1  0.4811410000000  0.5697200000000  0.4712790000000 1.0
C      1  0.5249800000000  0.4625200000000  0.4323710000000 1.0
C      1  0.5032070000000  0.4595150000000  0.5419280000000 1.0
C      1  0.3894330000000  0.4529050000000  0.4927560000000 1.0
C      1  0.5672430000000  0.4817100000000  0.5022460000000 1.0
C      1  0.5602140000000  0.5623810000000  0.4879170000000 1.0
C      1  0.4215530000000  0.5257410000000  0.4605890000000 1.0
C      1  0.5392220000000  0.5430650000000  0.4799360000000 1.0
C      1  0.5276220000000  0.4443190000000  0.5344160000000 1.0
C      1  0.4468570000000  0.4177140000000  0.5417200000000 1.0
C      1  0.4901720000000  0.5422880000000  0.4706540000000 1.0
C      1  0.4623200000000  0.5367950000000  0.5411230000000 1.0
C      1  0.5117870000000  0.4810260000000  0.4499370000000 1.0
C      1  0.4844050000000  0.4426960000000  0.4279630000000 1.0
C      1  0.5833090000000  0.4380840000000  0.3621560000000 1.0
C      1  0.4800220000000  0.5760190000000  0.4256900000000 1.0
C      1  0.4509130000000  0.4403780000000  0.5631490000000 1.0
C      1  0.4928230000000  0.5674930000000  0.5569660000000 1.0
C      1  0.5629170000000  0.5509270000000  0.5512980000000 1.0
C      1  0.5113670000000  0.4366790000000  0.4376420000000 1.0
C      1  0.4494270000000  0.5381720000000  0.4186260000000 1.0
C      1  0.5432080000000  0.5255480000000  0.5872690000000 1.0
C      1  0.6074570000000  0.4240980000000  0.5861540000000 1.0
C      1  0.5546320000000  0.5204190000000  0.4700670000000 1.0
C      1  0.4231400000000  0.4728960000000  0.4531020000000 1.0
C      1  0.5595130000000  0.4589210000000  0.3980670000000 1.0
C      1  0.4162580000000  0.4987680000000  0.4542390000000 1.0
C      1  0.4684880000000  0.4465130000000  0.5853880000000 1.0
C      1  0.5570670000000  0.5248890000000  0.5627970000000 1.0
C      1  0.5054330000000  0.5409200000000  0.5176210000000 1.0
C      1  0.4502560000000  0.4333670000000  0.4732910000000 1.0
C      1  0.5536370000000  0.4506000000000  0.5461370000000 1.0
C      1  0.5138590000000  0.5981730000000  0.4549330000000 1.0
C      1  0.4683190000000  0.4647880000000  0.4386630000000 1.0
C      1  0.4071190000000  0.4675790000000  0.5075190000000 1.0
C      1  0.5315000000000  0.5841490000000  0.5236270000000 1.0
C      1  0.3928740000000  0.4260130000000  0.4897620000000 1.0
C      1  0.5058340000000  0.5928910000000  0.5090020000000 1.0
C      1  0.5487300000000  0.4889440000000  0.5219530000000 1.0
C      1  0.4853540000000  0.5509460000000  0.5353300000000 1.0
C      1  0.4706540000000  0.4457550000000  0.4893960000000 1.0
C      1  0.5812760000000  0.4574850000000  0.5517800000000 1.0
C      1  0.4788270000000  0.4685590000000  0.5291270000000 1.0
C      1  0.5376190000000  0.4721080000000  0.4090870000000 1.0
C      1  0.4293980000000  0.4564360000000  0.5237700000000 1.0
C      1  0.5967890000000  0.4797720000000  0.5414920000000 1.0
C      1  0.5174280000000  0.5610800000000  0.5688010000000 1.0
C      1  0.6199600000000  0.4080710000000  0.6024770000000 1.0
C      1  0.4352110000000  0.5718540000000  0.5203580000000 1.0
C      1  0.5124200000000  0.5175210000000  0.3943530000000 1.0
C      1  0.5099820000000  0.4718570000000  0.4770980000000 1.0
C      1  0.5389980000000  0.5684420000000  0.5494850000000 1.0
C      1  0.4799420000000  0.5151690000000  0.4637500000000 1.0
C      1  0.5274300000000  0.4956980000000  0.3974530000000 1.0
C      1  0.4446930000000  0.4547450000000  0.4530370000000 1.0
END
