TITL C-3866671-3735-114 0.102806063257646 125000 -1166.97125017782 0 0 190 (C1) n - 1
REM
REM in /home/nfs/bkarasulu/CARBON/AIRSS/Generating-Clusters/LCBOP/Only-C1/SD-CG/HFTN-CG/FIRE-CG
REM
REM
REM
REM
REM
REM ./C.cell (11c1c37f851c82e70ff6c80c92926a4b)
REM AIRSS Version 0.9.1 bugfix July 2018 build 013d7b7c2542+ Fri, 06 Jul 2018 19:26:36 +0100
REM compiler GCC version 9.2.1 20190827 (Red Hat 9.2.1-1)
REM options -cpp -mtune=generic -march=x86-64 -g -O0 -fpre-include=/usr/include/finclude/math-vector-fortran.h
REM seed -422366025 1955597418 227635727 837646073 428580734 2126736024 489519043 1765257418 798236635 1496033755 550038871 1268663155 -499219331 1952991722 -1873770903 125456785 1811229616 -1415313840 -154466926 -81253054 -1777436630 1950750813 -442128680 615346790 197300746 777896889 -722499522 -1887505132 840512836 2018351779 -459010488 -992460598 151790130
REM
CELL 1.54180   50.00000   50.00000   50.00000   90.00000   90.00000   90.00000
LATT -1
SFAC C  
C      1  0.5872230000000  0.3699380000000  0.4093890000000 1.0
C      1  0.4425220000000  0.4884120000000  0.4162370000000 1.0
C      1  0.4454140000000  0.5661250000000  0.5367280000000 1.0
C      1  0.4007190000000  0.4606560000000  0.5448160000000 1.0
C      1  0.3710220000000  0.4838540000000  0.4601510000000 1.0
C      1  0.3742640000000  0.5239610000000  0.4864290000000 1.0
C      1  0.4543670000000  0.6246800000000  0.5000480000000 1.0
C      1  0.5000040000000  0.3814940000000  0.4868750000000 1.0
C      1  0.4064750000000  0.5067720000000  0.5680820000000 1.0
C      1  0.4517130000000  0.3764990000000  0.4829550000000 1.0
C      1  0.5533940000000  0.5747700000000  0.5731060000000 1.0
C      1  0.4402130000000  0.5659080000000  0.4160540000000 1.0
C      1  0.4374080000000  0.3841930000000  0.4615890000000 1.0
C      1  0.4678310000000  0.4618420000000  0.5672000000000 1.0
C      1  0.4100770000000  0.4669450000000  0.5929200000000 1.0
C      1  0.5565290000000  0.4666200000000  0.5181090000000 1.0
C      1  0.4218310000000  0.4389850000000  0.4040100000000 1.0
C      1  0.5512070000000  0.5081250000000  0.3945660000000 1.0
C      1  0.6162520000000  0.4830150000000  0.5170180000000 1.0
C      1  0.5531150000000  0.5464100000000  0.6346210000000 1.0
C      1  0.4901510000000  0.5060440000000  0.3783110000000 1.0
C      1  0.5599460000000  0.4873440000000  0.4128990000000 1.0
C      1  0.4285920000000  0.3982640000000  0.4405150000000 1.0
C      1  0.4963560000000  0.5806580000000  0.4821020000000 1.0
C      1  0.4884130000000  0.5559060000000  0.4013750000000 1.0
C      1  0.4053900000000  0.4317140000000  0.5441750000000 1.0
C      1  0.5577340000000  0.4531210000000  0.4934840000000 1.0
C      1  0.5575270000000  0.4946460000000  0.5235290000000 1.0
C      1  0.4127450000000  0.4742750000000  0.5227140000000 1.0
C      1  0.4597760000000  0.4404340000000  0.6080540000000 1.0
C      1  0.5367590000000  0.6137820000000  0.4656730000000 1.0
C      1  0.4423190000000  0.4808220000000  0.5285360000000 1.0
C      1  0.6007430000000  0.4330200000000  0.4396900000000 1.0
C      1  0.4929940000000  0.4786040000000  0.3805490000000 1.0
C      1  0.5707930000000  0.5025310000000  0.4673340000000 1.0
C      1  0.4828540000000  0.5996900000000  0.4664630000000 1.0
C      1  0.4259370000000  0.5200540000000  0.4619750000000 1.0
C      1  0.5003640000000  0.4546830000000  0.3918940000000 1.0
C      1  0.6126310000000  0.5608860000000  0.4641590000000 1.0
C      1  0.4391470000000  0.4568160000000  0.4577260000000 1.0
C      1  0.4962950000000  0.5770390000000  0.5266920000000 1.0
C      1  0.5065720000000  0.4305490000000  0.5969530000000 1.0
C      1  0.5541570000000  0.5430640000000  0.5041040000000 1.0
C      1  0.5868400000000  0.5450520000000  0.5468060000000 1.0
C      1  0.4702200000000  0.5530610000000  0.6451380000000 1.0
C      1  0.4521970000000  0.4580650000000  0.5459880000000 1.0
C      1  0.5617350000000  0.4994420000000  0.6191180000000 1.0
C      1  0.5948560000000  0.4487930000000  0.4191340000000 1.0
C      1  0.6099330000000  0.4552450000000  0.5121820000000 1.0
C      1  0.5429240000000  0.5180730000000  0.5115990000000 1.0
C      1  0.5006230000000  0.5306040000000  0.3908140000000 1.0
C      1  0.4718800000000  0.4307860000000  0.4807760000000 1.0
C      1  0.4499350000000  0.4352640000000  0.5291730000000 1.0
C      1  0.5012580000000  0.4881940000000  0.6029770000000 1.0
C      1  0.4763850000000  0.5883300000000  0.4406260000000 1.0
C      1  0.4369010000000  0.5456370000000  0.5610440000000 1.0
C      1  0.4200570000000  0.5762480000000  0.4902760000000 1.0
C      1  0.6121570000000  0.5103200000000  0.5232020000000 1.0
C      1  0.5944500000000  0.5065830000000  0.4564230000000 1.0
C      1  0.5246480000000  0.4476060000000  0.5524780000000 1.0
C      1  0.4780110000000  0.5308540000000  0.4792130000000 1.0
C      1  0.4941330000000  0.5038870000000  0.5808980000000 1.0
C      1  0.5113730000000  0.6692650000000  0.5600140000000 1.0
C      1  0.5261590000000  0.4743680000000  0.5972250000000 1.0
C      1  0.3998580000000  0.4774710000000  0.5680360000000 1.0
C      1  0.3536870000000  0.4731740000000  0.4421040000000 1.0
C      1  0.5121580000000  0.4197190000000  0.5418620000000 1.0
C      1  0.5536370000000  0.4497630000000  0.5416220000000 1.0
C      1  0.4603180000000  0.4414420000000  0.5039460000000 1.0
C      1  0.4883660000000  0.4955970000000  0.4305480000000 1.0
C      1  0.5261420000000  0.6289280000000  0.4852060000000 1.0
C      1  0.5433050000000  0.4429580000000  0.4730910000000 1.0
C      1  0.4945780000000  0.4950370000000  0.4580380000000 1.0
C      1  0.4882790000000  0.4043630000000  0.5487730000000 1.0
C      1  0.5414160000000  0.5647830000000  0.6192580000000 1.0
C      1  0.5346460000000  0.5636210000000  0.4667960000000 1.0
C      1  0.3851560000000  0.4242400000000  0.3337870000000 1.0
C      1  0.4843370000000  0.5359740000000  0.5079020000000 1.0
C      1  0.5497790000000  0.4905300000000  0.5953110000000 1.0
C      1  0.5422360000000  0.5289790000000  0.5626990000000 1.0
C      1  0.4554110000000  0.4721530000000  0.5013360000000 1.0
C      1  0.4608620000000  0.5041010000000  0.4310200000000 1.0
C      1  0.4698670000000  0.3892810000000  0.5281230000000 1.0
C      1  0.3982990000000  0.5932990000000  0.4886640000000 1.0
C      1  0.5739650000000  0.3823320000000  0.4280900000000 1.0
C      1  0.5610550000000  0.5510460000000  0.5595030000000 1.0
C      1  0.4871980000000  0.5512370000000  0.5937780000000 1.0
C      1  0.3779580000000  0.5114730000000  0.4608010000000 1.0
C      1  0.4204650000000  0.5178270000000  0.4892570000000 1.0
C      1  0.4782830000000  0.6216930000000  0.4853200000000 1.0
C      1  0.5106580000000  0.4063720000000  0.4962070000000 1.0
C      1  0.5025680000000  0.6255520000000  0.5294890000000 1.0
C      1  0.5558250000000  0.5044890000000  0.5713440000000 1.0
C      1  0.6310080000000  0.4628510000000  0.4705850000000 1.0
C      1  0.5124140000000  0.4742860000000  0.5398650000000 1.0
C      1  0.6198250000000  0.5860710000000  0.4747670000000 1.0
C      1  0.5300200000000  0.3962450000000  0.4439910000000 1.0
C      1  0.6123020000000  0.4457330000000  0.4847240000000 1.0
C      1  0.4311140000000  0.4833930000000  0.6049540000000 1.0
C      1  0.4423800000000  0.3920740000000  0.5419990000000 1.0
C      1  0.5951370000000  0.5608480000000  0.4415570000000 1.0
C      1  0.5155040000000  0.4449890000000  0.4675200000000 1.0
C      1  0.5262340000000  0.4836030000000  0.4854350000000 1.0
C      1  0.4738780000000  0.5582770000000  0.5245820000000 1.0
C      1  0.4445370000000  0.6165920000000  0.5237780000000 1.0
C      1  0.5331950000000  0.5716350000000  0.5933740000000 1.0
C      1  0.5127320000000  0.3790760000000  0.4605620000000 1.0
C      1  0.4977090000000  0.5943020000000  0.5701370000000 1.0
C      1  0.5063840000000  0.4716600000000  0.4674270000000 1.0
C      1  0.5457810000000  0.4915560000000  0.4636300000000 1.0
C      1  0.5231030000000  0.5397850000000  0.4538360000000 1.0
C      1  0.4740700000000  0.4041460000000  0.5751670000000 1.0
C      1  0.4078930000000  0.4706970000000  0.4946840000000 1.0
C      1  0.6363900000000  0.4892630000000  0.4672260000000 1.0
C      1  0.6171680000000  0.5965910000000  0.4993530000000 1.0
C      1  0.5465140000000  0.5631410000000  0.4185650000000 1.0
C      1  0.4796470000000  0.5278770000000  0.5784420000000 1.0
C      1  0.6036420000000  0.5569660000000  0.5262300000000 1.0
C      1  0.5683140000000  0.4048640000000  0.5427660000000 1.0
C      1  0.6001070000000  0.4401830000000  0.5338770000000 1.0
C      1  0.4994430000000  0.4270150000000  0.4810740000000 1.0
C      1  0.4983270000000  0.6001300000000  0.5426500000000 1.0
C      1  0.4438290000000  0.5959500000000  0.5411820000000 1.0
C      1  0.5133230000000  0.5750740000000  0.5041720000000 1.0
C      1  0.4824860000000  0.4836010000000  0.5036200000000 1.0
C      1  0.4090560000000  0.4338320000000  0.3796100000000 1.0
C      1  0.5255550000000  0.5207050000000  0.4048630000000 1.0
C      1  0.4290990000000  0.4171170000000  0.5361230000000 1.0
C      1  0.5016900000000  0.5229090000000  0.4650490000000 1.0
C      1  0.4313070000000  0.5394740000000  0.5912860000000 1.0
C      1  0.4358800000000  0.5743680000000  0.4662560000000 1.0
C      1  0.4740070000000  0.3786740000000  0.5005410000000 1.0
C      1  0.4237240000000  0.5107930000000  0.5941180000000 1.0
C      1  0.6199890000000  0.5122780000000  0.4661240000000 1.0
C      1  0.3969580000000  0.5256670000000  0.5030360000000 1.0
C      1  0.4596930000000  0.5260130000000  0.5579550000000 1.0
C      1  0.5719470000000  0.4993690000000  0.5484120000000 1.0
C      1  0.3842150000000  0.4687230000000  0.4800380000000 1.0
C      1  0.5151000000000  0.5252280000000  0.5200840000000 1.0
C      1  0.4601770000000  0.5583550000000  0.3975570000000 1.0
C      1  0.5529940000000  0.3986230000000  0.5198050000000 1.0
C      1  0.6092320000000  0.5839560000000  0.5217010000000 1.0
C      1  0.4793200000000  0.4229340000000  0.5957540000000 1.0
C      1  0.5260630000000  0.4080240000000  0.5194370000000 1.0
C      1  0.4244480000000  0.4175590000000  0.4223440000000 1.0
C      1  0.5149610000000  0.4958760000000  0.4198410000000 1.0
C      1  0.4795140000000  0.4820900000000  0.6198720000000 1.0
C      1  0.5227240000000  0.4493780000000  0.5832960000000 1.0
C      1  0.4312590000000  0.4652680000000  0.4086850000000 1.0
C      1  0.5939480000000  0.5163740000000  0.5450190000000 1.0
C      1  0.5619520000000  0.5212200000000  0.6345990000000 1.0
C      1  0.5593150000000  0.3959810000000  0.4479640000000 1.0
C      1  0.5377910000000  0.5637590000000  0.4949400000000 1.0
C      1  0.5642040000000  0.5991790000000  0.5673900000000 1.0
C      1  0.5023720000000  0.6284780000000  0.5005580000000 1.0
C      1  0.4579920000000  0.4374300000000  0.4571990000000 1.0
C      1  0.5336160000000  0.5891390000000  0.4527980000000 1.0
C      1  0.4228780000000  0.5621960000000  0.5157220000000 1.0
C      1  0.4109170000000  0.5305000000000  0.5500750000000 1.0
C      1  0.5070600000000  0.4971240000000  0.5567300000000 1.0
C      1  0.5675030000000  0.3962610000000  0.4958270000000 1.0
C      1  0.3997230000000  0.5366700000000  0.4236760000000 1.0
C      1  0.5187940000000  0.4143170000000  0.4239590000000 1.0
C      1  0.4142160000000  0.5563280000000  0.4129750000000 1.0
C      1  0.5261720000000  0.5835900000000  0.4254420000000 1.0
C      1  0.5093970000000  0.4339530000000  0.4073590000000 1.0
C      1  0.4493530000000  0.5771710000000  0.4407620000000 1.0
C      1  0.4533690000000  0.5200620000000  0.4551480000000 1.0
C      1  0.4494770000000  0.3901330000000  0.5702400000000 1.0
C      1  0.5751320000000  0.4064940000000  0.4706800000000 1.0
C      1  0.3970090000000  0.4290000000000  0.3565130000000 1.0
C      1  0.5396490000000  0.4863900000000  0.4346180000000 1.0
C      1  0.4042660000000  0.5414780000000  0.5246190000000 1.0
C      1  0.5756790000000  0.4319320000000  0.5455240000000 1.0
C      1  0.4534970000000  0.5058010000000  0.5392900000000 1.0
C      1  0.6197540000000  0.5373350000000  0.4801470000000 1.0
C      1  0.5054910000000  0.5722430000000  0.5860390000000 1.0
C      1  0.4550660000000  0.4687390000000  0.6136350000000 1.0
C      1  0.5101610000000  0.4802700000000  0.5112190000000 1.0
C      1  0.6154070000000  0.5358570000000  0.5087390000000 1.0
C      1  0.4330850000000  0.4712680000000  0.4809850000000 1.0
C      1  0.4771970000000  0.5528410000000  0.6200300000000 1.0
C      1  0.4975630000000  0.5774590000000  0.4208120000000 1.0
C      1  0.5804580000000  0.4690580000000  0.4098440000000 1.0
C      1  0.5964430000000  0.4270780000000  0.4673070000000 1.0
C      1  0.5070530000000  0.6483400000000  0.5450970000000 1.0
C      1  0.5742280000000  0.5646520000000  0.4248420000000 1.0
C      1  0.4013570000000  0.5208510000000  0.4465310000000 1.0
C      1  0.5182630000000  0.5221710000000  0.5481310000000 1.0
C      1  0.5331050000000  0.5389300000000  0.4266720000000 1.0
END
