TITL C-3866669-3764-486 2.34278727586098e-07 125000 -482.893534622411 0 0 79 (C1) n - 1
REM
REM in /home/nfs/bkarasulu/CARBON/AIRSS/Generating-Clusters/LCBOP/Only-C1/SD-CG/FIRE-CG
REM
REM
REM
REM
REM
REM ./C.cell (11c1c37f851c82e70ff6c80c92926a4b)
REM AIRSS Version 0.9.1 bugfix July 2018 build 013d7b7c2542+ Fri, 06 Jul 2018 19:26:36 +0100
REM compiler GCC version 9.2.1 20190827 (Red Hat 9.2.1-1)
REM options -cpp -mtune=generic -march=x86-64 -g -O0 -fpre-include=/usr/include/finclude/math-vector-fortran.h
REM seed 1782425699 893520901 -676405644 885200743 -1409773221 272843498 915745881 1002105194 -2098206099 -1236928623 -1257107733 -278554767 1344868153 -44926058 -1048472444 -265381067 -1981400214 23803901 259534666 -651065226 1849867641 1423695520 -2020396475 -785789446 192849882 1592323760 -2093825456 -881239421 -1927319 -1719048476 -1234059092 -229454584 689164143
REM
CELL 1.54180   50.00000   50.00000   50.00000   90.00000   90.00000   90.00000
LATT -1
SFAC C  
C      1  0.4753320000000  0.4840060000000  0.5912490000000 1.0
C      1  0.4914780000000  0.4878910000000  0.4304830000000 1.0
C      1  0.5238780000000  0.4692180000000  0.4805900000000 1.0
C      1  0.5017620000000  0.5089680000000  0.5369680000000 1.0
C      1  0.5594180000000  0.4360340000000  0.5726870000000 1.0
C      1  0.4019790000000  0.5274160000000  0.4942480000000 1.0
C      1  0.5515490000000  0.5761120000000  0.5251730000000 1.0
C      1  0.4953970000000  0.5333590000000  0.4683780000000 1.0
C      1  0.4441080000000  0.4985430000000  0.3977650000000 1.0
C      1  0.5718750000000  0.5605450000000  0.4831940000000 1.0
C      1  0.4267100000000  0.5374240000000  0.4843910000000 1.0
C      1  0.5550000000000  0.4802530000000  0.5183560000000 1.0
C      1  0.3788120000000  0.5415570000000  0.4908740000000 1.0
C      1  0.5138900000000  0.5129870000000  0.5619320000000 1.0
C      1  0.5367790000000  0.4203560000000  0.5606490000000 1.0
C      1  0.5279260000000  0.5444390000000  0.4002000000000 1.0
C      1  0.5829360000000  0.4305720000000  0.5572260000000 1.0
C      1  0.5391130000000  0.5666780000000  0.4102980000000 1.0
C      1  0.4563100000000  0.4484360000000  0.5194680000000 1.0
C      1  0.5022830000000  0.5778010000000  0.5007280000000 1.0
C      1  0.5387140000000  0.5812430000000  0.4330970000000 1.0
C      1  0.5073670000000  0.5526320000000  0.4523620000000 1.0
C      1  0.4637670000000  0.4337000000000  0.4950670000000 1.0
C      1  0.5830640000000  0.5115510000000  0.4681490000000 1.0
C      1  0.4526330000000  0.5415210000000  0.4199780000000 1.0
C      1  0.4209730000000  0.4858660000000  0.5207140000000 1.0
C      1  0.4239540000000  0.4515690000000  0.4851100000000 1.0
C      1  0.4365930000000  0.5609140000000  0.4684650000000 1.0
C      1  0.5522890000000  0.5757800000000  0.4966830000000 1.0
C      1  0.4288240000000  0.4596180000000  0.5128000000000 1.0
C      1  0.4582610000000  0.4967690000000  0.5751090000000 1.0
C      1  0.4016080000000  0.5022350000000  0.5079050000000 1.0
C      1  0.5620450000000  0.4829460000000  0.5439010000000 1.0
C      1  0.5108360000000  0.5239310000000  0.4020990000000 1.0
C      1  0.4482050000000  0.5121000000000  0.5536710000000 1.0
C      1  0.5469850000000  0.4597900000000  0.5835870000000 1.0
C      1  0.4830410000000  0.4716170000000  0.4522210000000 1.0
C      1  0.4620350000000  0.5183330000000  0.4066780000000 1.0
C      1  0.4594190000000  0.5034870000000  0.5036440000000 1.0
C      1  0.5100890000000  0.5252750000000  0.4912360000000 1.0
C      1  0.4958780000000  0.4746970000000  0.4776720000000 1.0
C      1  0.5294330000000  0.5678330000000  0.5388010000000 1.0
C      1  0.4440140000000  0.5012570000000  0.5279150000000 1.0
C      1  0.5031510000000  0.5316470000000  0.5183200000000 1.0
C      1  0.5471840000000  0.4862530000000  0.4901590000000 1.0
C      1  0.5358670000000  0.5063630000000  0.5757580000000 1.0
C      1  0.5184580000000  0.4542900000000  0.5879610000000 1.0
C      1  0.5742440000000  0.4172700000000  0.5328350000000 1.0
C      1  0.5066960000000  0.5597790000000  0.5236120000000 1.0
C      1  0.5471560000000  0.4075560000000  0.5371060000000 1.0
C      1  0.5125050000000  0.4332020000000  0.5685360000000 1.0
C      1  0.5820280000000  0.5379560000000  0.4729280000000 1.0
C      1  0.5340630000000  0.3895120000000  0.5216140000000 1.0
C      1  0.5241410000000  0.5747530000000  0.4562660000000 1.0
C      1  0.4503190000000  0.5203960000000  0.4840190000000 1.0
C      1  0.4426670000000  0.5392170000000  0.5578040000000 1.0
C      1  0.4594580000000  0.4550630000000  0.4495730000000 1.0
C      1  0.5266490000000  0.5812370000000  0.4839480000000 1.0
C      1  0.4525990000000  0.5476210000000  0.4472260000000 1.0
C      1  0.4682310000000  0.5291250000000  0.4637960000000 1.0
C      1  0.5900270000000  0.4384400000000  0.4869530000000 1.0
C      1  0.4786180000000  0.4576560000000  0.5355170000000 1.0
C      1  0.4910300000000  0.4386400000000  0.5517990000000 1.0
C      1  0.5526910000000  0.4844370000000  0.5704970000000 1.0
C      1  0.4759990000000  0.5852500000000  0.4930040000000 1.0
C      1  0.4514570000000  0.5808890000000  0.4824710000000 1.0
C      1  0.5350210000000  0.5133090000000  0.4882030000000 1.0
C      1  0.5863170000000  0.4613480000000  0.4736830000000 1.0
C      1  0.4821770000000  0.4866310000000  0.4998080000000 1.0
C      1  0.4387880000000  0.5649800000000  0.5583820000000 1.0
C      1  0.5726400000000  0.4858950000000  0.4740480000000 1.0
C      1  0.4889430000000  0.5094440000000  0.4121590000000 1.0
C      1  0.4482680000000  0.4422330000000  0.4721130000000 1.0
C      1  0.6085400000000  0.4362610000000  0.5641690000000 1.0
C      1  0.4380440000000  0.4737410000000  0.4059820000000 1.0
C      1  0.5855190000000  0.4224800000000  0.5078590000000 1.0
C      1  0.4916420000000  0.4828800000000  0.5272370000000 1.0
C      1  0.4448750000000  0.4568490000000  0.4255740000000 1.0
C      1  0.4974260000000  0.4701420000000  0.5973600000000 1.0
END
