TITL C-3866673-4222-87 -35.7647151644273 125000 -754.5474678872 0 0 127 (C1) n - 1
REM
REM in /home/nfs/bkarasulu/CARBON/AIRSS/Generating-Clusters/LCBOP/Only-C1/SD-CG/HFTN-CG/FIRE-CG
REM
REM
REM
REM
REM
REM ./C.cell (11c1c37f851c82e70ff6c80c92926a4b)
REM AIRSS Version 0.9.1 bugfix July 2018 build 013d7b7c2542+ Fri, 06 Jul 2018 19:26:36 +0100
REM compiler GCC version 9.2.1 20190827 (Red Hat 9.2.1-1)
REM options -cpp -mtune=generic -march=x86-64 -g -O0 -fpre-include=/usr/include/finclude/math-vector-fortran.h
REM seed 407703753 -1955407697 -1219614165 -1355794462 323631220 -787628627 1542299182 1478826560 1520112375 97519537 -817424343 -2044003357 1426583793 -1238717901 1832836449 -1308893427 -405237109 1563746605 -730341033 -368626384 -1402479381 756865742 61837599 -1636429617 1863695800 1772551332 -1556442892 945021510 1554707808 144179212 561357109 1707262613 -1275576628
REM
CELL 1.54180   50.00000   50.00000   50.00000   90.00000   90.00000   90.00000
LATT -1
SFAC C  
C      1  0.4836060000000  0.5170490000000  0.3816040000000 1.0
C      1  0.4637270000000  0.5602320000000  0.5513840000000 1.0
C      1  0.5042230000000  0.4450010000000  0.5330890000000 1.0
C      1  0.4688330000000  0.3893840000000  0.4894030000000 1.0
C      1  0.5556080000000  0.5610840000000  0.4620290000000 1.0
C      1  0.4870230000000  0.5449560000000  0.5669800000000 1.0
C      1  0.5216910000000  0.4882110000000  0.5908680000000 1.0
C      1  0.4331040000000  0.5523580000000  0.5330260000000 1.0
C      1  0.5779000000000  0.4672390000000  0.5631950000000 1.0
C      1  0.4847750000000  0.5095920000000  0.5164370000000 1.0
C      1  0.4148120000000  0.5438210000000  0.4986620000000 1.0
C      1  0.4568360000000  0.5335960000000  0.4930870000000 1.0
C      1  0.4923870000000  0.4960960000000  0.4937590000000 1.0
C      1  0.5262200000000  0.4363470000000  0.5168970000000 1.0
C      1  0.5830200000000  0.5122320000000  0.5687720000000 1.0
C      1  0.5964360000000  0.4892100000000  0.5555900000000 1.0
C      1  0.4587580000000  0.4711270000000  0.5613200000000 1.0
C      1  0.3877900000000  0.4985940000000  0.4926820000000 1.0
C      1  0.5630600000000  0.4383320000000  0.6006430000000 1.0
C      1  0.5451560000000  0.4978910000000  0.5463500000000 1.0
C      1  0.5200920000000  0.5648790000000  0.4213400000000 1.0
C      1  0.4119040000000  0.4450880000000  0.4454570000000 1.0
C      1  0.4756600000000  0.4724530000000  0.5837170000000 1.0
C      1  0.4699860000000  0.5892640000000  0.5481100000000 1.0
C      1  0.5219620000000  0.5025630000000  0.5639200000000 1.0
C      1  0.4603670000000  0.5751420000000  0.4304820000000 1.0
C      1  0.4155860000000  0.5510980000000  0.4695810000000 1.0
C      1  0.4455850000000  0.4836320000000  0.4607270000000 1.0
C      1  0.4669450000000  0.5258020000000  0.4681140000000 1.0
C      1  0.4671060000000  0.4745530000000  0.4458010000000 1.0
C      1  0.5341180000000  0.4560260000000  0.4939140000000 1.0
C      1  0.4098140000000  0.4933000000000  0.4356560000000 1.0
C      1  0.5194070000000  0.4314660000000  0.4133200000000 1.0
C      1  0.5022480000000  0.6083820000000  0.4816610000000 1.0
C      1  0.5153940000000  0.4056310000000  0.4816200000000 1.0
C      1  0.4366940000000  0.4409000000000  0.5286470000000 1.0
C      1  0.5020250000000  0.5014370000000  0.6098930000000 1.0
C      1  0.5713590000000  0.5465730000000  0.5375980000000 1.0
C      1  0.5584860000000  0.4703220000000  0.5406360000000 1.0
C      1  0.4545340000000  0.4645940000000  0.5322880000000 1.0
C      1  0.5539200000000  0.5348570000000  0.4741710000000 1.0
C      1  0.5038330000000  0.4626770000000  0.5841410000000 1.0
C      1  0.4146110000000  0.5466580000000  0.4413660000000 1.0
C      1  0.3865810000000  0.4786690000000  0.4743690000000 1.0
C      1  0.5061190000000  0.5589460000000  0.4634550000000 1.0
C      1  0.5130360000000  0.4198800000000  0.4380430000000 1.0
C      1  0.5102000000000  0.4790430000000  0.4055830000000 1.0
C      1  0.4441200000000  0.4872800000000  0.5135600000000 1.0
C      1  0.5090870000000  0.4571250000000  0.4794030000000 1.0
C      1  0.4874230000000  0.4025220000000  0.4723780000000 1.0
C      1  0.5555640000000  0.5941250000000  0.4997040000000 1.0
C      1  0.4956570000000  0.5868100000000  0.4638370000000 1.0
C      1  0.5532630000000  0.4619540000000  0.4249090000000 1.0
C      1  0.5665360000000  0.4639430000000  0.5890600000000 1.0
C      1  0.5915380000000  0.5471960000000  0.5179830000000 1.0
C      1  0.5075430000000  0.6086570000000  0.5101830000000 1.0
C      1  0.4663180000000  0.5585330000000  0.5008400000000 1.0
C      1  0.4821140000000  0.4575710000000  0.5208110000000 1.0
C      1  0.4113360000000  0.5529040000000  0.5490210000000 1.0
C      1  0.5965190000000  0.5028920000000  0.4952720000000 1.0
C      1  0.5142410000000  0.4372430000000  0.5883500000000 1.0
C      1  0.5764650000000  0.4639880000000  0.5171590000000 1.0
C      1  0.5620260000000  0.4555260000000  0.4497320000000 1.0
C      1  0.5197370000000  0.5060940000000  0.4128510000000 1.0
C      1  0.5240350000000  0.4086960000000  0.5086510000000 1.0
C      1  0.4793020000000  0.4752770000000  0.4025890000000 1.0
C      1  0.5043660000000  0.5234120000000  0.5286130000000 1.0
C      1  0.4914780000000  0.4872310000000  0.4495790000000 1.0
C      1  0.3703430000000  0.5542010000000  0.5819020000000 1.0
C      1  0.5044340000000  0.5548500000000  0.5882050000000 1.0
C      1  0.4789580000000  0.3689620000000  0.5063000000000 1.0
C      1  0.5113010000000  0.4684690000000  0.4543260000000 1.0
C      1  0.4893650000000  0.4682380000000  0.4955740000000 1.0
C      1  0.4618830000000  0.4306900000000  0.4335730000000 1.0
C      1  0.4864620000000  0.5948720000000  0.5253600000000 1.0
C      1  0.4568760000000  0.5130230000000  0.5138200000000 1.0
C      1  0.4334760000000  0.4192450000000  0.5134070000000 1.0
C      1  0.3992050000000  0.4706140000000  0.4500630000000 1.0
C      1  0.5329510000000  0.5146460000000  0.4387200000000 1.0
C      1  0.5516070000000  0.4872570000000  0.5976840000000 1.0
C      1  0.5425230000000  0.5666790000000  0.4368650000000 1.0
C      1  0.5773660000000  0.4444270000000  0.4956720000000 1.0
C      1  0.5410330000000  0.5209600000000  0.4968580000000 1.0
C      1  0.5635050000000  0.5692680000000  0.5506100000000 1.0
C      1  0.5292810000000  0.5483500000000  0.5976570000000 1.0
C      1  0.3907290000000  0.5536180000000  0.5656650000000 1.0
C      1  0.5312650000000  0.4181220000000  0.4614670000000 1.0
C      1  0.5592410000000  0.5129610000000  0.4548560000000 1.0
C      1  0.4842630000000  0.4156310000000  0.4459740000000 1.0
C      1  0.4217420000000  0.5350670000000  0.4156650000000 1.0
C      1  0.5310200000000  0.5899350000000  0.5123000000000 1.0
C      1  0.5200890000000  0.3864120000000  0.5253600000000 1.0
C      1  0.5376230000000  0.4270220000000  0.5964780000000 1.0
C      1  0.4735570000000  0.5918850000000  0.4468450000000 1.0
C      1  0.4606260000000  0.6082620000000  0.5652950000000 1.0
C      1  0.5653140000000  0.5823000000000  0.4776710000000 1.0
C      1  0.5291620000000  0.4577210000000  0.4101060000000 1.0
C      1  0.6033750000000  0.5297710000000  0.5013880000000 1.0
C      1  0.5000760000000  0.3683770000000  0.5231020000000 1.0
C      1  0.4448250000000  0.4016700000000  0.4969040000000 1.0
C      1  0.4922490000000  0.5104700000000  0.4676390000000 1.0
C      1  0.5544120000000  0.4430680000000  0.4756810000000 1.0
C      1  0.5705160000000  0.5509890000000  0.6223890000000 1.0
C      1  0.5404050000000  0.4911730000000  0.4977350000000 1.0
C      1  0.4760060000000  0.4930170000000  0.6042790000000 1.0
C      1  0.5029860000000  0.5227830000000  0.5561770000000 1.0
C      1  0.4377840000000  0.4787560000000  0.4870860000000 1.0
C      1  0.4378950000000  0.5162170000000  0.4004640000000 1.0
C      1  0.3986030000000  0.5211050000000  0.5029920000000 1.0
C      1  0.4552860000000  0.5274730000000  0.4422140000000 1.0
C      1  0.4677910000000  0.4573070000000  0.4230600000000 1.0
C      1  0.4347460000000  0.5049910000000  0.4442050000000 1.0
C      1  0.5038480000000  0.5260320000000  0.3991770000000 1.0
C      1  0.4629120000000  0.5001040000000  0.3932060000000 1.0
C      1  0.4338270000000  0.4293970000000  0.4406800000000 1.0
C      1  0.5123860000000  0.5301070000000  0.4570170000000 1.0
C      1  0.5826950000000  0.4257700000000  0.6147370000000 1.0
C      1  0.5823060000000  0.4994720000000  0.4689320000000 1.0
C      1  0.5178650000000  0.5638600000000  0.5118090000000 1.0
C      1  0.5957180000000  0.4856390000000  0.5191720000000 1.0
C      1  0.5659840000000  0.5125720000000  0.5934590000000 1.0
C      1  0.5644550000000  0.5210130000000  0.5476540000000 1.0
C      1  0.4694350000000  0.5485520000000  0.4258490000000 1.0
C      1  0.5550200000000  0.5372090000000  0.6042750000000 1.0
C      1  0.4890650000000  0.5688490000000  0.5124180000000 1.0
C      1  0.4970760000000  0.5487180000000  0.4145420000000 1.0
C      1  0.5240460000000  0.5366840000000  0.5136110000000 1.0
END
