TITL C-3866671-3735-532 -0.166945787050477 125000 -1069.45893427359 0 0 174 (C1) n - 1
REM
REM in /home/nfs/bkarasulu/CARBON/AIRSS/Generating-Clusters/LCBOP/Only-C1/SD-CG/FIRE-CG
REM
REM
REM
REM
REM
REM ./C.cell (11c1c37f851c82e70ff6c80c92926a4b)
REM AIRSS Version 0.9.1 bugfix July 2018 build 013d7b7c2542+ Fri, 06 Jul 2018 19:26:36 +0100
REM compiler GCC version 9.2.1 20190827 (Red Hat 9.2.1-1)
REM options -cpp -mtune=generic -march=x86-64 -g -O0 -fpre-include=/usr/include/finclude/math-vector-fortran.h
REM seed 1448763437 1563153837 1685968094 -285056127 -644020788 -163083174 -931206868 -1711699046 1855304399 2117794937 1455617542 46404663 422090269 -1074293465 688673341 -150575761 1871827726 -1432907116 -204156505 884636194 43644679 -1073313937 1092354460 -2015993461 150217367 114716986 925939869 -1215027623 -350176029 -392560856 640544392 -597070587 -1962155340
REM
CELL 1.54180   50.00000   50.00000   50.00000   90.00000   90.00000   90.00000
LATT -1
SFAC C  
C      1  0.4604050000000  0.6328350000000  0.4397270000000 1.0
C      1  0.4703310000000  0.4900590000000  0.4789710000000 1.0
C      1  0.4396430000000  0.5853370000000  0.4334860000000 1.0
C      1  0.4325700000000  0.5185570000000  0.4677600000000 1.0
C      1  0.4294550000000  0.5140550000000  0.4953920000000 1.0
C      1  0.4226890000000  0.4403560000000  0.4940710000000 1.0
C      1  0.5270410000000  0.4738410000000  0.5566150000000 1.0
C      1  0.3951030000000  0.4787540000000  0.4669650000000 1.0
C      1  0.5802690000000  0.5356200000000  0.5714270000000 1.0
C      1  0.4320030000000  0.4863320000000  0.4290120000000 1.0
C      1  0.4750460000000  0.3956370000000  0.4516000000000 1.0
C      1  0.5038430000000  0.4165600000000  0.5627970000000 1.0
C      1  0.5340340000000  0.5598220000000  0.5840880000000 1.0
C      1  0.5051100000000  0.4536240000000  0.5961950000000 1.0
C      1  0.4910540000000  0.6019250000000  0.5471130000000 1.0
C      1  0.5757340000000  0.4625650000000  0.4467720000000 1.0
C      1  0.4419180000000  0.5760450000000  0.4605980000000 1.0
C      1  0.5029510000000  0.5440540000000  0.5162310000000 1.0
C      1  0.6184690000000  0.4796960000000  0.4928260000000 1.0
C      1  0.5681250000000  0.5023660000000  0.4049760000000 1.0
C      1  0.4843810000000  0.4883880000000  0.6219610000000 1.0
C      1  0.4199320000000  0.5040120000000  0.5761220000000 1.0
C      1  0.5434410000000  0.5840430000000  0.5727220000000 1.0
C      1  0.6093640000000  0.4912860000000  0.5189000000000 1.0
C      1  0.6050260000000  0.5524530000000  0.4840440000000 1.0
C      1  0.5299090000000  0.4605000000000  0.4641560000000 1.0
C      1  0.4896780000000  0.5024680000000  0.4976340000000 1.0
C      1  0.5347780000000  0.5418620000000  0.3931220000000 1.0
C      1  0.3956770000000  0.5058210000000  0.5602940000000 1.0
C      1  0.4146370000000  0.6097050000000  0.5569760000000 1.0
C      1  0.5364710000000  0.4319150000000  0.4734560000000 1.0
C      1  0.4285350000000  0.5448240000000  0.5313140000000 1.0
C      1  0.4154730000000  0.4266640000000  0.5489700000000 1.0
C      1  0.4153980000000  0.5432160000000  0.4273890000000 1.0
C      1  0.6168170000000  0.4876920000000  0.4641270000000 1.0
C      1  0.4984270000000  0.5983690000000  0.4650890000000 1.0
C      1  0.4306030000000  0.4524720000000  0.5900200000000 1.0
C      1  0.5562130000000  0.5007610000000  0.4695260000000 1.0
C      1  0.4950500000000  0.4283070000000  0.5875800000000 1.0
C      1  0.5461580000000  0.5030400000000  0.5238980000000 1.0
C      1  0.4349330000000  0.4479380000000  0.4691490000000 1.0
C      1  0.4581000000000  0.3999390000000  0.5519110000000 1.0
C      1  0.4525620000000  0.4450880000000  0.6073260000000 1.0
C      1  0.4962540000000  0.4967160000000  0.5253130000000 1.0
C      1  0.3815150000000  0.5459060000000  0.4918370000000 1.0
C      1  0.5305640000000  0.5498890000000  0.5211080000000 1.0
C      1  0.5156120000000  0.3870060000000  0.4808080000000 1.0
C      1  0.5930840000000  0.5344120000000  0.4663200000000 1.0
C      1  0.4328500000000  0.6187040000000  0.5742340000000 1.0
C      1  0.5994760000000  0.5558320000000  0.5705670000000 1.0
C      1  0.4773300000000  0.5940360000000  0.5712230000000 1.0
C      1  0.5986500000000  0.4882380000000  0.5467570000000 1.0
C      1  0.6403820000000  0.5000270000000  0.4543430000000 1.0
C      1  0.4340410000000  0.4271650000000  0.4483680000000 1.0
C      1  0.4783200000000  0.4551790000000  0.4081420000000 1.0
C      1  0.4547820000000  0.5492490000000  0.5860420000000 1.0
C      1  0.4480630000000  0.4976340000000  0.5367200000000 1.0
C      1  0.5337850000000  0.5968480000000  0.5239980000000 1.0
C      1  0.5863080000000  0.5065580000000  0.5662850000000 1.0
C      1  0.5273260000000  0.4063440000000  0.5218430000000 1.0
C      1  0.4599380000000  0.4631800000000  0.4747600000000 1.0
C      1  0.6345630000000  0.4564280000000  0.4965740000000 1.0
C      1  0.5134900000000  0.5603190000000  0.4322580000000 1.0
C      1  0.4252430000000  0.4268520000000  0.5760760000000 1.0
C      1  0.5242060000000  0.4068340000000  0.4369430000000 1.0
C      1  0.5057760000000  0.3901320000000  0.4532550000000 1.0
C      1  0.4879710000000  0.5411080000000  0.5390440000000 1.0
C      1  0.5957540000000  0.4602020000000  0.5550730000000 1.0
C      1  0.4364630000000  0.5280730000000  0.5833570000000 1.0
C      1  0.5505190000000  0.5122430000000  0.5972010000000 1.0
C      1  0.5484320000000  0.4198440000000  0.4484280000000 1.0
C      1  0.4683620000000  0.4230970000000  0.5961840000000 1.0
C      1  0.5143320000000  0.5879630000000  0.4440200000000 1.0
C      1  0.5147170000000  0.5093190000000  0.4433590000000 1.0
C      1  0.6611720000000  0.5138560000000  0.4454990000000 1.0
C      1  0.4129150000000  0.5345800000000  0.4544210000000 1.0
C      1  0.4868610000000  0.3967450000000  0.5479030000000 1.0
C      1  0.4578840000000  0.4149410000000  0.4362310000000 1.0
C      1  0.5001830000000  0.6263970000000  0.5030920000000 1.0
C      1  0.4297310000000  0.4760570000000  0.5740060000000 1.0
C      1  0.6183790000000  0.4436980000000  0.5565930000000 1.0
C      1  0.4755220000000  0.4973730000000  0.5458470000000 1.0
C      1  0.5565930000000  0.5734210000000  0.4571690000000 1.0
C      1  0.4780980000000  0.4409840000000  0.4772500000000 1.0
C      1  0.4845090000000  0.4608290000000  0.3820380000000 1.0
C      1  0.5776330000000  0.5418730000000  0.5235830000000 1.0
C      1  0.5074900000000  0.4296250000000  0.4326510000000 1.0
C      1  0.4348000000000  0.4705870000000  0.5433730000000 1.0
C      1  0.6433140000000  0.4388510000000  0.5146990000000 1.0
C      1  0.4838960000000  0.5800700000000  0.4801090000000 1.0
C      1  0.3704060000000  0.5196650000000  0.4907990000000 1.0
C      1  0.4786310000000  0.5361310000000  0.4634070000000 1.0
C      1  0.5956050000000  0.4841130000000  0.4435320000000 1.0
C      1  0.4094620000000  0.4532740000000  0.5368570000000 1.0
C      1  0.4995320000000  0.5356760000000  0.4406520000000 1.0
C      1  0.4939770000000  0.4381380000000  0.4546250000000 1.0
C      1  0.4093940000000  0.4182300000000  0.4398160000000 1.0
C      1  0.4478250000000  0.6117530000000  0.4287420000000 1.0
C      1  0.4654190000000  0.4190300000000  0.4919050000000 1.0
C      1  0.5228750000000  0.4924970000000  0.5353170000000 1.0
C      1  0.5353180000000  0.5167340000000  0.4616510000000 1.0
C      1  0.4997650000000  0.3737930000000  0.5018300000000 1.0
C      1  0.5238950000000  0.5160000000000  0.3886890000000 1.0
C      1  0.4788900000000  0.5679680000000  0.5843000000000 1.0
C      1  0.4604140000000  0.5116050000000  0.4584420000000 1.0
C      1  0.4498200000000  0.4098410000000  0.5782380000000 1.0
C      1  0.5623310000000  0.4829180000000  0.5130880000000 1.0
C      1  0.5053000000000  0.5546200000000  0.5824260000000 1.0
C      1  0.5690250000000  0.4943820000000  0.5868710000000 1.0
C      1  0.5242420000000  0.4287100000000  0.5419130000000 1.0
C      1  0.4079980000000  0.5644080000000  0.5295110000000 1.0
C      1  0.5419790000000  0.5957120000000  0.4468500000000 1.0
C      1  0.5077740000000  0.4808510000000  0.4438560000000 1.0
C      1  0.5515590000000  0.5309460000000  0.5249790000000 1.0
C      1  0.4578700000000  0.6119980000000  0.5807210000000 1.0
C      1  0.4548980000000  0.4521120000000  0.5284170000000 1.0
C      1  0.5681430000000  0.4367950000000  0.4349080000000 1.0
C      1  0.3902320000000  0.4764680000000  0.4957060000000 1.0
C      1  0.5048860000000  0.3867370000000  0.5269740000000 1.0
C      1  0.5387030000000  0.5537820000000  0.4181250000000 1.0
C      1  0.4004140000000  0.5536250000000  0.4724980000000 1.0
C      1  0.5436260000000  0.4697200000000  0.3802150000000 1.0
C      1  0.5852970000000  0.5077160000000  0.4270700000000 1.0
C      1  0.6812990000000  0.5280050000000  0.4368810000000 1.0
C      1  0.4612120000000  0.4973080000000  0.4299730000000 1.0
C      1  0.4779550000000  0.6402770000000  0.4588660000000 1.0
C      1  0.4031240000000  0.4549220000000  0.5088980000000 1.0
C      1  0.5387150000000  0.5740920000000  0.5072750000000 1.0
C      1  0.4096020000000  0.4814030000000  0.4439580000000 1.0
C      1  0.6371920000000  0.4338530000000  0.5403020000000 1.0
C      1  0.4653820000000  0.5625280000000  0.4689380000000 1.0
C      1  0.5468550000000  0.5967540000000  0.5492680000000 1.0
C      1  0.4644570000000  0.3935660000000  0.4788940000000 1.0
C      1  0.5301710000000  0.4107590000000  0.4927100000000 1.0
C      1  0.4841910000000  0.4913520000000  0.5729710000000 1.0
C      1  0.4265630000000  0.5660050000000  0.4174030000000 1.0
C      1  0.3784420000000  0.4988940000000  0.5095100000000 1.0
C      1  0.3792750000000  0.5100290000000  0.5373170000000 1.0
C      1  0.5624830000000  0.5543260000000  0.4351750000000 1.0
C      1  0.4358340000000  0.5189440000000  0.5221830000000 1.0
C      1  0.4177120000000  0.5758510000000  0.4752970000000 1.0
C      1  0.3694010000000  0.5372710000000  0.5368320000000 1.0
C      1  0.5442730000000  0.4957790000000  0.3904630000000 1.0
C      1  0.4817720000000  0.4549870000000  0.5275350000000 1.0
C      1  0.4717530000000  0.5134590000000  0.4058490000000 1.0
C      1  0.4756860000000  0.4999890000000  0.5987790000000 1.0
C      1  0.5701460000000  0.4587680000000  0.5067080000000 1.0
C      1  0.4362380000000  0.4100530000000  0.5339630000000 1.0
C      1  0.5559570000000  0.4466690000000  0.3861610000000 1.0
C      1  0.5974900000000  0.5538120000000  0.5099690000000 1.0
C      1  0.4728690000000  0.3712340000000  0.4938550000000 1.0
C      1  0.5836470000000  0.5347730000000  0.4391590000000 1.0
C      1  0.4093270000000  0.5901730000000  0.5398010000000 1.0
C      1  0.5076630000000  0.6095100000000  0.5248020000000 1.0
C      1  0.4445300000000  0.4279440000000  0.5115820000000 1.0
C      1  0.5790060000000  0.5134370000000  0.4793230000000 1.0
C      1  0.4950370000000  0.6248190000000  0.4751270000000 1.0
C      1  0.4984940000000  0.5314780000000  0.4891880000000 1.0
C      1  0.5271170000000  0.5383850000000  0.4770380000000 1.0
C      1  0.4993280000000  0.5353530000000  0.5627090000000 1.0
C      1  0.3831880000000  0.5549360000000  0.5191250000000 1.0
C      1  0.5429920000000  0.5631270000000  0.4806490000000 1.0
C      1  0.4669700000000  0.4298880000000  0.4140120000000 1.0
C      1  0.4829310000000  0.4746640000000  0.4293640000000 1.0
C      1  0.5545020000000  0.4741710000000  0.4620360000000 1.0
C      1  0.5423350000000  0.4494720000000  0.5535700000000 1.0
C      1  0.5685670000000  0.4350240000000  0.4067420000000 1.0
C      1  0.5699240000000  0.4490420000000  0.5578700000000 1.0
C      1  0.4994290000000  0.4654980000000  0.6215350000000 1.0
C      1  0.5538030000000  0.5387510000000  0.5859290000000 1.0
C      1  0.5065770000000  0.4732670000000  0.5755360000000 1.0
C      1  0.4953300000000  0.5139660000000  0.3917310000000 1.0
C      1  0.5062580000000  0.4464310000000  0.5251180000000 1.0
C      1  0.6170470000000  0.5750270000000  0.5719810000000 1.0
END
