TITL C-3866676-3738-238 1.10509963665214 125000 -725.234438567991 0 0 119 (C1) n - 1
REM
REM in /home/nfs/bkarasulu/CARBON/AIRSS/Generating-Clusters/LCBOP/Only-C1/SD-CG/HFTN-CG/FIRE-CG
REM
REM
REM
REM
REM
REM ./C.cell (11c1c37f851c82e70ff6c80c92926a4b)
REM AIRSS Version 0.9.1 bugfix July 2018 build 013d7b7c2542+ Fri, 06 Jul 2018 19:26:36 +0100
REM compiler GCC version 9.2.1 20190827 (Red Hat 9.2.1-1)
REM options -cpp -mtune=generic -march=x86-64 -g -O0 -fpre-include=/usr/include/finclude/math-vector-fortran.h
REM seed -1730161582 766708952 -255102163 1129663927 982048279 2066038845 1218860928 987422155 1431699630 304388919 -2003544776 -956954372 1166732881 2069926687 363636870 -812138010 -1673911121 -1571850057 -32339002 120472749 116568029 437623959 1832259009 -593405195 1274540611 1381374954 1919831275 766952645 -174284983 -850296190 1213173017 813253292 337193096
REM
CELL 1.54180   50.00000   50.00000   50.00000   90.00000   90.00000   90.00000
LATT -1
SFAC C  
C      1  0.5284590000000  0.5753720000000  0.5570650000000 1.0
C      1  0.5121570000000  0.4004020000000  0.5670730000000 1.0
C      1  0.5056820000000  0.5561300000000  0.4834310000000 1.0
C      1  0.5791670000000  0.4708230000000  0.4293530000000 1.0
C      1  0.4240420000000  0.5396140000000  0.4567100000000 1.0
C      1  0.4457800000000  0.5558160000000  0.4149250000000 1.0
C      1  0.5406520000000  0.5815960000000  0.5321780000000 1.0
C      1  0.4654310000000  0.5156020000000  0.4742620000000 1.0
C      1  0.4851830000000  0.3659900000000  0.4634430000000 1.0
C      1  0.4878920000000  0.4586370000000  0.5981570000000 1.0
C      1  0.5415420000000  0.6365240000000  0.4863060000000 1.0
C      1  0.4689090000000  0.5106210000000  0.5690330000000 1.0
C      1  0.5420210000000  0.4814970000000  0.5019540000000 1.0
C      1  0.4765450000000  0.5773600000000  0.5383060000000 1.0
C      1  0.4952650000000  0.5398460000000  0.5076360000000 1.0
C      1  0.4250550000000  0.5703610000000  0.5450390000000 1.0
C      1  0.4913820000000  0.4936750000000  0.4340610000000 1.0
C      1  0.4164270000000  0.5461040000000  0.5334670000000 1.0
C      1  0.4479380000000  0.4949860000000  0.5808270000000 1.0
C      1  0.5911730000000  0.3790540000000  0.4740850000000 1.0
C      1  0.4617630000000  0.4047520000000  0.5653310000000 1.0
C      1  0.4764030000000  0.5587240000000  0.3754440000000 1.0
C      1  0.6201650000000  0.4810370000000  0.3980890000000 1.0
C      1  0.4162890000000  0.4978960000000  0.5293420000000 1.0
C      1  0.5415850000000  0.5184840000000  0.5885700000000 1.0
C      1  0.5852700000000  0.5631550000000  0.5253310000000 1.0
C      1  0.5394720000000  0.4905380000000  0.5282470000000 1.0
C      1  0.4352700000000  0.4480460000000  0.5634620000000 1.0
C      1  0.4557620000000  0.4676830000000  0.4697170000000 1.0
C      1  0.4208760000000  0.4968860000000  0.4835550000000 1.0
C      1  0.5564130000000  0.6181920000000  0.5030000000000 1.0
C      1  0.4946150000000  0.5046660000000  0.5807870000000 1.0
C      1  0.4525440000000  0.4290730000000  0.5759030000000 1.0
C      1  0.5296030000000  0.4075890000000  0.5133770000000 1.0
C      1  0.5451570000000  0.4996410000000  0.4792900000000 1.0
C      1  0.4410360000000  0.4342000000000  0.5145230000000 1.0
C      1  0.4683050000000  0.4407270000000  0.5093290000000 1.0
C      1  0.4303890000000  0.5211110000000  0.5422550000000 1.0
C      1  0.4931160000000  0.5220780000000  0.4370140000000 1.0
C      1  0.4361710000000  0.4172750000000  0.4701280000000 1.0
C      1  0.5321120000000  0.4711350000000  0.5805340000000 1.0
C      1  0.6524070000000  0.5895850000000  0.5150710000000 1.0
C      1  0.5204410000000  0.5334060000000  0.5225630000000 1.0
C      1  0.4851210000000  0.3934030000000  0.4609050000000 1.0
C      1  0.5814850000000  0.4466710000000  0.4996290000000 1.0
C      1  0.4596320000000  0.4064470000000  0.4616770000000 1.0
C      1  0.5170330000000  0.5362000000000  0.4406040000000 1.0
C      1  0.5850270000000  0.4781460000000  0.5432110000000 1.0
C      1  0.5388800000000  0.4852300000000  0.4548950000000 1.0
C      1  0.4650930000000  0.5674480000000  0.3982620000000 1.0
C      1  0.5987640000000  0.3541710000000  0.4724040000000 1.0
C      1  0.5349830000000  0.6046720000000  0.5179400000000 1.0
C      1  0.5141150000000  0.6337400000000  0.4901020000000 1.0
C      1  0.4819300000000  0.4528910000000  0.5310060000000 1.0
C      1  0.5279580000000  0.4328700000000  0.5072160000000 1.0
C      1  0.5041580000000  0.4776170000000  0.5855750000000 1.0
C      1  0.5443850000000  0.5405760000000  0.5081270000000 1.0
C      1  0.5137410000000  0.5230910000000  0.5901740000000 1.0
C      1  0.5512110000000  0.4923570000000  0.5794020000000 1.0
C      1  0.4333960000000  0.4727660000000  0.5772900000000 1.0
C      1  0.5258950000000  0.4582110000000  0.4959460000000 1.0
C      1  0.4672960000000  0.4853230000000  0.4209640000000 1.0
C      1  0.5997920000000  0.4759940000000  0.4135530000000 1.0
C      1  0.5105290000000  0.4061840000000  0.4578670000000 1.0
C      1  0.5749980000000  0.4970990000000  0.5619830000000 1.0
C      1  0.4089610000000  0.5390120000000  0.5057980000000 1.0
C      1  0.5090060000000  0.4761480000000  0.4514820000000 1.0
C      1  0.4844850000000  0.5151760000000  0.4947500000000 1.0
C      1  0.5462990000000  0.5640990000000  0.5757260000000 1.0
C      1  0.4470970000000  0.4942020000000  0.4746090000000 1.0
C      1  0.5081860000000  0.6133270000000  0.5097630000000 1.0
C      1  0.4488880000000  0.5826190000000  0.5495310000000 1.0
C      1  0.5269720000000  0.4280330000000  0.4505140000000 1.0
C      1  0.5823470000000  0.6078570000000  0.5057010000000 1.0
C      1  0.5443850000000  0.5284830000000  0.4819080000000 1.0
C      1  0.4505300000000  0.5567730000000  0.4990000000000 1.0
C      1  0.4127000000000  0.4693630000000  0.5250170000000 1.0
C      1  0.4487780000000  0.5476170000000  0.4421260000000 1.0
C      1  0.3957400000000  0.4916200000000  0.4484520000000 1.0
C      1  0.4689130000000  0.4400260000000  0.5962590000000 1.0
C      1  0.4754670000000  0.4523210000000  0.4834220000000 1.0
C      1  0.4588090000000  0.5257450000000  0.5461380000000 1.0
C      1  0.5934410000000  0.5430280000000  0.5436190000000 1.0
C      1  0.4890150000000  0.4788480000000  0.5284310000000 1.0
C      1  0.5831190000000  0.4042300000000  0.4758430000000 1.0
C      1  0.5575740000000  0.5622780000000  0.5196450000000 1.0
C      1  0.5248240000000  0.5107890000000  0.5381170000000 1.0
C      1  0.4059800000000  0.4559160000000  0.4914610000000 1.0
C      1  0.4510730000000  0.4954920000000  0.3772290000000 1.0
C      1  0.6263790000000  0.5882810000000  0.5150920000000 1.0
C      1  0.5725140000000  0.4300710000000  0.4778700000000 1.0
C      1  0.4713030000000  0.5503610000000  0.5231590000000 1.0
C      1  0.4268280000000  0.5387670000000  0.4020370000000 1.0
C      1  0.4116930000000  0.5152110000000  0.4405600000000 1.0
C      1  0.4932800000000  0.4903120000000  0.5027490000000 1.0
C      1  0.4751710000000  0.5365830000000  0.3603020000000 1.0
C      1  0.4642360000000  0.5120970000000  0.3607250000000 1.0
C      1  0.4857130000000  0.5996660000000  0.5194800000000 1.0
C      1  0.5535860000000  0.4385090000000  0.4576890000000 1.0
C      1  0.4256010000000  0.5496060000000  0.4849810000000 1.0
C      1  0.5010350000000  0.4686310000000  0.4818850000000 1.0
C      1  0.5587340000000  0.5391000000000  0.5786570000000 1.0
C      1  0.5307530000000  0.4189050000000  0.5720310000000 1.0
C      1  0.5795390000000  0.5266110000000  0.5620450000000 1.0
C      1  0.4704220000000  0.5317230000000  0.4511010000000 1.0
C      1  0.5862460000000  0.4612400000000  0.5220150000000 1.0
C      1  0.4245490000000  0.5128250000000  0.4140550000000 1.0
C      1  0.4864140000000  0.3943170000000  0.5631240000000 1.0
C      1  0.5383710000000  0.4441220000000  0.5762190000000 1.0
C      1  0.4030050000000  0.4772670000000  0.4723020000000 1.0
C      1  0.4999560000000  0.5748560000000  0.5576610000000 1.0
C      1  0.4091330000000  0.5106540000000  0.5044360000000 1.0
C      1  0.4453310000000  0.4943670000000  0.4050690000000 1.0
C      1  0.4281980000000  0.4483850000000  0.5360950000000 1.0
C      1  0.5256560000000  0.5439500000000  0.4661290000000 1.0
C      1  0.4242710000000  0.4330960000000  0.4906540000000 1.0
C      1  0.5581330000000  0.4651820000000  0.4466270000000 1.0
C      1  0.5985960000000  0.5864760000000  0.5154030000000 1.0
C      1  0.5114760000000  0.4488320000000  0.4384030000000 1.0
END
