TITL C-3866672-3872-505 -82537.5230048447 125000 -1053.21423576856 0 0 170 (C1) n - 1
REM
REM in /home/nfs/bkarasulu/CARBON/AIRSS/Generating-Clusters/LCBOP/Only-C1/SD-CG/FIRE-CG
REM
REM
REM
REM
REM
REM ./C.cell (11c1c37f851c82e70ff6c80c92926a4b)
REM AIRSS Version 0.9.1 bugfix July 2018 build 013d7b7c2542+ Fri, 06 Jul 2018 19:26:36 +0100
REM compiler GCC version 9.2.1 20190827 (Red Hat 9.2.1-1)
REM options -cpp -mtune=generic -march=x86-64 -g -O0 -fpre-include=/usr/include/finclude/math-vector-fortran.h
REM seed 444171602 -955208175 1173971758 -670637980 1432324145 -1862037055 -674785163 1259878437 135249291 468726204 756443570 -343695895 84118184 -1733192763 -1789297163 1631118479 -901978853 -1732478096 1033332348 573275973 400185907 1247501114 286540036 -2068590554 -1763692700 -1519442512 -1046863347 -1429212508 -313857936 84305199 212413823 -2041564590 1479296560
REM
CELL 1.54180   50.00000   50.00000   50.00000   90.00000   90.00000   90.00000
LATT -1
SFAC C  
C      1  0.4139790000000  0.4515000000000  0.4430110000000 1.0
C      1  0.5609270000000  0.4055930000000  0.5338100000000 1.0
C      1  0.5954750000000  0.4559880000000  0.5561300000000 1.0
C      1  0.6081310000000  0.4497750000000  0.5297110000000 1.0
C      1  0.6037550000000  0.5296670000000  0.4540780000000 1.0
C      1  0.4889450000000  0.5237270000000  0.4779070000000 1.0
C      1  0.4802100000000  0.5279640000000  0.4097770000000 1.0
C      1  0.4281670000000  0.4716650000000  0.6183160000000 1.0
C      1  0.5279020000000  0.4539240000000  0.5951790000000 1.0
C      1  0.4025110000000  0.4736880000000  0.5501840000000 1.0
C      1  0.5668810000000  0.4536650000000  0.5135470000000 1.0
C      1  0.4434850000000  0.4910080000000  0.4408220000000 1.0
C      1  0.4921850000000  0.5404130000000  0.5541200000000 1.0
C      1  0.5182950000000  0.6134390000000  0.4974820000000 1.0
C      1  0.4188210000000  0.4255240000000  0.4698590000000 1.0
C      1  0.4945060000000  0.4105880000000  0.4589450000000 1.0
C      1  0.6224950000000  0.4716810000000  0.5154520000000 1.0
C      1  0.3747800000000  0.5244390000000  0.5113620000000 1.0
C      1  0.3931700000000  0.5504180000000  0.4320590000000 1.0
C      1  0.4948660000000  0.4613230000000  0.4627060000000 1.0
C      1  0.4085580000000  0.5461730000000  0.4100790000000 1.0
C      1  0.4418390000000  0.5186940000000  0.4466600000000 1.0
C      1  0.5357480000000  0.5714680000000  0.4879580000000 1.0
C      1  0.5020350000000  0.4560450000000  0.5802730000000 1.0
C      1  0.4254690000000  0.4694340000000  0.4850520000000 1.0
C      1  0.5214810000000  0.4724110000000  0.3777980000000 1.0
C      1  0.5873120000000  0.5702870000000  0.5164280000000 1.0
C      1  0.4458610000000  0.4285630000000  0.5612010000000 1.0
C      1  0.4468350000000  0.5444180000000  0.4579510000000 1.0
C      1  0.3674850000000  0.5418130000000  0.5623510000000 1.0
C      1  0.4701900000000  0.5956420000000  0.5047040000000 1.0
C      1  0.5275110000000  0.4738130000000  0.5337730000000 1.0
C      1  0.4883060000000  0.4827560000000  0.5083260000000 1.0
C      1  0.3605730000000  0.5036110000000  0.5046730000000 1.0
C      1  0.4952200000000  0.6087560000000  0.5154350000000 1.0
C      1  0.5636000000000  0.5490190000000  0.5537330000000 1.0
C      1  0.5571760000000  0.5451600000000  0.5811170000000 1.0
C      1  0.5102360000000  0.3877850000000  0.5484110000000 1.0
C      1  0.6026130000000  0.5490530000000  0.5013160000000 1.0
C      1  0.3575750000000  0.4932640000000  0.5650770000000 1.0
C      1  0.4351400000000  0.5926450000000  0.4576370000000 1.0
C      1  0.5417140000000  0.5015290000000  0.5703730000000 1.0
C      1  0.5776950000000  0.3725060000000  0.4784690000000 1.0
C      1  0.4477520000000  0.5538280000000  0.5812780000000 1.0
C      1  0.5983850000000  0.5553530000000  0.4711760000000 1.0
C      1  0.5789510000000  0.4698280000000  0.4150580000000 1.0
C      1  0.3775350000000  0.4764130000000  0.5592030000000 1.0
C      1  0.4706330000000  0.5487470000000  0.4720220000000 1.0
C      1  0.4700160000000  0.4289690000000  0.5465890000000 1.0
C      1  0.4937990000000  0.4327860000000  0.5636450000000 1.0
C      1  0.5255620000000  0.4463970000000  0.6217760000000 1.0
C      1  0.5089160000000  0.4087240000000  0.5653340000000 1.0
C      1  0.4852050000000  0.4804050000000  0.5821830000000 1.0
C      1  0.4806120000000  0.3943330000000  0.4781750000000 1.0
C      1  0.4988360000000  0.5350060000000  0.4308040000000 1.0
C      1  0.5324500000000  0.5097510000000  0.4560390000000 1.0
C      1  0.4332340000000  0.4335200000000  0.5841320000000 1.0
C      1  0.4868680000000  0.4209790000000  0.4315160000000 1.0
C      1  0.4770120000000  0.5709720000000  0.4901010000000 1.0
C      1  0.3957300000000  0.5443650000000  0.5588280000000 1.0
C      1  0.5510660000000  0.5356430000000  0.4014030000000 1.0
C      1  0.5745010000000  0.4976110000000  0.4140410000000 1.0
C      1  0.5220120000000  0.4494970000000  0.4638530000000 1.0
C      1  0.4308040000000  0.4411300000000  0.4895180000000 1.0
C      1  0.5553380000000  0.4587640000000  0.5857990000000 1.0
C      1  0.5039660000000  0.4061340000000  0.4135210000000 1.0
C      1  0.5077280000000  0.5250510000000  0.6017280000000 1.0
C      1  0.5878040000000  0.5205470000000  0.4298880000000 1.0
C      1  0.4337660000000  0.5457510000000  0.4004340000000 1.0
C      1  0.4796440000000  0.5964220000000  0.4292510000000 1.0
C      1  0.4061260000000  0.4346570000000  0.4224800000000 1.0
C      1  0.5473960000000  0.5065300000000  0.4012070000000 1.0
C      1  0.6191830000000  0.5127870000000  0.4725920000000 1.0
C      1  0.6314800000000  0.4874580000000  0.4699280000000 1.0
C      1  0.5725810000000  0.4404900000000  0.5696550000000 1.0
C      1  0.4174130000000  0.4020370000000  0.4544730000000 1.0
C      1  0.5080690000000  0.5363290000000  0.4976310000000 1.0
C      1  0.3525590000000  0.5196380000000  0.5659540000000 1.0
C      1  0.4577610000000  0.4373620000000  0.4974460000000 1.0
C      1  0.4930220000000  0.5614260000000  0.5736070000000 1.0
C      1  0.5552300000000  0.4284530000000  0.5498690000000 1.0
C      1  0.5504590000000  0.4023780000000  0.4354180000000 1.0
C      1  0.4260340000000  0.4735480000000  0.4555610000000 1.0
C      1  0.3894200000000  0.5484610000000  0.5094940000000 1.0
C      1  0.4793890000000  0.5527840000000  0.5327570000000 1.0
C      1  0.5034490000000  0.6047660000000  0.5426990000000 1.0
C      1  0.4833220000000  0.5049880000000  0.6001680000000 1.0
C      1  0.5488580000000  0.4869820000000  0.4529900000000 1.0
C      1  0.4691110000000  0.5691300000000  0.5850050000000 1.0
C      1  0.5581740000000  0.4654650000000  0.4910230000000 1.0
C      1  0.5305700000000  0.4620670000000  0.4888210000000 1.0
C      1  0.5752330000000  0.5909460000000  0.4970440000000 1.0
C      1  0.5133140000000  0.6077380000000  0.4687480000000 1.0
C      1  0.4518900000000  0.5498500000000  0.5305140000000 1.0
C      1  0.6154830000000  0.5216630000000  0.5008380000000 1.0
C      1  0.5633890000000  0.4852480000000  0.5764840000000 1.0
C      1  0.4698450000000  0.5763720000000  0.4135900000000 1.0
C      1  0.5492620000000  0.5301720000000  0.4710600000000 1.0
C      1  0.5892910000000  0.5999080000000  0.4497240000000 1.0
C      1  0.4930400000000  0.5568960000000  0.5096260000000 1.0
C      1  0.5857180000000  0.4840450000000  0.5579970000000 1.0
C      1  0.5748480000000  0.4095110000000  0.5085640000000 1.0
C      1  0.5541990000000  0.5306690000000  0.5346340000000 1.0
C      1  0.5420020000000  0.4607790000000  0.4436750000000 1.0
C      1  0.4314340000000  0.5694000000000  0.5282330000000 1.0
C      1  0.4460860000000  0.5235200000000  0.5271080000000 1.0
C      1  0.5290710000000  0.5529080000000  0.3987740000000 1.0
C      1  0.5158410000000  0.5569900000000  0.4236800000000 1.0
C      1  0.4291150000000  0.4859030000000  0.5077070000000 1.0
C      1  0.4057160000000  0.5127820000000  0.6024770000000 1.0
C      1  0.5225490000000  0.4972290000000  0.5503910000000 1.0
C      1  0.4436600000000  0.5936460000000  0.5173810000000 1.0
C      1  0.4836580000000  0.3987070000000  0.5067180000000 1.0
C      1  0.4406080000000  0.5251120000000  0.5756180000000 1.0
C      1  0.4073120000000  0.4078300000000  0.4283060000000 1.0
C      1  0.5188520000000  0.5718230000000  0.5768620000000 1.0
C      1  0.5029030000000  0.5136710000000  0.4528710000000 1.0
C      1  0.4916230000000  0.4851770000000  0.4482990000000 1.0
C      1  0.5497080000000  0.6052760000000  0.5107610000000 1.0
C      1  0.5869100000000  0.5828220000000  0.4709330000000 1.0
C      1  0.5655580000000  0.3968550000000  0.4839880000000 1.0
C      1  0.4047880000000  0.5572130000000  0.5329830000000 1.0
C      1  0.5333160000000  0.5443570000000  0.4907670000000 1.0
C      1  0.4730100000000  0.4802520000000  0.4249830000000 1.0
C      1  0.5713360000000  0.5729550000000  0.5409800000000 1.0
C      1  0.5670930000000  0.4226180000000  0.4250490000000 1.0
C      1  0.4342820000000  0.3806890000000  0.4605510000000 1.0
C      1  0.6341290000000  0.4688250000000  0.4896350000000 1.0
C      1  0.5332450000000  0.5680150000000  0.4427990000000 1.0
C      1  0.5311310000000  0.5492580000000  0.5911910000000 1.0
C      1  0.4740880000000  0.5027470000000  0.4935890000000 1.0
C      1  0.5208530000000  0.4199420000000  0.4665660000000 1.0
C      1  0.4456570000000  0.5055880000000  0.5516300000000 1.0
C      1  0.4285390000000  0.4480010000000  0.6059860000000 1.0
C      1  0.5670830000000  0.4867800000000  0.4757620000000 1.0
C      1  0.4741260000000  0.4926140000000  0.5556160000000 1.0
C      1  0.5148130000000  0.4743270000000  0.5081680000000 1.0
C      1  0.4976730000000  0.5124900000000  0.5512540000000 1.0
C      1  0.4101990000000  0.5276910000000  0.5779040000000 1.0
C      1  0.4477710000000  0.5077930000000  0.5036140000000 1.0
C      1  0.5549920000000  0.5497430000000  0.4477180000000 1.0
C      1  0.4536240000000  0.5107890000000  0.6008750000000 1.0
C      1  0.5685000000000  0.5415570000000  0.4242190000000 1.0
C      1  0.4869390000000  0.4999340000000  0.4041410000000 1.0
C      1  0.5664160000000  0.5120400000000  0.4894920000000 1.0
C      1  0.5886930000000  0.4996530000000  0.5340250000000 1.0
C      1  0.5454320000000  0.4051070000000  0.4642630000000 1.0
C      1  0.4011160000000  0.5591420000000  0.4578110000000 1.0
C      1  0.5284580000000  0.3953620000000  0.4185890000000 1.0
C      1  0.4751570000000  0.4472480000000  0.4228880000000 1.0
C      1  0.6131670000000  0.4992280000000  0.5199080000000 1.0
C      1  0.4594120000000  0.3781700000000  0.4693390000000 1.0
C      1  0.5291230000000  0.5847750000000  0.4642590000000 1.0
C      1  0.4292650000000  0.4991040000000  0.6129970000000 1.0
C      1  0.4286220000000  0.5661440000000  0.4579200000000 1.0
C      1  0.5888820000000  0.4352590000000  0.5129110000000 1.0
C      1  0.5258490000000  0.5913530000000  0.5554480000000 1.0
C      1  0.5001860000000  0.3837830000000  0.5237970000000 1.0
C      1  0.4926170000000  0.6099500000000  0.4491410000000 1.0
C      1  0.4754960000000  0.4496160000000  0.4791430000000 1.0
C      1  0.4615290000000  0.5497490000000  0.4048800000000 1.0
C      1  0.4697070000000  0.4215770000000  0.5180740000000 1.0
C      1  0.5623080000000  0.4500770000000  0.4264870000000 1.0
C      1  0.5499620000000  0.5928940000000  0.5388540000000 1.0
C      1  0.4754630000000  0.4746040000000  0.5321010000000 1.0
C      1  0.4254050000000  0.4839030000000  0.5381090000000 1.0
C      1  0.5202190000000  0.4937930000000  0.3950180000000 1.0
C      1  0.3896290000000  0.5593340000000  0.4834110000000 1.0
C      1  0.5470010000000  0.4522560000000  0.5345500000000 1.0
C      1  0.5681920000000  0.5127600000000  0.5186760000000 1.0
END
