TITL C-3866676-3738-302 -3.00954335997515e-06 125000 -1154.47645577958 0 0 187 (C1) n - 1
REM
REM in /home/nfs/bkarasulu/CARBON/AIRSS/Generating-Clusters/LCBOP/Only-C1/SD-CG/FIRE-CG
REM
REM
REM
REM
REM
REM ./C.cell (11c1c37f851c82e70ff6c80c92926a4b)
REM AIRSS Version 0.9.1 bugfix July 2018 build 013d7b7c2542+ Fri, 06 Jul 2018 19:26:36 +0100
REM compiler GCC version 9.2.1 20190827 (Red Hat 9.2.1-1)
REM options -cpp -mtune=generic -march=x86-64 -g -O0 -fpre-include=/usr/include/finclude/math-vector-fortran.h
REM seed -739041499 -1144222852 684649099 -1262463051 650796699 -897780214 1271055298 1435416318 -2075104545 -286941062 715471853 528404030 657733559 -1723210440 -845083938 1161287251 -1066475677 1056410348 267064866 -1598008982 955642498 1366607147 524522381 526935117 -1012228898 -1417811449 -354425710 1905041203 1092371012 293933806 1561414502 273655046 -1574328005
REM
CELL 1.54180   50.00000   50.00000   50.00000   90.00000   90.00000   90.00000
LATT -1
SFAC C  
C      1  0.6238410000000  0.5191040000000  0.4910200000000 1.0
C      1  0.5014190000000  0.4592250000000  0.4500290000000 1.0
C      1  0.4689500000000  0.4119070000000  0.6085260000000 1.0
C      1  0.3971320000000  0.5287000000000  0.5129180000000 1.0
C      1  0.5787620000000  0.4557540000000  0.5791150000000 1.0
C      1  0.5716470000000  0.5191410000000  0.4681760000000 1.0
C      1  0.4840440000000  0.5354070000000  0.4753590000000 1.0
C      1  0.5902930000000  0.5850850000000  0.5048770000000 1.0
C      1  0.5428080000000  0.5981280000000  0.5073010000000 1.0
C      1  0.5324480000000  0.5419440000000  0.4063730000000 1.0
C      1  0.4896810000000  0.5605580000000  0.6116480000000 1.0
C      1  0.5753970000000  0.5699050000000  0.4299320000000 1.0
C      1  0.5186470000000  0.4107930000000  0.4305070000000 1.0
C      1  0.5778430000000  0.4280040000000  0.5076090000000 1.0
C      1  0.5355340000000  0.5394560000000  0.4355120000000 1.0
C      1  0.5132630000000  0.4440870000000  0.5215320000000 1.0
C      1  0.4719840000000  0.4938990000000  0.3882790000000 1.0
C      1  0.4602220000000  0.5587850000000  0.6118290000000 1.0
C      1  0.4682340000000  0.6119400000000  0.4152470000000 1.0
C      1  0.5011650000000  0.4999890000000  0.3858870000000 1.0
C      1  0.5513130000000  0.5444610000000  0.5510090000000 1.0
C      1  0.5099500000000  0.4003130000000  0.5034670000000 1.0
C      1  0.5920980000000  0.4830640000000  0.5739140000000 1.0
C      1  0.5070880000000  0.5505150000000  0.4728960000000 1.0
C      1  0.5122500000000  0.3998680000000  0.5750420000000 1.0
C      1  0.4855010000000  0.4832330000000  0.5453010000000 1.0
C      1  0.5241100000000  0.4621310000000  0.5648130000000 1.0
C      1  0.5132840000000  0.4491380000000  0.3955920000000 1.0
C      1  0.5560060000000  0.4103350000000  0.5105930000000 1.0
C      1  0.4319080000000  0.5461270000000  0.5769750000000 1.0
C      1  0.5756390000000  0.5216740000000  0.4953050000000 1.0
C      1  0.5921410000000  0.5240500000000  0.4061170000000 1.0
C      1  0.4622560000000  0.3953560000000  0.4751830000000 1.0
C      1  0.5303470000000  0.5363190000000  0.4820150000000 1.0
C      1  0.5401100000000  0.4593160000000  0.4771410000000 1.0
C      1  0.4000470000000  0.5349120000000  0.5412690000000 1.0
C      1  0.3802130000000  0.5014750000000  0.4611420000000 1.0
C      1  0.4290310000000  0.5824700000000  0.4577300000000 1.0
C      1  0.3752010000000  0.4389720000000  0.5056550000000 1.0
C      1  0.5838430000000  0.4419650000000  0.5317360000000 1.0
C      1  0.5882110000000  0.5707790000000  0.4567510000000 1.0
C      1  0.5309700000000  0.4452490000000  0.5866420000000 1.0
C      1  0.5906500000000  0.5116300000000  0.5632830000000 1.0
C      1  0.4620860000000  0.3967540000000  0.5857020000000 1.0
C      1  0.5113070000000  0.3936510000000  0.4754410000000 1.0
C      1  0.4485520000000  0.3828900000000  0.4998850000000 1.0
C      1  0.5956090000000  0.5745970000000  0.5317510000000 1.0
C      1  0.5597320000000  0.4818570000000  0.5368440000000 1.0
C      1  0.4934580000000  0.6422550000000  0.5334350000000 1.0
C      1  0.3945100000000  0.4437800000000  0.3963130000000 1.0
C      1  0.5839260000000  0.4700750000000  0.5281210000000 1.0
C      1  0.5301540000000  0.4322120000000  0.4144310000000 1.0
C      1  0.4442320000000  0.5179860000000  0.4488310000000 1.0
C      1  0.4577500000000  0.5855600000000  0.4974330000000 1.0
C      1  0.6141650000000  0.5448590000000  0.4990220000000 1.0
C      1  0.6091280000000  0.5488090000000  0.5283120000000 1.0
C      1  0.6061750000000  0.4809780000000  0.5152180000000 1.0
C      1  0.5617920000000  0.3828500000000  0.5099860000000 1.0
C      1  0.4008910000000  0.5490790000000  0.4920080000000 1.0
C      1  0.5454140000000  0.5003790000000  0.6046580000000 1.0
C      1  0.4724690000000  0.4378790000000  0.4967420000000 1.0
C      1  0.6033340000000  0.4808420000000  0.4670310000000 1.0
C      1  0.5638930000000  0.5231400000000  0.5647480000000 1.0
C      1  0.4436910000000  0.4607520000000  0.4098820000000 1.0
C      1  0.5280190000000  0.5777970000000  0.5194090000000 1.0
C      1  0.5935720000000  0.4721440000000  0.4140990000000 1.0
C      1  0.5684920000000  0.6021830000000  0.5010640000000 1.0
C      1  0.4886210000000  0.6371420000000  0.5596040000000 1.0
C      1  0.4669570000000  0.5844330000000  0.4189340000000 1.0
C      1  0.5320290000000  0.5308420000000  0.5089970000000 1.0
C      1  0.4517100000000  0.5361300000000  0.5957030000000 1.0
C      1  0.4364850000000  0.3990880000000  0.5730960000000 1.0
C      1  0.4936400000000  0.5609580000000  0.5469070000000 1.0
C      1  0.5576210000000  0.3915900000000  0.4551650000000 1.0
C      1  0.4857230000000  0.4456870000000  0.3884720000000 1.0
C      1  0.4976490000000  0.5415490000000  0.5904620000000 1.0
C      1  0.4113390000000  0.5976710000000  0.5379700000000 1.0
C      1  0.4245680000000  0.4014490000000  0.5033630000000 1.0
C      1  0.5819800000000  0.4978000000000  0.4094880000000 1.0
C      1  0.4710320000000  0.4248200000000  0.5224710000000 1.0
C      1  0.6160890000000  0.4912160000000  0.4909760000000 1.0
C      1  0.5007230000000  0.5804320000000  0.5273910000000 1.0
C      1  0.5137070000000  0.4522330000000  0.4737630000000 1.0
C      1  0.4858440000000  0.3910900000000  0.4605890000000 1.0
C      1  0.5301410000000  0.6263810000000  0.4458840000000 1.0
C      1  0.5466500000000  0.3386670000000  0.5641580000000 1.0
C      1  0.5440550000000  0.3645940000000  0.5635260000000 1.0
C      1  0.4744410000000  0.4539200000000  0.4451920000000 1.0
C      1  0.5186370000000  0.4779140000000  0.3944850000000 1.0
C      1  0.5996810000000  0.5668740000000  0.4834640000000 1.0
C      1  0.4683940000000  0.3775790000000  0.5216580000000 1.0
C      1  0.4304670000000  0.4714410000000  0.5023360000000 1.0
C      1  0.4568330000000  0.5413570000000  0.4720960000000 1.0
C      1  0.5099620000000  0.5275090000000  0.3934220000000 1.0
C      1  0.5503360000000  0.5845880000000  0.4202610000000 1.0
C      1  0.5549630000000  0.4973080000000  0.4168120000000 1.0
C      1  0.3911040000000  0.6071150000000  0.5245310000000 1.0
C      1  0.5316650000000  0.3999490000000  0.4550850000000 1.0
C      1  0.4500130000000  0.5836180000000  0.5982530000000 1.0
C      1  0.5133080000000  0.4236070000000  0.5923850000000 1.0
C      1  0.4960640000000  0.6315190000000  0.4852640000000 1.0
C      1  0.4422070000000  0.4897870000000  0.4506460000000 1.0
C      1  0.4707590000000  0.5466800000000  0.5399370000000 1.0
C      1  0.5114490000000  0.4833350000000  0.4394890000000 1.0
C      1  0.5880540000000  0.4359600000000  0.4818630000000 1.0
C      1  0.4759770000000  0.3692100000000  0.5482360000000 1.0
C      1  0.4167760000000  0.4513840000000  0.4872020000000 1.0
C      1  0.4672550000000  0.5002640000000  0.5640120000000 1.0
C      1  0.4908520000000  0.5695420000000  0.4097350000000 1.0
C      1  0.5548010000000  0.4776310000000  0.4879220000000 1.0
C      1  0.3880810000000  0.4570700000000  0.4874400000000 1.0
C      1  0.3858110000000  0.4212070000000  0.5236210000000 1.0
C      1  0.4725800000000  0.6018660000000  0.5932570000000 1.0
C      1  0.5822960000000  0.4521780000000  0.4321900000000 1.0
C      1  0.3872440000000  0.5227920000000  0.4460170000000 1.0
C      1  0.4520930000000  0.5126350000000  0.3986870000000 1.0
C      1  0.4759360000000  0.5983820000000  0.5188650000000 1.0
C      1  0.4404350000000  0.5268280000000  0.4208600000000 1.0
C      1  0.5302670000000  0.4857890000000  0.4190610000000 1.0
C      1  0.5106410000000  0.5558990000000  0.5693920000000 1.0
C      1  0.5159870000000  0.5590110000000  0.4474860000000 1.0
C      1  0.4026650000000  0.5464640000000  0.4425290000000 1.0
C      1  0.5407590000000  0.5518000000000  0.5252640000000 1.0
C      1  0.3934730000000  0.5002440000000  0.5081480000000 1.0
C      1  0.4212310000000  0.4813520000000  0.5483740000000 1.0
C      1  0.4753200000000  0.5215570000000  0.5841020000000 1.0
C      1  0.4652340000000  0.4656250000000  0.3915700000000 1.0
C      1  0.4414110000000  0.5745990000000  0.4311790000000 1.0
C      1  0.4341170000000  0.5907340000000  0.5523180000000 1.0
C      1  0.5928700000000  0.4541800000000  0.4600960000000 1.0
C      1  0.4433040000000  0.5983340000000  0.4766130000000 1.0
C      1  0.5386110000000  0.5637510000000  0.5691470000000 1.0
C      1  0.5271950000000  0.5715650000000  0.4057220000000 1.0
C      1  0.4946970000000  0.5889330000000  0.6071370000000 1.0
C      1  0.4936580000000  0.4959800000000  0.5204750000000 1.0
C      1  0.5472380000000  0.5290040000000  0.4596330000000 1.0
C      1  0.5773860000000  0.4339600000000  0.5588030000000 1.0
C      1  0.4876690000000  0.6254870000000  0.5111610000000 1.0
C      1  0.5562200000000  0.4542290000000  0.5984010000000 1.0
C      1  0.4555090000000  0.4239360000000  0.4783720000000 1.0
C      1  0.4597720000000  0.6016910000000  0.5459100000000 1.0
C      1  0.5290980000000  0.4190540000000  0.5148690000000 1.0
C      1  0.3784860000000  0.5471040000000  0.5534650000000 1.0
C      1  0.4984650000000  0.4486700000000  0.4966340000000 1.0
C      1  0.3826830000000  0.4861870000000  0.4849690000000 1.0
C      1  0.4736910000000  0.6148150000000  0.5680770000000 1.0
C      1  0.5449800000000  0.6102240000000  0.4308770000000 1.0
C      1  0.5118160000000  0.6329650000000  0.4639480000000 1.0
C      1  0.4532350000000  0.5409520000000  0.5191070000000 1.0
C      1  0.4882930000000  0.5072200000000  0.4739870000000 1.0
C      1  0.5816950000000  0.5845710000000  0.5546940000000 1.0
C      1  0.5388580000000  0.3919450000000  0.5663680000000 1.0
C      1  0.4506400000000  0.4663720000000  0.4370070000000 1.0
C      1  0.5038170000000  0.4591520000000  0.5455570000000 1.0
C      1  0.5458610000000  0.5049260000000  0.5767710000000 1.0
C      1  0.4848600000000  0.5240000000000  0.4298890000000 1.0
C      1  0.4952480000000  0.5043230000000  0.4468500000000 1.0
C      1  0.4510630000000  0.4298340000000  0.5410690000000 1.0
C      1  0.4513190000000  0.4904540000000  0.5008340000000 1.0
C      1  0.4849890000000  0.3864870000000  0.5701520000000 1.0
C      1  0.4252620000000  0.5507310000000  0.4237040000000 1.0
C      1  0.5530830000000  0.4766840000000  0.6156160000000 1.0
C      1  0.5173980000000  0.5101290000000  0.5197670000000 1.0
C      1  0.5868700000000  0.5497610000000  0.4127390000000 1.0
C      1  0.4916120000000  0.4003040000000  0.4335620000000 1.0
C      1  0.4372950000000  0.5020560000000  0.5587100000000 1.0
C      1  0.4186970000000  0.4515530000000  0.4021120000000 1.0
C      1  0.5892470000000  0.5022620000000  0.4548670000000 1.0
C      1  0.4857860000000  0.4003540000000  0.5183690000000 1.0
C      1  0.4294320000000  0.4133590000000  0.5496220000000 1.0
C      1  0.5588670000000  0.5841580000000  0.5701270000000 1.0
C      1  0.4080540000000  0.5622800000000  0.4668330000000 1.0
C      1  0.4108640000000  0.4080120000000  0.5280590000000 1.0
C      1  0.5415080000000  0.4834530000000  0.5586800000000 1.0
C      1  0.5576370000000  0.4397510000000  0.4224990000000 1.0
C      1  0.4332700000000  0.5749570000000  0.5759810000000 1.0
C      1  0.5703150000000  0.3584330000000  0.5066840000000 1.0
C      1  0.4276770000000  0.4254330000000  0.4854990000000 1.0
C      1  0.6083460000000  0.5277380000000  0.5475960000000 1.0
C      1  0.4924150000000  0.4250430000000  0.6113130000000 1.0
C      1  0.4445510000000  0.5151180000000  0.5136470000000 1.0
C      1  0.4523500000000  0.5573340000000  0.4962730000000 1.0
C      1  0.5607330000000  0.4107870000000  0.5637140000000 1.0
C      1  0.4880870000000  0.5411580000000  0.4076830000000 1.0
C      1  0.4791590000000  0.4926350000000  0.4962520000000 1.0
C      1  0.4117170000000  0.4822940000000  0.5220850000000 1.0
C      1  0.4225670000000  0.5275480000000  0.5582350000000 1.0
END
