TITL C-3866669-3764-619 -0.0581104610143366 125000 -316.947319780693 0 0 53 (C1) n - 1
REM
REM in /home/nfs/bkarasulu/CARBON/AIRSS/Generating-Clusters/LCBOP/Only-C1/SD-CG/FIRE-CG
REM
REM
REM
REM
REM
REM ./C.cell (11c1c37f851c82e70ff6c80c92926a4b)
REM AIRSS Version 0.9.1 bugfix July 2018 build 013d7b7c2542+ Fri, 06 Jul 2018 19:26:36 +0100
REM compiler GCC version 9.2.1 20190827 (Red Hat 9.2.1-1)
REM options -cpp -mtune=generic -march=x86-64 -g -O0 -fpre-include=/usr/include/finclude/math-vector-fortran.h
REM seed 1544899060 -449686351 -1560926 -1169454618 1525406947 623728829 177742388 1187262441 -1308763245 396043081 -1856736146 -235542333 -1991135412 -1932674390 1313282539 -1576442984 -1589040056 -820945021 120251267 2131640980 340821312 239952671 -468217812 -1266037743 181017972 -1695638233 -179677108 1582831965 -787237143 947209235 -1669957683 -1246014057 -1460455067
REM
CELL 1.54180   50.00000   50.00000   50.00000   90.00000   90.00000   90.00000
LATT -1
SFAC C  
C      1  0.5696470000000  0.4858060000000  0.5755760000000 1.0
C      1  0.3723610000000  0.5410440000000  0.4178460000000 1.0
C      1  0.4656510000000  0.5447760000000  0.5062580000000 1.0
C      1  0.4762880000000  0.4805520000000  0.4392210000000 1.0
C      1  0.5754500000000  0.4847420000000  0.4743190000000 1.0
C      1  0.4833560000000  0.4735880000000  0.4660230000000 1.0
C      1  0.5570860000000  0.4213950000000  0.4951790000000 1.0
C      1  0.4887920000000  0.4826390000000  0.5217010000000 1.0
C      1  0.5694540000000  0.4645610000000  0.5596560000000 1.0
C      1  0.5605330000000  0.5870760000000  0.5452200000000 1.0
C      1  0.4384670000000  0.4769040000000  0.4850610000000 1.0
C      1  0.5423080000000  0.5436630000000  0.5674170000000 1.0
C      1  0.4608880000000  0.5189280000000  0.4955710000000 1.0
C      1  0.5710630000000  0.5103190000000  0.5890760000000 1.0
C      1  0.5015360000000  0.4916940000000  0.4794110000000 1.0
C      1  0.5258040000000  0.4861790000000  0.4946100000000 1.0
C      1  0.5383460000000  0.4201240000000  0.4459810000000 1.0
C      1  0.5563900000000  0.5674630000000  0.5628850000000 1.0
C      1  0.5042240000000  0.5503540000000  0.5350320000000 1.0
C      1  0.4144240000000  0.4648380000000  0.4893700000000 1.0
C      1  0.4395730000000  0.5113160000000  0.4513570000000 1.0
C      1  0.4756400000000  0.5447020000000  0.5339790000000 1.0
C      1  0.5265820000000  0.5070060000000  0.5399960000000 1.0
C      1  0.4857370000000  0.5616720000000  0.4924770000000 1.0
C      1  0.4862750000000  0.4640810000000  0.4190120000000 1.0
C      1  0.4723570000000  0.4354720000000  0.5271380000000 1.0
C      1  0.5179380000000  0.4861790000000  0.5233050000000 1.0
C      1  0.3506740000000  0.5506780000000  0.4070520000000 1.0
C      1  0.4711580000000  0.4127870000000  0.5407680000000 1.0
C      1  0.5494040000000  0.5942080000000  0.5219170000000 1.0
C      1  0.4748110000000  0.4589790000000  0.5126800000000 1.0
C      1  0.4833100000000  0.5026420000000  0.5005830000000 1.0
C      1  0.5493110000000  0.4176430000000  0.4700560000000 1.0
C      1  0.3944110000000  0.5312480000000  0.4288200000000 1.0
C      1  0.5514250000000  0.4841710000000  0.4844000000000 1.0
C      1  0.4701500000000  0.3904430000000  0.5541590000000 1.0
C      1  0.4414930000000  0.5052040000000  0.4791980000000 1.0
C      1  0.5285080000000  0.5850270000000  0.5079540000000 1.0
C      1  0.5482760000000  0.5274120000000  0.5899850000000 1.0
C      1  0.5079300000000  0.5664670000000  0.5105250000000 1.0
C      1  0.4870260000000  0.5638630000000  0.4647070000000 1.0
C      1  0.5230760000000  0.4291720000000  0.4261840000000 1.0
C      1  0.5943360000000  0.5180040000000  0.6012850000000 1.0
C      1  0.5043380000000  0.4447530000000  0.4154570000000 1.0
C      1  0.4781610000000  0.5288900000000  0.4289000000000 1.0
C      1  0.5238840000000  0.5341080000000  0.5477680000000 1.0
C      1  0.4638410000000  0.4630580000000  0.4857450000000 1.0
C      1  0.4634420000000  0.5060080000000  0.4361390000000 1.0
C      1  0.4859180000000  0.5514180000000  0.4411190000000 1.0
C      1  0.5322940000000  0.5281010000000  0.6121930000000 1.0
C      1  0.4164300000000  0.5214500000000  0.4398000000000 1.0
C      1  0.5672440000000  0.4460270000000  0.5407630000000 1.0
C      1  0.5629800000000  0.4311690000000  0.5191650000000 1.0
END
