TITL C-3866674-3872-21 -0.000758387325433576 125000 -631.296473678365 0 0 104 (C1) n - 1
REM
REM in /home/nfs/bkarasulu/CARBON/AIRSS/Generating-Clusters/LCBOP/Only-C1/SD-CG/HFTN-CG/FIRE-CG
REM
REM
REM
REM
REM
REM ./C.cell (11c1c37f851c82e70ff6c80c92926a4b)
REM AIRSS Version 0.9.1 bugfix July 2018 build 013d7b7c2542+ Fri, 06 Jul 2018 19:26:36 +0100
REM compiler GCC version 9.2.1 20190827 (Red Hat 9.2.1-1)
REM options -cpp -mtune=generic -march=x86-64 -g -O0 -fpre-include=/usr/include/finclude/math-vector-fortran.h
REM seed -1607002791 1950547274 179706878 1041563921 615329449 -630411711 -1707982979 -478846744 1758811260 -1724667131 1193759942 22614175 818492206 517076279 -187451600 1695755698 -1847292065 -1814123034 -429460060 1210204754 -282543527 1299384048 -542370647 -711330611 1925804070 -1128747581 1039863134 -612929007 1045488669 1535048899 -1872438775 649461076 1126307856
REM
CELL 1.54180   50.00000   50.00000   50.00000   90.00000   90.00000   90.00000
LATT -1
SFAC C  
C      1  0.5452390000000  0.4087360000000  0.4958590000000 1.0
C      1  0.4879640000000  0.4461450000000  0.5373570000000 1.0
C      1  0.5135080000000  0.5583440000000  0.4742400000000 1.0
C      1  0.4585910000000  0.6048290000000  0.4836310000000 1.0
C      1  0.3952730000000  0.4077010000000  0.5460300000000 1.0
C      1  0.5721350000000  0.5590160000000  0.5690000000000 1.0
C      1  0.4928110000000  0.4420570000000  0.4153790000000 1.0
C      1  0.5521600000000  0.5877500000000  0.4376910000000 1.0
C      1  0.5323570000000  0.5533570000000  0.4911880000000 1.0
C      1  0.5500300000000  0.4192010000000  0.5507950000000 1.0
C      1  0.5255430000000  0.5735730000000  0.5509490000000 1.0
C      1  0.4644060000000  0.3913650000000  0.4595550000000 1.0
C      1  0.4647320000000  0.4511260000000  0.4166990000000 1.0
C      1  0.5433970000000  0.5399010000000  0.4278400000000 1.0
C      1  0.5133570000000  0.4916520000000  0.5168020000000 1.0
C      1  0.4805080000000  0.5181410000000  0.5553770000000 1.0
C      1  0.5477290000000  0.4125230000000  0.5236380000000 1.0
C      1  0.4653400000000  0.5167870000000  0.4593670000000 1.0
C      1  0.4406030000000  0.5030710000000  0.5893280000000 1.0
C      1  0.4365660000000  0.4905880000000  0.5161480000000 1.0
C      1  0.4889110000000  0.4759480000000  0.4685480000000 1.0
C      1  0.4729060000000  0.4881220000000  0.5546390000000 1.0
C      1  0.4881950000000  0.5929610000000  0.4488700000000 1.0
C      1  0.4901690000000  0.4562140000000  0.4895890000000 1.0
C      1  0.4464520000000  0.5367870000000  0.4649300000000 1.0
C      1  0.5141780000000  0.4862580000000  0.4554770000000 1.0
C      1  0.5031140000000  0.5085960000000  0.4956020000000 1.0
C      1  0.4614960000000  0.5379840000000  0.5649670000000 1.0
C      1  0.5236230000000  0.5480280000000  0.5379160000000 1.0
C      1  0.4752500000000  0.5684320000000  0.4417520000000 1.0
C      1  0.4960390000000  0.4666610000000  0.5567680000000 1.0
C      1  0.4701020000000  0.4135300000000  0.4439570000000 1.0
C      1  0.4773140000000  0.5197290000000  0.4328650000000 1.0
C      1  0.5765930000000  0.5395740000000  0.5483590000000 1.0
C      1  0.5245460000000  0.5050590000000  0.4755650000000 1.0
C      1  0.5618050000000  0.4961690000000  0.5653330000000 1.0
C      1  0.5880760000000  0.5539860000000  0.5019770000000 1.0
C      1  0.4527150000000  0.4812250000000  0.5764090000000 1.0
C      1  0.3804800000000  0.4087940000000  0.4960890000000 1.0
C      1  0.5994080000000  0.4997200000000  0.5332360000000 1.0
C      1  0.5278200000000  0.4259280000000  0.4813850000000 1.0
C      1  0.4889280000000  0.5460730000000  0.4289420000000 1.0
C      1  0.5313750000000  0.4696320000000  0.5093420000000 1.0
C      1  0.5937230000000  0.5563310000000  0.4760410000000 1.0
C      1  0.5093150000000  0.4601630000000  0.4016370000000 1.0
C      1  0.5371170000000  0.4416670000000  0.5615420000000 1.0
C      1  0.3839440000000  0.4052640000000  0.5221590000000 1.0
C      1  0.5656040000000  0.4031040000000  0.5675360000000 1.0
C      1  0.5808740000000  0.5113820000000  0.5512390000000 1.0
C      1  0.4134470000000  0.5032710000000  0.5130740000000 1.0
C      1  0.5259720000000  0.4935800000000  0.4304390000000 1.0
C      1  0.4390930000000  0.5295430000000  0.5803010000000 1.0
C      1  0.3855760000000  0.5367130000000  0.5394280000000 1.0
C      1  0.4602430000000  0.4799530000000  0.5259380000000 1.0
C      1  0.4969580000000  0.4225470000000  0.4366090000000 1.0
C      1  0.5319240000000  0.6162460000000  0.4757550000000 1.0
C      1  0.5418640000000  0.5466710000000  0.5161970000000 1.0
C      1  0.5179470000000  0.4208040000000  0.4552520000000 1.0
C      1  0.4511760000000  0.5636170000000  0.4579620000000 1.0
C      1  0.4594930000000  0.4784600000000  0.4103210000000 1.0
C      1  0.5558240000000  0.4797930000000  0.4987860000000 1.0
C      1  0.4852410000000  0.6066390000000  0.4741440000000 1.0
C      1  0.4582670000000  0.3717970000000  0.4756320000000 1.0
C      1  0.4423860000000  0.5850770000000  0.4743120000000 1.0
C      1  0.4289850000000  0.4333900000000  0.5763880000000 1.0
C      1  0.5947360000000  0.5008990000000  0.4592550000000 1.0
C      1  0.4354820000000  0.4864320000000  0.3999670000000 1.0
C      1  0.5374900000000  0.4876860000000  0.5770140000000 1.0
C      1  0.6096410000000  0.4963670000000  0.5086400000000 1.0
C      1  0.4115420000000  0.4171410000000  0.5647430000000 1.0
C      1  0.5454000000000  0.6075370000000  0.4543510000000 1.0
C      1  0.5489420000000  0.5117740000000  0.4332800000000 1.0
C      1  0.5053240000000  0.5286540000000  0.5466160000000 1.0
C      1  0.5176650000000  0.4486130000000  0.4949220000000 1.0
C      1  0.4147490000000  0.5432630000000  0.5793080000000 1.0
C      1  0.4652930000000  0.5652820000000  0.5595780000000 1.0
C      1  0.5696450000000  0.5472630000000  0.5218330000000 1.0
C      1  0.4747160000000  0.4572600000000  0.5140180000000 1.0
C      1  0.4808500000000  0.4974590000000  0.4148190000000 1.0
C      1  0.5610760000000  0.5609980000000  0.4361450000000 1.0
C      1  0.5594200000000  0.3890940000000  0.4831870000000 1.0
C      1  0.5801700000000  0.3881190000000  0.5831090000000 1.0
C      1  0.5080120000000  0.4874720000000  0.4095870000000 1.0
C      1  0.4798540000000  0.5863920000000  0.5521190000000 1.0
C      1  0.4790580000000  0.5016980000000  0.4790450000000 1.0
C      1  0.4437680000000  0.4550650000000  0.5802680000000 1.0
C      1  0.3863690000000  0.4161480000000  0.4712820000000 1.0
C      1  0.3936790000000  0.5461390000000  0.5631040000000 1.0
C      1  0.5521700000000  0.5001830000000  0.4793480000000 1.0
C      1  0.3940530000000  0.5199310000000  0.5204790000000 1.0
C      1  0.5055950000000  0.5920970000000  0.5421170000000 1.0
C      1  0.4234710000000  0.4304660000000  0.4376770000000 1.0
C      1  0.4506340000000  0.4317420000000  0.4325500000000 1.0
C      1  0.4013480000000  0.4244180000000  0.4510020000000 1.0
C      1  0.5893120000000  0.5616690000000  0.5900700000000 1.0
C      1  0.5844420000000  0.5559850000000  0.4509970000000 1.0
C      1  0.6092480000000  0.4972830000000  0.4817820000000 1.0
C      1  0.5163620000000  0.5468720000000  0.4216490000000 1.0
C      1  0.5282050000000  0.5002800000000  0.5995140000000 1.0
C      1  0.5671060000000  0.5046550000000  0.4553470000000 1.0
C      1  0.5229150000000  0.4656480000000  0.5661470000000 1.0
C      1  0.5489850000000  0.5755910000000  0.5664960000000 1.0
C      1  0.5081360000000  0.6120540000000  0.4903240000000 1.0
C      1  0.5084200000000  0.6070870000000  0.5182250000000 1.0
END
