TITL C-3866671-3735-535 0.000417110703406576 125000 -562.532820714245 0 0 93 (C1) n - 1
REM
REM in /home/nfs/bkarasulu/CARBON/AIRSS/Generating-Clusters/LCBOP/Only-C1/SD-CG/FIRE-CG
REM
REM
REM
REM
REM
REM ./C.cell (11c1c37f851c82e70ff6c80c92926a4b)
REM AIRSS Version 0.9.1 bugfix July 2018 build 013d7b7c2542+ Fri, 06 Jul 2018 19:26:36 +0100
REM compiler GCC version 9.2.1 20190827 (Red Hat 9.2.1-1)
REM options -cpp -mtune=generic -march=x86-64 -g -O0 -fpre-include=/usr/include/finclude/math-vector-fortran.h
REM seed -287420618 2002807586 1528853766 59846365 -1463282242 2097566126 -1923672278 1458467202 1271304391 1623381346 985842446 -367856164 -654320620 -545566089 -715013816 -1535877823 -855590860 -1726506006 -830727874 -1911551029 -1864717896 944784103 -367888871 1630250905 -879098584 953837882 415508673 1567171777 1436697920 -2038226943 1691167239 -2140189479 -807070110
REM
CELL 1.54180   50.00000   50.00000   50.00000   90.00000   90.00000   90.00000
LATT -1
SFAC C  
C      1  0.4603720000000  0.5114510000000  0.6026300000000 1.0
C      1  0.5112830000000  0.5538280000000  0.4341190000000 1.0
C      1  0.4300280000000  0.5012330000000  0.4601020000000 1.0
C      1  0.5597820000000  0.5518110000000  0.4715350000000 1.0
C      1  0.5885280000000  0.5082630000000  0.4731850000000 1.0
C      1  0.4415240000000  0.4378850000000  0.5368030000000 1.0
C      1  0.4200450000000  0.5020060000000  0.4884470000000 1.0
C      1  0.4298810000000  0.4827770000000  0.4381110000000 1.0
C      1  0.5881760000000  0.4838730000000  0.4859390000000 1.0
C      1  0.4188590000000  0.5301970000000  0.4955260000000 1.0
C      1  0.5230490000000  0.4534690000000  0.4787560000000 1.0
C      1  0.5857070000000  0.5351580000000  0.5114770000000 1.0
C      1  0.5305070000000  0.4960500000000  0.5308710000000 1.0
C      1  0.5028830000000  0.5369700000000  0.4107100000000 1.0
C      1  0.5107540000000  0.5887320000000  0.5162570000000 1.0
C      1  0.4483710000000  0.5711750000000  0.4805170000000 1.0
C      1  0.5135750000000  0.3984080000000  0.4849490000000 1.0
C      1  0.4350750000000  0.4576290000000  0.5141020000000 1.0
C      1  0.5198540000000  0.5157230000000  0.4675030000000 1.0
C      1  0.5434490000000  0.5664160000000  0.4894600000000 1.0
C      1  0.5585910000000  0.5570370000000  0.4191840000000 1.0
C      1  0.4458870000000  0.5650480000000  0.5536650000000 1.0
C      1  0.5463230000000  0.4391910000000  0.5336730000000 1.0
C      1  0.4172910000000  0.4817880000000  0.5116600000000 1.0
C      1  0.4585760000000  0.5611990000000  0.5300400000000 1.0
C      1  0.4397280000000  0.4745570000000  0.5782340000000 1.0
C      1  0.5108410000000  0.4278900000000  0.4405080000000 1.0
C      1  0.4808440000000  0.5249380000000  0.5464110000000 1.0
C      1  0.5473460000000  0.4951950000000  0.5076910000000 1.0
C      1  0.5135430000000  0.5566590000000  0.5730400000000 1.0
C      1  0.5549490000000  0.4235500000000  0.4610570000000 1.0
C      1  0.4873600000000  0.5279450000000  0.5008920000000 1.0
C      1  0.5380280000000  0.4992500000000  0.4805110000000 1.0
C      1  0.4446640000000  0.5548880000000  0.5785290000000 1.0
C      1  0.5128210000000  0.4749550000000  0.5301980000000 1.0
C      1  0.5272880000000  0.5111090000000  0.5557380000000 1.0
C      1  0.5585560000000  0.4467730000000  0.5080500000000 1.0
C      1  0.4650390000000  0.4757650000000  0.5415640000000 1.0
C      1  0.5190960000000  0.4037690000000  0.5112420000000 1.0
C      1  0.4999490000000  0.4132430000000  0.4641570000000 1.0
C      1  0.4515680000000  0.5360360000000  0.5963140000000 1.0
C      1  0.5382210000000  0.5749830000000  0.5167710000000 1.0
C      1  0.5795850000000  0.5336890000000  0.4831920000000 1.0
C      1  0.4993100000000  0.4820080000000  0.4277260000000 1.0
C      1  0.4691070000000  0.4167540000000  0.5030480000000 1.0
C      1  0.4097120000000  0.4908590000000  0.5386740000000 1.0
C      1  0.4532840000000  0.4746610000000  0.4234090000000 1.0
C      1  0.5002530000000  0.5937390000000  0.5420940000000 1.0
C      1  0.5919870000000  0.5603440000000  0.3787320000000 1.0
C      1  0.5754250000000  0.5587500000000  0.3988010000000 1.0
C      1  0.4487300000000  0.4570500000000  0.5576900000000 1.0
C      1  0.5083800000000  0.5359440000000  0.4833930000000 1.0
C      1  0.5740140000000  0.4754810000000  0.5586010000000 1.0
C      1  0.5435240000000  0.5557520000000  0.5371840000000 1.0
C      1  0.5684470000000  0.4742910000000  0.5045220000000 1.0
C      1  0.4943400000000  0.4488480000000  0.5692320000000 1.0
C      1  0.4662230000000  0.4503290000000  0.4333240000000 1.0
C      1  0.5412710000000  0.5541320000000  0.4409650000000 1.0
C      1  0.4782840000000  0.4297790000000  0.4778600000000 1.0
C      1  0.4723360000000  0.5005390000000  0.5502410000000 1.0
C      1  0.4959270000000  0.4521050000000  0.4308580000000 1.0
C      1  0.5205020000000  0.4236590000000  0.5324340000000 1.0
C      1  0.4940920000000  0.4306510000000  0.5457050000000 1.0
C      1  0.5166470000000  0.5619750000000  0.4811840000000 1.0
C      1  0.4637140000000  0.4851950000000  0.5921790000000 1.0
C      1  0.4914290000000  0.4753670000000  0.5826630000000 1.0
C      1  0.4750920000000  0.5753570000000  0.4714660000000 1.0
C      1  0.4676220000000  0.4237870000000  0.5308440000000 1.0
C      1  0.4529830000000  0.5187240000000  0.4540660000000 1.0
C      1  0.4829280000000  0.5598140000000  0.4468330000000 1.0
C      1  0.4975080000000  0.5815560000000  0.4901050000000 1.0
C      1  0.5019380000000  0.5012430000000  0.4495690000000 1.0
C      1  0.4806650000000  0.4761950000000  0.4966570000000 1.0
C      1  0.5882920000000  0.5203090000000  0.5340470000000 1.0
C      1  0.4765700000000  0.5054510000000  0.4625160000000 1.0
C      1  0.4767460000000  0.5404380000000  0.5237520000000 1.0
C      1  0.5126840000000  0.4954050000000  0.5765480000000 1.0
C      1  0.5391440000000  0.4237430000000  0.4385590000000 1.0
C      1  0.4290170000000  0.5544130000000  0.4890740000000 1.0
C      1  0.5358390000000  0.4751230000000  0.4660720000000 1.0
C      1  0.4581910000000  0.4363640000000  0.4567490000000 1.0
C      1  0.5459230000000  0.4364250000000  0.4847750000000 1.0
C      1  0.5302340000000  0.5399770000000  0.5569390000000 1.0
C      1  0.4951170000000  0.4546530000000  0.4850690000000 1.0
C      1  0.4636680000000  0.5384070000000  0.4355610000000 1.0
C      1  0.4794060000000  0.5029200000000  0.4898670000000 1.0
C      1  0.5587360000000  0.4532480000000  0.5552380000000 1.0
C      1  0.4768680000000  0.5234300000000  0.4128770000000 1.0
C      1  0.5845250000000  0.4990040000000  0.5502890000000 1.0
C      1  0.4611460000000  0.4703420000000  0.5142300000000 1.0
C      1  0.4746060000000  0.4938900000000  0.4137370000000 1.0
C      1  0.4175440000000  0.4888480000000  0.5652200000000 1.0
C      1  0.5022700000000  0.5802080000000  0.5655000000000 1.0
END
