TITL C-3866674-3872-606 -0.902012019951867 125000 -982.134670895059 0 0 159 (C1) n - 1
REM
REM in /home/nfs/bkarasulu/CARBON/AIRSS/Generating-Clusters/LCBOP/Only-C1/SD-CG/FIRE-CG
REM
REM
REM
REM
REM
REM ./C.cell (11c1c37f851c82e70ff6c80c92926a4b)
REM AIRSS Version 0.9.1 bugfix July 2018 build 013d7b7c2542+ Fri, 06 Jul 2018 19:26:36 +0100
REM compiler GCC version 9.2.1 20190827 (Red Hat 9.2.1-1)
REM options -cpp -mtune=generic -march=x86-64 -g -O0 -fpre-include=/usr/include/finclude/math-vector-fortran.h
REM seed 1971597487 -861859059 -1722954680 -737080229 -1339479190 1821822521 1845576188 -1770927909 -2032761194 717713771 1458974633 -85687058 759826472 728878297 -1910798404 1409469956 26169445 575236323 647894543 -931253247 950262835 -675576998 1267366423 -233982870 -299336454 -273203234 476122083 69604996 -492147616 1379552153 1009659430 -471788775 -986974346
REM
CELL 1.54180   50.00000   50.00000   50.00000   90.00000   90.00000   90.00000
LATT -1
SFAC C  
C      1  0.5399340000000  0.4828840000000  0.3829430000000 1.0
C      1  0.5593170000000  0.4940810000000  0.4857100000000 1.0
C      1  0.5126210000000  0.5387960000000  0.4705840000000 1.0
C      1  0.4935620000000  0.5975500000000  0.4462480000000 1.0
C      1  0.4272780000000  0.4449870000000  0.5551430000000 1.0
C      1  0.5565620000000  0.5115810000000  0.5105650000000 1.0
C      1  0.3869920000000  0.5454890000000  0.5273360000000 1.0
C      1  0.4131520000000  0.5238070000000  0.5683360000000 1.0
C      1  0.4615250000000  0.4737410000000  0.4538990000000 1.0
C      1  0.4882260000000  0.5175110000000  0.5172910000000 1.0
C      1  0.4775820000000  0.4854730000000  0.4015500000000 1.0
C      1  0.4737790000000  0.4487690000000  0.5744390000000 1.0
C      1  0.4873020000000  0.4684170000000  0.5925580000000 1.0
C      1  0.4683720000000  0.5410160000000  0.4623890000000 1.0
C      1  0.5657640000000  0.4496190000000  0.5496770000000 1.0
C      1  0.4244900000000  0.4309120000000  0.4644890000000 1.0
C      1  0.4066630000000  0.4533280000000  0.5073860000000 1.0
C      1  0.5944290000000  0.5306160000000  0.5509930000000 1.0
C      1  0.5868410000000  0.5813490000000  0.4848240000000 1.0
C      1  0.6185780000000  0.5000670000000  0.5027340000000 1.0
C      1  0.4470050000000  0.5053130000000  0.5370850000000 1.0
C      1  0.4280130000000  0.5374010000000  0.5884820000000 1.0
C      1  0.4784510000000  0.4572850000000  0.3996140000000 1.0
C      1  0.5248240000000  0.4684180000000  0.4565430000000 1.0
C      1  0.5016720000000  0.5181300000000  0.5429890000000 1.0
C      1  0.5929500000000  0.4607360000000  0.4797790000000 1.0
C      1  0.5510340000000  0.5391720000000  0.5057790000000 1.0
C      1  0.5694660000000  0.4990860000000  0.5322870000000 1.0
C      1  0.5624280000000  0.5846100000000  0.4990280000000 1.0
C      1  0.5810630000000  0.4901600000000  0.4283430000000 1.0
C      1  0.4558130000000  0.4793600000000  0.5003550000000 1.0
C      1  0.5101430000000  0.4148460000000  0.4986520000000 1.0
C      1  0.5953570000000  0.5339200000000  0.4768790000000 1.0
C      1  0.4824710000000  0.4217720000000  0.5067130000000 1.0
C      1  0.5869020000000  0.5595820000000  0.4663950000000 1.0
C      1  0.4938480000000  0.3778320000000  0.5167620000000 1.0
C      1  0.4775990000000  0.5645130000000  0.5140140000000 1.0
C      1  0.4928550000000  0.5386720000000  0.4473190000000 1.0
C      1  0.5663200000000  0.5436450000000  0.4236800000000 1.0
C      1  0.5351890000000  0.4932250000000  0.4664500000000 1.0
C      1  0.4253720000000  0.5248710000000  0.4533680000000 1.0
C      1  0.5239480000000  0.5891780000000  0.4080030000000 1.0
C      1  0.4606380000000  0.5241350000000  0.5203450000000 1.0
C      1  0.4552160000000  0.4138050000000  0.4995560000000 1.0
C      1  0.4424910000000  0.5937130000000  0.4387400000000 1.0
C      1  0.5494820000000  0.5714480000000  0.5447310000000 1.0
C      1  0.4345140000000  0.4389540000000  0.4379810000000 1.0
C      1  0.5436250000000  0.4002000000000  0.5282970000000 1.0
C      1  0.5395500000000  0.5913340000000  0.4818530000000 1.0
C      1  0.5821620000000  0.4626950000000  0.5683730000000 1.0
C      1  0.5703300000000  0.5319740000000  0.5691320000000 1.0
C      1  0.5521390000000  0.5545640000000  0.5679990000000 1.0
C      1  0.3943300000000  0.5474360000000  0.4799000000000 1.0
C      1  0.3903490000000  0.4652240000000  0.4629220000000 1.0
C      1  0.4618870000000  0.5677310000000  0.4702740000000 1.0
C      1  0.5628360000000  0.4178120000000  0.5149370000000 1.0
C      1  0.4354570000000  0.5738610000000  0.4586930000000 1.0
C      1  0.4829740000000  0.5246300000000  0.5636770000000 1.0
C      1  0.4891970000000  0.5901090000000  0.4739430000000 1.0
C      1  0.5124990000000  0.5954800000000  0.4932040000000 1.0
C      1  0.4358370000000  0.4876160000000  0.5187860000000 1.0
C      1  0.5800570000000  0.5107230000000  0.4703840000000 1.0
C      1  0.4860510000000  0.3750370000000  0.4869330000000 1.0
C      1  0.5386280000000  0.5728020000000  0.3926590000000 1.0
C      1  0.5395190000000  0.5450350000000  0.4802880000000 1.0
C      1  0.4152150000000  0.5840460000000  0.5286590000000 1.0
C      1  0.4615770000000  0.4040720000000  0.5557570000000 1.0
C      1  0.5809070000000  0.4849500000000  0.5836790000000 1.0
C      1  0.4616640000000  0.4031510000000  0.4521020000000 1.0
C      1  0.4343050000000  0.4151110000000  0.5184110000000 1.0
C      1  0.5579290000000  0.5634100000000  0.5188520000000 1.0
C      1  0.4939820000000  0.4442880000000  0.5529050000000 1.0
C      1  0.5140100000000  0.5100520000000  0.4747310000000 1.0
C      1  0.5174170000000  0.4231100000000  0.4358420000000 1.0
C      1  0.4683240000000  0.6018080000000  0.4328390000000 1.0
C      1  0.5199920000000  0.5914630000000  0.4357850000000 1.0
C      1  0.5108570000000  0.5956630000000  0.5231060000000 1.0
C      1  0.4997820000000  0.5020200000000  0.4968070000000 1.0
C      1  0.4860430000000  0.5976130000000  0.5788950000000 1.0
C      1  0.5160200000000  0.4567080000000  0.4809830000000 1.0
C      1  0.4719340000000  0.4325860000000  0.4087390000000 1.0
C      1  0.5281170000000  0.4313280000000  0.4841860000000 1.0
C      1  0.5611630000000  0.5058720000000  0.5826640000000 1.0
C      1  0.4956230000000  0.5525550000000  0.4948300000000 1.0
C      1  0.4569920000000  0.4920150000000  0.4746020000000 1.0
C      1  0.4487850000000  0.5194940000000  0.6690590000000 1.0
C      1  0.4885650000000  0.5812510000000  0.5335260000000 1.0
C      1  0.5230600000000  0.4772020000000  0.5267930000000 1.0
C      1  0.4535700000000  0.5512000000000  0.5207680000000 1.0
C      1  0.5193880000000  0.3931950000000  0.5150560000000 1.0
C      1  0.4450500000000  0.4124730000000  0.4735340000000 1.0
C      1  0.6340540000000  0.4561760000000  0.5061050000000 1.0
C      1  0.3920580000000  0.5031400000000  0.5046920000000 1.0
C      1  0.5679730000000  0.4463440000000  0.5206950000000 1.0
C      1  0.3927510000000  0.4879960000000  0.4486250000000 1.0
C      1  0.4162130000000  0.4689090000000  0.5667210000000 1.0
C      1  0.5588350000000  0.4392480000000  0.3728690000000 1.0
C      1  0.6064190000000  0.5424250000000  0.5265740000000 1.0
C      1  0.4101240000000  0.5393980000000  0.5445710000000 1.0
C      1  0.4815250000000  0.5096520000000  0.6272750000000 1.0
C      1  0.4515840000000  0.5506100000000  0.5886200000000 1.0
C      1  0.4778250000000  0.4655050000000  0.5115160000000 1.0
C      1  0.5560940000000  0.5535840000000  0.3993270000000 1.0
C      1  0.4758300000000  0.3860910000000  0.5394200000000 1.0
C      1  0.5774930000000  0.4477730000000  0.4588230000000 1.0
C      1  0.5181450000000  0.5454220000000  0.6083310000000 1.0
C      1  0.5280840000000  0.4496420000000  0.4346920000000 1.0
C      1  0.5429120000000  0.4358950000000  0.5608620000000 1.0
C      1  0.4191320000000  0.4367740000000  0.5281860000000 1.0
C      1  0.4560320000000  0.4207290000000  0.4290480000000 1.0
C      1  0.5953390000000  0.5022540000000  0.5437210000000 1.0
C      1  0.4157030000000  0.5512010000000  0.4613610000000 1.0
C      1  0.5194730000000  0.4504060000000  0.5653210000000 1.0
C      1  0.4490020000000  0.5508960000000  0.3996290000000 1.0
C      1  0.4615920000000  0.5289060000000  0.4094220000000 1.0
C      1  0.5160640000000  0.4718100000000  0.5849390000000 1.0
C      1  0.4891400000000  0.5278530000000  0.4209510000000 1.0
C      1  0.4508070000000  0.5188880000000  0.4655880000000 1.0
C      1  0.5760330000000  0.5166210000000  0.4243670000000 1.0
C      1  0.5711860000000  0.4669460000000  0.4990700000000 1.0
C      1  0.5503610000000  0.4580140000000  0.3906870000000 1.0
C      1  0.4135480000000  0.5039720000000  0.4377030000000 1.0
C      1  0.4301160000000  0.5594420000000  0.5341080000000 1.0
C      1  0.4996240000000  0.5041100000000  0.4073410000000 1.0
C      1  0.5341230000000  0.5561290000000  0.5897360000000 1.0
C      1  0.5424060000000  0.5828370000000  0.4531400000000 1.0
C      1  0.6326360000000  0.4665540000000  0.5317740000000 1.0
C      1  0.6181240000000  0.4913160000000  0.5314810000000 1.0
C      1  0.5736120000000  0.4629320000000  0.4340020000000 1.0
C      1  0.3873890000000  0.5312280000000  0.5026230000000 1.0
C      1  0.5329220000000  0.5946280000000  0.5413910000000 1.0
C      1  0.4091280000000  0.4816810000000  0.5120690000000 1.0
C      1  0.6110430000000  0.5284840000000  0.5005140000000 1.0
C      1  0.4750430000000  0.5510260000000  0.5723170000000 1.0
C      1  0.5215660000000  0.4984820000000  0.5437580000000 1.0
C      1  0.4416620000000  0.4660790000000  0.4352860000000 1.0
C      1  0.5013330000000  0.5285550000000  0.6204520000000 1.0
C      1  0.6178760000000  0.4727130000000  0.4879130000000 1.0
C      1  0.4517060000000  0.4313030000000  0.5657990000000 1.0
C      1  0.3879860000000  0.5746150000000  0.5258380000000 1.0
C      1  0.5050700000000  0.4737400000000  0.5031620000000 1.0
C      1  0.4649480000000  0.5144640000000  0.6492440000000 1.0
C      1  0.5653640000000  0.5624850000000  0.4461640000000 1.0
C      1  0.5347350000000  0.4938710000000  0.5879450000000 1.0
C      1  0.5548660000000  0.4304940000000  0.4701750000000 1.0
C      1  0.4052010000000  0.4466630000000  0.4788730000000 1.0
C      1  0.4322400000000  0.4891350000000  0.4212820000000 1.0
C      1  0.4836920000000  0.5764090000000  0.5614860000000 1.0
C      1  0.5233340000000  0.5010630000000  0.3931880000000 1.0
C      1  0.4528240000000  0.5013250000000  0.4057210000000 1.0
C      1  0.4780030000000  0.4861230000000  0.6121550000000 1.0
C      1  0.5415030000000  0.4080110000000  0.5555870000000 1.0
C      1  0.4605830000000  0.5059150000000  0.5620770000000 1.0
C      1  0.4827980000000  0.4422880000000  0.5267970000000 1.0
C      1  0.4855760000000  0.3894780000000  0.4605760000000 1.0
C      1  0.4098080000000  0.4952110000000  0.5697940000000 1.0
C      1  0.4246310000000  0.6093390000000  0.5267260000000 1.0
C      1  0.5082920000000  0.4000600000000  0.4468140000000 1.0
C      1  0.5511680000000  0.4540590000000  0.4186520000000 1.0
END
