TITL C-3866676-3738-197 0.185821160917007 125000 -522.664261835624 0 0 86 (C1) n - 1
REM
REM in /home/nfs/bkarasulu/CARBON/AIRSS/Generating-Clusters/LCBOP/Only-C1/SD-CG/HFTN-CG/FIRE-CG
REM
REM
REM
REM
REM
REM ./C.cell (11c1c37f851c82e70ff6c80c92926a4b)
REM AIRSS Version 0.9.1 bugfix July 2018 build 013d7b7c2542+ Fri, 06 Jul 2018 19:26:36 +0100
REM compiler GCC version 9.2.1 20190827 (Red Hat 9.2.1-1)
REM options -cpp -mtune=generic -march=x86-64 -g -O0 -fpre-include=/usr/include/finclude/math-vector-fortran.h
REM seed 1847998735 1712413225 -1693300726 629796740 169172199 -1050613392 1478400669 -772044702 -417303545 -390500405 1702688837 1418818011 1705357083 -1827247486 1813155594 -1311510447 1993173274 1521685696 2000242976 234923310 370870887 1695868384 -505398238 1403088971 2128294601 90585096 264538534 470387380 -1021105782 2009049361 1100191146 -466706181 2023686746
REM
CELL 1.54180   50.00000   50.00000   50.00000   90.00000   90.00000   90.00000
LATT -1
SFAC C  
C      1  0.4527290000000  0.4793840000000  0.4245520000000 1.0
C      1  0.4920700000000  0.5067000000000  0.4364180000000 1.0
C      1  0.5894260000000  0.5242490000000  0.4738790000000 1.0
C      1  0.5833370000000  0.4309380000000  0.5043020000000 1.0
C      1  0.4413010000000  0.4723210000000  0.5030310000000 1.0
C      1  0.4961710000000  0.5730080000000  0.4420920000000 1.0
C      1  0.4945880000000  0.4333740000000  0.5326200000000 1.0
C      1  0.4226240000000  0.5054620000000  0.5356990000000 1.0
C      1  0.5424580000000  0.5136800000000  0.4258680000000 1.0
C      1  0.5225830000000  0.5605040000000  0.5621480000000 1.0
C      1  0.4673410000000  0.5403680000000  0.4140120000000 1.0
C      1  0.4165960000000  0.4559400000000  0.4507580000000 1.0
C      1  0.4805250000000  0.4425750000000  0.5535260000000 1.0
C      1  0.5125020000000  0.4376290000000  0.5109950000000 1.0
C      1  0.4094530000000  0.4411650000000  0.5232530000000 1.0
C      1  0.5146870000000  0.5513060000000  0.4457470000000 1.0
C      1  0.5131780000000  0.5296040000000  0.3890250000000 1.0
C      1  0.4935960000000  0.4666590000000  0.4043260000000 1.0
C      1  0.5129780000000  0.4791220000000  0.5427880000000 1.0
C      1  0.5019900000000  0.5087870000000  0.6684690000000 1.0
C      1  0.5650380000000  0.4939050000000  0.4440810000000 1.0
C      1  0.4851260000000  0.5816940000000  0.4678510000000 1.0
C      1  0.4198140000000  0.5019530000000  0.5620390000000 1.0
C      1  0.4647470000000  0.5122530000000  0.5075920000000 1.0
C      1  0.4423250000000  0.4579010000000  0.4400420000000 1.0
C      1  0.4035740000000  0.4303500000000  0.5467140000000 1.0
C      1  0.4815510000000  0.5062950000000  0.5906000000000 1.0
C      1  0.5436270000000  0.5391800000000  0.4807110000000 1.0
C      1  0.4570100000000  0.5796410000000  0.4703200000000 1.0
C      1  0.3991570000000  0.4210100000000  0.5706470000000 1.0
C      1  0.4582070000000  0.5368280000000  0.4416060000000 1.0
C      1  0.5772620000000  0.4781940000000  0.4894490000000 1.0
C      1  0.4771280000000  0.4273880000000  0.4284280000000 1.0
C      1  0.5216540000000  0.4938150000000  0.4703770000000 1.0
C      1  0.4638260000000  0.4858200000000  0.5815840000000 1.0
C      1  0.4874700000000  0.5071800000000  0.6179810000000 1.0
C      1  0.4722930000000  0.4610980000000  0.5710300000000 1.0
C      1  0.4797970000000  0.4873210000000  0.4181310000000 1.0
C      1  0.5166420000000  0.5235540000000  0.4374200000000 1.0
C      1  0.4761580000000  0.4475120000000  0.4746450000000 1.0
C      1  0.5406450000000  0.5176780000000  0.5843360000000 1.0
C      1  0.5448240000000  0.5772450000000  0.5635350000000 1.0
C      1  0.4364970000000  0.4923500000000  0.5805960000000 1.0
C      1  0.4408880000000  0.4979590000000  0.5162460000000 1.0
C      1  0.5327760000000  0.5102790000000  0.5150910000000 1.0
C      1  0.5088470000000  0.5015220000000  0.5268890000000 1.0
C      1  0.4946170000000  0.5079650000000  0.6434780000000 1.0
C      1  0.5049640000000  0.5728370000000  0.4877800000000 1.0
C      1  0.5234600000000  0.4340070000000  0.4644440000000 1.0
C      1  0.4461320000000  0.5576780000000  0.4561460000000 1.0
C      1  0.4189240000000  0.4552370000000  0.5012160000000 1.0
C      1  0.5535290000000  0.4681510000000  0.4490540000000 1.0
C      1  0.5329180000000  0.5136180000000  0.4874690000000 1.0
C      1  0.5248820000000  0.4750900000000  0.4487600000000 1.0
C      1  0.4624790000000  0.4392940000000  0.4497560000000 1.0
C      1  0.5814680000000  0.4979500000000  0.4680990000000 1.0
C      1  0.5515670000000  0.4446240000000  0.4680670000000 1.0
C      1  0.5565290000000  0.5165000000000  0.5286440000000 1.0
C      1  0.5020170000000  0.5605090000000  0.5413920000000 1.0
C      1  0.5243090000000  0.5570690000000  0.4726960000000 1.0
C      1  0.5390640000000  0.4497530000000  0.5169830000000 1.0
C      1  0.5377340000000  0.4647790000000  0.5416900000000 1.0
C      1  0.5025290000000  0.4365480000000  0.4842590000000 1.0
C      1  0.5773870000000  0.5310750000000  0.5365590000000 1.0
C      1  0.5532930000000  0.4944670000000  0.5789480000000 1.0
C      1  0.4878740000000  0.5375140000000  0.3960140000000 1.0
C      1  0.4072680000000  0.4530310000000  0.4757190000000 1.0
C      1  0.6010720000000  0.4135310000000  0.5120920000000 1.0
C      1  0.4277210000000  0.6135920000000  0.5000420000000 1.0
C      1  0.4852270000000  0.5173070000000  0.5263310000000 1.0
C      1  0.5712760000000  0.5434630000000  0.4791070000000 1.0
C      1  0.5847520000000  0.5545660000000  0.5470290000000 1.0
C      1  0.5626550000000  0.4508230000000  0.4960580000000 1.0
C      1  0.4416400000000  0.5972610000000  0.4852540000000 1.0
C      1  0.4856640000000  0.5366390000000  0.5470840000000 1.0
C      1  0.5709510000000  0.5748260000000  0.5579710000000 1.0
C      1  0.4989110000000  0.4433090000000  0.4196550000000 1.0
C      1  0.5550460000000  0.4729980000000  0.5624210000000 1.0
C      1  0.5028620000000  0.5723130000000  0.5158270000000 1.0
C      1  0.4646370000000  0.4717810000000  0.4850720000000 1.0
C      1  0.5147940000000  0.4494820000000  0.4414760000000 1.0
C      1  0.5373290000000  0.5192240000000  0.3978380000000 1.0
C      1  0.4702860000000  0.5012120000000  0.4806160000000 1.0
C      1  0.4721150000000  0.5153940000000  0.4559330000000 1.0
C      1  0.4929250000000  0.5258230000000  0.5735670000000 1.0
C      1  0.5201760000000  0.5360630000000  0.5780050000000 1.0
END
