TITL C-3866676-3738-778 0.233536537946673 125000 -330.440504182126 0 0 56 (C1) n - 1
REM
REM in /home/nfs/bkarasulu/CARBON/AIRSS/Generating-Clusters/LCBOP/Only-C1/SD-CG/FIRE-CG
REM
REM
REM
REM
REM
REM ./C.cell (11c1c37f851c82e70ff6c80c92926a4b)
REM AIRSS Version 0.9.1 bugfix July 2018 build 013d7b7c2542+ Fri, 06 Jul 2018 19:26:36 +0100
REM compiler GCC version 9.2.1 20190827 (Red Hat 9.2.1-1)
REM options -cpp -mtune=generic -march=x86-64 -g -O0 -fpre-include=/usr/include/finclude/math-vector-fortran.h
REM seed -1311210333 736221206 1786657074 1912705089 1526663141 806678825 568903200 -998570110 2139564236 1011459908 -1523714599 830508800 -1767472713 1274060844 -1717039345 448970191 -1627103958 -1171141834 841936707 2088995482 1163087113 413444103 821858612 1586065953 1850581057 209451421 1855529047 696773027 485819862 392381960 2059690558 -811226552 -39495669
REM
CELL 1.54180   50.00000   50.00000   50.00000   90.00000   90.00000   90.00000
LATT -1
SFAC C  
C      1  0.4658720000000  0.5975930000000  0.5276550000000 1.0
C      1  0.4907660000000  0.4920950000000  0.5557680000000 1.0
C      1  0.4803530000000  0.4693500000000  0.5415240000000 1.0
C      1  0.5594870000000  0.4951710000000  0.5005610000000 1.0
C      1  0.4452370000000  0.5311150000000  0.5079460000000 1.0
C      1  0.5240350000000  0.5073140000000  0.4617290000000 1.0
C      1  0.4541510000000  0.5103820000000  0.4915220000000 1.0
C      1  0.5594400000000  0.5235440000000  0.5547660000000 1.0
C      1  0.4738440000000  0.5128360000000  0.5636130000000 1.0
C      1  0.5258760000000  0.4203650000000  0.4715950000000 1.0
C      1  0.4020120000000  0.4901110000000  0.4534300000000 1.0
C      1  0.4493220000000  0.4641590000000  0.5054250000000 1.0
C      1  0.4814280000000  0.6179450000000  0.5324930000000 1.0
C      1  0.4865780000000  0.4334800000000  0.5052130000000 1.0
C      1  0.5019060000000  0.5025400000000  0.4797100000000 1.0
C      1  0.5187960000000  0.4780630000000  0.3946170000000 1.0
C      1  0.4590560000000  0.5375790000000  0.4301280000000 1.0
C      1  0.5613990000000  0.4730010000000  0.4830110000000 1.0
C      1  0.5779810000000  0.4357570000000  0.4646320000000 1.0
C      1  0.4344070000000  0.5539360000000  0.5198110000000 1.0
C      1  0.6108180000000  0.5258380000000  0.5038340000000 1.0
C      1  0.4593640000000  0.5312460000000  0.5760030000000 1.0
C      1  0.5303530000000  0.4835770000000  0.4468510000000 1.0
C      1  0.5874630000000  0.4618820000000  0.4751880000000 1.0
C      1  0.4396020000000  0.4858200000000  0.4906600000000 1.0
C      1  0.5425160000000  0.4640220000000  0.4628890000000 1.0
C      1  0.5432490000000  0.4919650000000  0.5227810000000 1.0
C      1  0.5479480000000  0.4353010000000  0.4618350000000 1.0
C      1  0.6045350000000  0.4852820000000  0.4744250000000 1.0
C      1  0.4730110000000  0.5298980000000  0.4514400000000 1.0
C      1  0.5463430000000  0.5248210000000  0.4673450000000 1.0
C      1  0.4455960000000  0.5490330000000  0.5891840000000 1.0
C      1  0.5247710000000  0.4806460000000  0.4198510000000 1.0
C      1  0.4501450000000  0.5767810000000  0.5230300000000 1.0
C      1  0.4364770000000  0.5352060000000  0.4161320000000 1.0
C      1  0.6031640000000  0.5330420000000  0.5286710000000 1.0
C      1  0.5269400000000  0.4682430000000  0.5756450000000 1.0
C      1  0.4168370000000  0.4837110000000  0.4745760000000 1.0
C      1  0.4767640000000  0.5145750000000  0.4746770000000 1.0
C      1  0.5057900000000  0.4812860000000  0.4984870000000 1.0
C      1  0.5972140000000  0.5125360000000  0.4828370000000 1.0
C      1  0.5449870000000  0.4254530000000  0.5198040000000 1.0
C      1  0.4078870000000  0.5538590000000  0.5285590000000 1.0
C      1  0.4130770000000  0.5223160000000  0.4162430000000 1.0
C      1  0.5835200000000  0.5325160000000  0.5469450000000 1.0
C      1  0.3997910000000  0.5045360000000  0.4311100000000 1.0
C      1  0.3831730000000  0.5530310000000  0.5380680000000 1.0
C      1  0.4716490000000  0.4537150000000  0.5190620000000 1.0
C      1  0.5394010000000  0.5052020000000  0.5476650000000 1.0
C      1  0.5036150000000  0.4226810000000  0.4870720000000 1.0
C      1  0.5244180000000  0.4707790000000  0.5176240000000 1.0
C      1  0.5304240000000  0.4466340000000  0.5597500000000 1.0
C      1  0.3589290000000  0.5521300000000  0.5476090000000 1.0
C      1  0.5314310000000  0.4462150000000  0.5313390000000 1.0
C      1  0.5186670000000  0.4926870000000  0.5636710000000 1.0
C      1  0.5681870000000  0.5172050000000  0.4839890000000 1.0
END
