TITL C-3866676-3738-324 15.9352725518837 125000 -673.019093618024 0 0 113 (C1) n - 1
REM
REM in /home/nfs/bkarasulu/CARBON/AIRSS/Generating-Clusters/LCBOP/Only-C1/SD-CG/FIRE-CG
REM
REM
REM
REM
REM
REM ./C.cell (11c1c37f851c82e70ff6c80c92926a4b)
REM AIRSS Version 0.9.1 bugfix July 2018 build 013d7b7c2542+ Fri, 06 Jul 2018 19:26:36 +0100
REM compiler GCC version 9.2.1 20190827 (Red Hat 9.2.1-1)
REM options -cpp -mtune=generic -march=x86-64 -g -O0 -fpre-include=/usr/include/finclude/math-vector-fortran.h
REM seed -1020040111 2126538606 -1593370105 949019887 -1921423274 1172103310 1674225286 853527794 809221157 -1482005100 -1658899940 -611069425 -986400244 1461904240 1149256108 -1875602201 669652924 -1484317070 -1810402414 830650681 -53746219 315307201 -954216786 -132487398 -278455334 1492323675 -253749602 1464277398 1844268127 -1818966803 1429161540 541026339 -238611618
REM
CELL 1.54180   50.00000   50.00000   50.00000   90.00000   90.00000   90.00000
LATT -1
SFAC C  
C      1  0.4047500000000  0.4884380000000  0.5029520000000 1.0
C      1  0.6008060000000  0.4340720000000  0.5199240000000 1.0
C      1  0.4768360000000  0.5612030000000  0.4450100000000 1.0
C      1  0.5248640000000  0.4055790000000  0.4649810000000 1.0
C      1  0.4988720000000  0.5706580000000  0.4874420000000 1.0
C      1  0.4447140000000  0.4759450000000  0.5760520000000 1.0
C      1  0.5018250000000  0.5116770000000  0.4541570000000 1.0
C      1  0.4400590000000  0.5720690000000  0.4831670000000 1.0
C      1  0.4149420000000  0.5678330000000  0.4281980000000 1.0
C      1  0.5030780000000  0.5149910000000  0.6311270000000 1.0
C      1  0.5058940000000  0.5027180000000  0.5511340000000 1.0
C      1  0.4121590000000  0.5642090000000  0.4793240000000 1.0
C      1  0.4613350000000  0.4974730000000  0.6496000000000 1.0
C      1  0.4564400000000  0.5560220000000  0.4657020000000 1.0
C      1  0.4461310000000  0.4811700000000  0.4259930000000 1.0
C      1  0.5169640000000  0.6053640000000  0.5287880000000 1.0
C      1  0.4633440000000  0.5505050000000  0.4209650000000 1.0
C      1  0.3980640000000  0.5161180000000  0.5007870000000 1.0
C      1  0.5339300000000  0.5312890000000  0.4905830000000 1.0
C      1  0.5202460000000  0.5258980000000  0.5592960000000 1.0
C      1  0.4622190000000  0.3807720000000  0.4653320000000 1.0
C      1  0.5382270000000  0.4554540000000  0.5020890000000 1.0
C      1  0.5429690000000  0.6119580000000  0.5199980000000 1.0
C      1  0.5515040000000  0.6384960000000  0.5227150000000 1.0
C      1  0.5238320000000  0.5314440000000  0.6305050000000 1.0
C      1  0.5919400000000  0.5106490000000  0.5035910000000 1.0
C      1  0.4930450000000  0.5913680000000  0.5340210000000 1.0
C      1  0.5857720000000  0.4069950000000  0.4818710000000 1.0
C      1  0.5560320000000  0.5566500000000  0.4562130000000 1.0
C      1  0.5608720000000  0.5932900000000  0.5086350000000 1.0
C      1  0.4671480000000  0.3567090000000  0.4566020000000 1.0
C      1  0.5504330000000  0.5724910000000  0.4331980000000 1.0
C      1  0.5235410000000  0.5758490000000  0.4279580000000 1.0
C      1  0.5338250000000  0.5174790000000  0.5150540000000 1.0
C      1  0.4905050000000  0.4328660000000  0.5648310000000 1.0
C      1  0.5256040000000  0.5030610000000  0.3819920000000 1.0
C      1  0.4943300000000  0.4851790000000  0.5076570000000 1.0
C      1  0.5759760000000  0.5762940000000  0.4944110000000 1.0
C      1  0.4348990000000  0.4973360000000  0.6402020000000 1.0
C      1  0.5103030000000  0.5068320000000  0.3588000000000 1.0
C      1  0.4643710000000  0.4396940000000  0.5109230000000 1.0
C      1  0.5594530000000  0.6631870000000  0.5252480000000 1.0
C      1  0.4584750000000  0.4053710000000  0.4744290000000 1.0
C      1  0.4033860000000  0.5691420000000  0.4526020000000 1.0
C      1  0.5076560000000  0.4137120000000  0.5143190000000 1.0
C      1  0.4854130000000  0.5058370000000  0.3491710000000 1.0
C      1  0.5311560000000  0.5465730000000  0.4668250000000 1.0
C      1  0.4954270000000  0.5642330000000  0.5432100000000 1.0
C      1  0.4524460000000  0.5021620000000  0.4083980000000 1.0
C      1  0.5427220000000  0.5656930000000  0.5624250000000 1.0
C      1  0.5121730000000  0.4404380000000  0.4992740000000 1.0
C      1  0.5115010000000  0.4312460000000  0.4703030000000 1.0
C      1  0.4923990000000  0.4512560000000  0.6119800000000 1.0
C      1  0.5616470000000  0.5477130000000  0.5493780000000 1.0
C      1  0.5879110000000  0.5295930000000  0.4824760000000 1.0
C      1  0.4422830000000  0.4586260000000  0.5253040000000 1.0
C      1  0.5153430000000  0.5119750000000  0.4065820000000 1.0
C      1  0.6009910000000  0.4612240000000  0.5115720000000 1.0
C      1  0.4532340000000  0.4315460000000  0.4834170000000 1.0
C      1  0.5233500000000  0.4947030000000  0.4583090000000 1.0
C      1  0.5550540000000  0.4446900000000  0.4112800000000 1.0
C      1  0.4359280000000  0.4475650000000  0.4670040000000 1.0
C      1  0.4084000000000  0.4500460000000  0.4733110000000 1.0
C      1  0.4502580000000  0.5894240000000  0.5027940000000 1.0
C      1  0.5769830000000  0.5551360000000  0.4754660000000 1.0
C      1  0.5732850000000  0.4036110000000  0.4584440000000 1.0
C      1  0.4242560000000  0.4840970000000  0.5932850000000 1.0
C      1  0.4669360000000  0.4980810000000  0.6763320000000 1.0
C      1  0.4903970000000  0.5456620000000  0.4956340000000 1.0
C      1  0.5823260000000  0.4152300000000  0.5086230000000 1.0
C      1  0.4959170000000  0.4331140000000  0.5923640000000 1.0
C      1  0.4718720000000  0.4824990000000  0.5828570000000 1.0
C      1  0.5885160000000  0.5419750000000  0.5444790000000 1.0
C      1  0.5577700000000  0.4637630000000  0.3929970000000 1.0
C      1  0.5475410000000  0.4857690000000  0.3821250000000 1.0
C      1  0.4821700000000  0.4964810000000  0.6301030000000 1.0
C      1  0.4377760000000  0.5613930000000  0.4153440000000 1.0
C      1  0.5481250000000  0.4094560000000  0.4478580000000 1.0
C      1  0.4471180000000  0.5006130000000  0.3808870000000 1.0
C      1  0.4453250000000  0.5303660000000  0.4628990000000 1.0
C      1  0.5059020000000  0.5622830000000  0.4456810000000 1.0
C      1  0.4313850000000  0.4817300000000  0.5112920000000 1.0
C      1  0.5321390000000  0.4020430000000  0.5226340000000 1.0
C      1  0.4685610000000  0.5975290000000  0.5208320000000 1.0
C      1  0.4452990000000  0.4626500000000  0.4451610000000 1.0
C      1  0.3935590000000  0.4680600000000  0.4869420000000 1.0
C      1  0.4853560000000  0.5453670000000  0.5238570000000 1.0
C      1  0.4905390000000  0.4572020000000  0.5131700000000 1.0
C      1  0.4938990000000  0.4565180000000  0.5489760000000 1.0
C      1  0.4602580000000  0.5027210000000  0.3576840000000 1.0
C      1  0.5193620000000  0.4462030000000  0.4467660000000 1.0
C      1  0.5127020000000  0.4994070000000  0.5229280000000 1.0
C      1  0.5841960000000  0.4826350000000  0.5036130000000 1.0
C      1  0.4956450000000  0.5154680000000  0.4263670000000 1.0
C      1  0.5446240000000  0.5471460000000  0.6296480000000 1.0
C      1  0.4503100000000  0.4987090000000  0.5001500000000 1.0
C      1  0.6185760000000  0.4256800000000  0.5390270000000 1.0
C      1  0.4773860000000  0.4117320000000  0.5514160000000 1.0
C      1  0.4013940000000  0.5420570000000  0.4938560000000 1.0
C      1  0.5576880000000  0.4736400000000  0.4992590000000 1.0
C      1  0.4397930000000  0.4601430000000  0.5532750000000 1.0
C      1  0.5150690000000  0.5547790000000  0.5617460000000 1.0
C      1  0.4790060000000  0.4130980000000  0.5232560000000 1.0
C      1  0.5991220000000  0.5231880000000  0.5281600000000 1.0
C      1  0.4911460000000  0.4816520000000  0.5618670000000 1.0
C      1  0.5439100000000  0.5268340000000  0.5404510000000 1.0
C      1  0.4765620000000  0.5003020000000  0.4928330000000 1.0
C      1  0.4698210000000  0.5229970000000  0.4170630000000 1.0
C      1  0.4816110000000  0.4772540000000  0.6093630000000 1.0
C      1  0.5418600000000  0.4338750000000  0.4330260000000 1.0
C      1  0.4203950000000  0.4922790000000  0.6183880000000 1.0
C      1  0.5588110000000  0.4060220000000  0.5216640000000 1.0
C      1  0.4885920000000  0.5214960000000  0.4785610000000 1.0
END
