TITL C-3866676-3738-387 -2.26958332591537e-09 125000 -293.834087233927 0 0 50 (C1) n - 1
REM
REM in /home/nfs/bkarasulu/CARBON/AIRSS/Generating-Clusters/LCBOP/Only-C1/SD-CG/FIRE-CG
REM
REM
REM
REM
REM
REM ./C.cell (11c1c37f851c82e70ff6c80c92926a4b)
REM AIRSS Version 0.9.1 bugfix July 2018 build 013d7b7c2542+ Fri, 06 Jul 2018 19:26:36 +0100
REM compiler GCC version 9.2.1 20190827 (Red Hat 9.2.1-1)
REM options -cpp -mtune=generic -march=x86-64 -g -O0 -fpre-include=/usr/include/finclude/math-vector-fortran.h
REM seed -1537066151 -1911796858 -318653207 -429675644 -181022170 1376160768 1062480915 1745830357 -78767313 -28609846 -1703334752 1113682028 -2146493373 -630005752 -236937490 2047190544 -1248930945 1720001437 -1694501988 -415355774 -963736133 -1222753358 785445620 1427291926 1166116947 377472923 -1923609338 294429866 2112786454 1617902000 2021838921 -1982439152 992071677
REM
CELL 1.54180   50.00000   50.00000   50.00000   90.00000   90.00000   90.00000
LATT -1
SFAC C  
C      1  0.4569600000000  0.5054090000000  0.5644280000000 1.0
C      1  0.5498910000000  0.5186240000000  0.4425260000000 1.0
C      1  0.5161700000000  0.5662320000000  0.4974850000000 1.0
C      1  0.4997040000000  0.5141350000000  0.5057340000000 1.0
C      1  0.5444890000000  0.4857070000000  0.5160160000000 1.0
C      1  0.5886510000000  0.5079510000000  0.5537440000000 1.0
C      1  0.4694330000000  0.5145510000000  0.4652070000000 1.0
C      1  0.4844640000000  0.4666420000000  0.5537490000000 1.0
C      1  0.5385860000000  0.4217420000000  0.5695900000000 1.0
C      1  0.5371580000000  0.4680880000000  0.4955630000000 1.0
C      1  0.4328740000000  0.4748360000000  0.4974010000000 1.0
C      1  0.5551900000000  0.4534480000000  0.4313340000000 1.0
C      1  0.5878200000000  0.5072490000000  0.5261920000000 1.0
C      1  0.4342010000000  0.4542670000000  0.4777430000000 1.0
C      1  0.5389760000000  0.4474400000000  0.4517630000000 1.0
C      1  0.4985480000000  0.4704160000000  0.4654070000000 1.0
C      1  0.4666630000000  0.5608740000000  0.4977680000000 1.0
C      1  0.5457440000000  0.5304100000000  0.5283570000000 1.0
C      1  0.4720310000000  0.4831480000000  0.5732460000000 1.0
C      1  0.5162630000000  0.5176760000000  0.4829040000000 1.0
C      1  0.4882030000000  0.5570930000000  0.4547100000000 1.0
C      1  0.4869050000000  0.4906760000000  0.5090930000000 1.0
C      1  0.4763780000000  0.5335210000000  0.4438450000000 1.0
C      1  0.4471380000000  0.5200170000000  0.4812620000000 1.0
C      1  0.4437820000000  0.4769040000000  0.5243450000000 1.0
C      1  0.5260680000000  0.4431150000000  0.5614920000000 1.0
C      1  0.5303150000000  0.4873230000000  0.5423110000000 1.0
C      1  0.5620500000000  0.5099050000000  0.5136830000000 1.0
C      1  0.4649130000000  0.4594380000000  0.5338430000000 1.0
C      1  0.4678370000000  0.4874320000000  0.4291140000000 1.0
C      1  0.4420770000000  0.5027070000000  0.5394930000000 1.0
C      1  0.4698250000000  0.5303860000000  0.5672700000000 1.0
C      1  0.4278380000000  0.5000020000000  0.4851870000000 1.0
C      1  0.4792970000000  0.4885660000000  0.4565480000000 1.0
C      1  0.4909120000000  0.5651780000000  0.4825080000000 1.0
C      1  0.4383110000000  0.5279340000000  0.5261420000000 1.0
C      1  0.5654890000000  0.5112000000000  0.5683660000000 1.0
C      1  0.4487780000000  0.5391990000000  0.5022560000000 1.0
C      1  0.4718380000000  0.5157540000000  0.4205630000000 1.0
C      1  0.5407040000000  0.5134870000000  0.5536510000000 1.0
C      1  0.5335680000000  0.5223390000000  0.4631870000000 1.0
C      1  0.4375430000000  0.4538410000000  0.4507300000000 1.0
C      1  0.5009870000000  0.5342200000000  0.5260730000000 1.0
C      1  0.5648650000000  0.4759690000000  0.4205000000000 1.0
C      1  0.5132790000000  0.4663380000000  0.5522080000000 1.0
C      1  0.5622800000000  0.5021120000000  0.4256290000000 1.0
C      1  0.5240920000000  0.4603130000000  0.4718360000000 1.0
C      1  0.4480630000000  0.4670430000000  0.4292840000000 1.0
C      1  0.4874130000000  0.5401980000000  0.5495720000000 1.0
C      1  0.5254360000000  0.5489420000000  0.5191420000000 1.0
END
