TITL C-3866671-3735-389 0.2270691722454 125000 -885.210478802659 0 0 144 (C1) n - 1
REM
REM in /home/nfs/bkarasulu/CARBON/AIRSS/Generating-Clusters/LCBOP/Only-C1/SD-CG/FIRE-CG
REM
REM
REM
REM
REM
REM ./C.cell (11c1c37f851c82e70ff6c80c92926a4b)
REM AIRSS Version 0.9.1 bugfix July 2018 build 013d7b7c2542+ Fri, 06 Jul 2018 19:26:36 +0100
REM compiler GCC version 9.2.1 20190827 (Red Hat 9.2.1-1)
REM options -cpp -mtune=generic -march=x86-64 -g -O0 -fpre-include=/usr/include/finclude/math-vector-fortran.h
REM seed -65220379 2119907731 151236659 830752922 -689663373 70458145 135008831 -1911345507 2138027425 1412937838 1482787332 1265237794 1240998858 27407800 -1593473191 -977992377 1011723984 -1549422248 -1615693467 56107453 1599547987 -1994828798 826539901 -131460878 -1588967556 -629869879 -1005339568 230249868 487399894 -1438131258 -885064985 2005707932 1122767837
REM
CELL 1.54180   50.00000   50.00000   50.00000   90.00000   90.00000   90.00000
LATT -1
SFAC C  
C      1  0.4885770000000  0.5690430000000  0.5236830000000 1.0
C      1  0.6370140000000  0.5823270000000  0.5397040000000 1.0
C      1  0.4267640000000  0.5198910000000  0.5740950000000 1.0
C      1  0.5703470000000  0.5264200000000  0.5595950000000 1.0
C      1  0.4973690000000  0.6128870000000  0.4535610000000 1.0
C      1  0.5369290000000  0.4696150000000  0.5354600000000 1.0
C      1  0.5610620000000  0.4680240000000  0.4374580000000 1.0
C      1  0.5470550000000  0.4743510000000  0.4133550000000 1.0
C      1  0.4224610000000  0.4274920000000  0.5394420000000 1.0
C      1  0.5791410000000  0.4293540000000  0.5581870000000 1.0
C      1  0.4871080000000  0.4676010000000  0.5943640000000 1.0
C      1  0.4614860000000  0.4015410000000  0.4330710000000 1.0
C      1  0.6231550000000  0.4976670000000  0.5125970000000 1.0
C      1  0.4658420000000  0.5320560000000  0.5526910000000 1.0
C      1  0.4524290000000  0.5346560000000  0.5086220000000 1.0
C      1  0.5130270000000  0.3979990000000  0.5402880000000 1.0
C      1  0.4801350000000  0.4782820000000  0.5347900000000 1.0
C      1  0.5319560000000  0.3988830000000  0.4568190000000 1.0
C      1  0.5302710000000  0.4199100000000  0.5415280000000 1.0
C      1  0.5283660000000  0.4856590000000  0.5611060000000 1.0
C      1  0.4721200000000  0.5301070000000  0.6015850000000 1.0
C      1  0.4063050000000  0.5553490000000  0.5381780000000 1.0
C      1  0.4332100000000  0.4227400000000  0.4913010000000 1.0
C      1  0.5660620000000  0.5259850000000  0.5094650000000 1.0
C      1  0.5034770000000  0.6169940000000  0.4811030000000 1.0
C      1  0.5611780000000  0.4697970000000  0.4905900000000 1.0
C      1  0.5217650000000  0.5973960000000  0.4913340000000 1.0
C      1  0.5567750000000  0.4174680000000  0.5500710000000 1.0
C      1  0.4522880000000  0.5388970000000  0.4799240000000 1.0
C      1  0.4484090000000  0.6035820000000  0.4624400000000 1.0
C      1  0.4507470000000  0.4622450000000  0.4310500000000 1.0
C      1  0.5004520000000  0.5289670000000  0.5973210000000 1.0
C      1  0.4646580000000  0.5011030000000  0.5494890000000 1.0
C      1  0.5295940000000  0.4549680000000  0.4021270000000 1.0
C      1  0.4395110000000  0.4720670000000  0.5770640000000 1.0
C      1  0.5446270000000  0.5957910000000  0.4734010000000 1.0
C      1  0.5544110000000  0.5688420000000  0.4332980000000 1.0
C      1  0.5129240000000  0.5226390000000  0.4369980000000 1.0
C      1  0.4551960000000  0.4916750000000  0.4785070000000 1.0
C      1  0.5479300000000  0.4822390000000  0.5127440000000 1.0
C      1  0.4582700000000  0.5569390000000  0.5645670000000 1.0
C      1  0.5763280000000  0.3677760000000  0.4533140000000 1.0
C      1  0.5144880000000  0.5141600000000  0.5533060000000 1.0
C      1  0.4773670000000  0.5399080000000  0.5263580000000 1.0
C      1  0.5148690000000  0.5495650000000  0.4939470000000 1.0
C      1  0.4349340000000  0.4946860000000  0.5580710000000 1.0
C      1  0.4055300000000  0.4880090000000  0.4842420000000 1.0
C      1  0.6155730000000  0.5224180000000  0.5009500000000 1.0
C      1  0.4990370000000  0.4837200000000  0.6151650000000 1.0
C      1  0.4575200000000  0.5592080000000  0.4258850000000 1.0
C      1  0.4102640000000  0.5387580000000  0.5595680000000 1.0
C      1  0.6224910000000  0.5624350000000  0.5311930000000 1.0
C      1  0.5096510000000  0.4351640000000  0.4878180000000 1.0
C      1  0.4358830000000  0.6203140000000  0.5313300000000 1.0
C      1  0.5179760000000  0.5348280000000  0.5737720000000 1.0
C      1  0.4279120000000  0.4569050000000  0.4488540000000 1.0
C      1  0.5522260000000  0.4882460000000  0.5801170000000 1.0
C      1  0.4912540000000  0.4828770000000  0.4520820000000 1.0
C      1  0.4658420000000  0.4072570000000  0.5933330000000 1.0
C      1  0.4338470000000  0.5644780000000  0.4425010000000 1.0
C      1  0.4478450000000  0.5092280000000  0.4215060000000 1.0
C      1  0.4663970000000  0.5319330000000  0.4183540000000 1.0
C      1  0.5291670000000  0.4182070000000  0.4771530000000 1.0
C      1  0.4303610000000  0.5817440000000  0.4660030000000 1.0
C      1  0.5545450000000  0.3827680000000  0.4549530000000 1.0
C      1  0.4282140000000  0.5271070000000  0.4669090000000 1.0
C      1  0.5590590000000  0.5520010000000  0.4099860000000 1.0
C      1  0.4602750000000  0.4143500000000  0.5014030000000 1.0
C      1  0.5025490000000  0.5225800000000  0.5287950000000 1.0
C      1  0.5106940000000  0.3968940000000  0.4384050000000 1.0
C      1  0.6145210000000  0.4857990000000  0.5351600000000 1.0
C      1  0.4870920000000  0.3932460000000  0.5364390000000 1.0
C      1  0.4995790000000  0.5474780000000  0.4707190000000 1.0
C      1  0.5163060000000  0.4822840000000  0.4667590000000 1.0
C      1  0.5054390000000  0.5025930000000  0.3986650000000 1.0
C      1  0.4279270000000  0.5077210000000  0.4440320000000 1.0
C      1  0.4281420000000  0.5187650000000  0.5141600000000 1.0
C      1  0.5101190000000  0.4649460000000  0.4906560000000 1.0
C      1  0.4289730000000  0.4297800000000  0.4624810000000 1.0
C      1  0.4488840000000  0.5811040000000  0.5573400000000 1.0
C      1  0.4154370000000  0.4819260000000  0.4568660000000 1.0
C      1  0.5112840000000  0.5750910000000  0.5064770000000 1.0
C      1  0.5469690000000  0.5328120000000  0.5807970000000 1.0
C      1  0.4128450000000  0.5164520000000  0.4889280000000 1.0
C      1  0.5198050000000  0.4457810000000  0.5367830000000 1.0
C      1  0.4751210000000  0.3874250000000  0.6082320000000 1.0
C      1  0.4769880000000  0.4563490000000  0.4456030000000 1.0
C      1  0.5439920000000  0.5084150000000  0.5996420000000 1.0
C      1  0.5803750000000  0.5347560000000  0.5328410000000 1.0
C      1  0.4585660000000  0.4280900000000  0.5760730000000 1.0
C      1  0.5733310000000  0.5269350000000  0.4821710000000 1.0
C      1  0.4345400000000  0.5935540000000  0.5363430000000 1.0
C      1  0.4949290000000  0.3477470000000  0.6364710000000 1.0
C      1  0.5053400000000  0.4684740000000  0.5726310000000 1.0
C      1  0.5623910000000  0.5227150000000  0.4101830000000 1.0
C      1  0.4782910000000  0.6804160000000  0.5233290000000 1.0
C      1  0.4217560000000  0.4948100000000  0.5306040000000 1.0
C      1  0.5158300000000  0.5484610000000  0.4486610000000 1.0
C      1  0.4871490000000  0.4794350000000  0.3995240000000 1.0
C      1  0.4483840000000  0.4213070000000  0.5495720000000 1.0
C      1  0.4714180000000  0.6026880000000  0.4462860000000 1.0
C      1  0.6006560000000  0.5229030000000  0.4755690000000 1.0
C      1  0.5929260000000  0.4519010000000  0.5612060000000 1.0
C      1  0.5439430000000  0.5500970000000  0.4521440000000 1.0
C      1  0.4908580000000  0.4388570000000  0.4259320000000 1.0
C      1  0.5957070000000  0.4792200000000  0.5550970000000 1.0
C      1  0.4747590000000  0.5041070000000  0.4621830000000 1.0
C      1  0.6029510000000  0.5174600000000  0.4473630000000 1.0
C      1  0.4152500000000  0.4267060000000  0.5131040000000 1.0
C      1  0.5158160000000  0.5069510000000  0.6105370000000 1.0
C      1  0.5305770000000  0.5055930000000  0.4559270000000 1.0
C      1  0.5013930000000  0.4542390000000  0.4045700000000 1.0
C      1  0.6069900000000  0.5411590000000  0.5223200000000 1.0
C      1  0.5654470000000  0.4658390000000  0.4641040000000 1.0
C      1  0.5202630000000  0.5257810000000  0.5081210000000 1.0
C      1  0.4077160000000  0.4774510000000  0.5115230000000 1.0
C      1  0.5433160000000  0.5103810000000  0.5111930000000 1.0
C      1  0.4952070000000  0.4572290000000  0.5482710000000 1.0
C      1  0.4177820000000  0.5756520000000  0.5211090000000 1.0
C      1  0.5432570000000  0.5937710000000  0.4440550000000 1.0
C      1  0.4636910000000  0.4687480000000  0.4907750000000 1.0
C      1  0.4695860000000  0.4474520000000  0.4728300000000 1.0
C      1  0.4745810000000  0.5823390000000  0.4246790000000 1.0
C      1  0.5409330000000  0.5015240000000  0.4044730000000 1.0
C      1  0.5977750000000  0.3530440000000  0.4517050000000 1.0
C      1  0.5762500000000  0.4971340000000  0.5657120000000 1.0
C      1  0.4850830000000  0.3674320000000  0.6224990000000 1.0
C      1  0.4820000000000  0.4257430000000  0.4864880000000 1.0
C      1  0.4588260000000  0.4832950000000  0.4121060000000 1.0
C      1  0.4456690000000  0.5258810000000  0.5955820000000 1.0
C      1  0.4383680000000  0.4090840000000  0.4447500000000 1.0
C      1  0.5014540000000  0.5873460000000  0.4151510000000 1.0
C      1  0.4938140000000  0.6381910000000  0.4961500000000 1.0
C      1  0.4863770000000  0.4740820000000  0.5072340000000 1.0
C      1  0.4610380000000  0.4555370000000  0.5859460000000 1.0
C      1  0.4860630000000  0.6595320000000  0.5097980000000 1.0
C      1  0.4879910000000  0.4108650000000  0.4296650000000 1.0
C      1  0.5868280000000  0.5153860000000  0.4251050000000 1.0
C      1  0.4644650000000  0.4080380000000  0.5293470000000 1.0
C      1  0.4187580000000  0.5774240000000  0.4921540000000 1.0
C      1  0.4766660000000  0.5317920000000  0.4681390000000 1.0
C      1  0.4946260000000  0.5229600000000  0.4152430000000 1.0
C      1  0.5524590000000  0.5250090000000  0.4633240000000 1.0
C      1  0.5176620000000  0.6025330000000  0.4341500000000 1.0
END
