TITL C-3866675-3766-770 2.00342695572366e-05 125000 -461.681188863342 0 0 76 (C1) n - 1
REM
REM in /home/nfs/bkarasulu/CARBON/AIRSS/Generating-Clusters/LCBOP/Only-C1/SD-CG/FIRE-CG
REM
REM
REM
REM
REM
REM ./C.cell (11c1c37f851c82e70ff6c80c92926a4b)
REM AIRSS Version 0.9.1 bugfix July 2018 build 013d7b7c2542+ Fri, 06 Jul 2018 19:26:36 +0100
REM compiler GCC version 9.2.1 20190827 (Red Hat 9.2.1-1)
REM options -cpp -mtune=generic -march=x86-64 -g -O0 -fpre-include=/usr/include/finclude/math-vector-fortran.h
REM seed -767815112 -633553793 -2115672093 1786339231 1491486220 -1426550879 2055032556 1961400160 2058485246 -1332043272 -1692696789 -657942396 1380003839 -457943621 564960182 333759199 -1786441706 802524637 371857893 1979043946 1712801749 1908992353 2008999412 632068160 -1352719103 1432243337 -864845891 -1248452877 104889943 144597516 446863180 -1555973345 605899095
REM
CELL 1.54180   50.00000   50.00000   50.00000   90.00000   90.00000   90.00000
LATT -1
SFAC C  
C      1  0.5332830000000  0.4956390000000  0.5453350000000 1.0
C      1  0.5825440000000  0.5379680000000  0.5095030000000 1.0
C      1  0.3841180000000  0.5407300000000  0.5268530000000 1.0
C      1  0.5018500000000  0.5775150000000  0.4847820000000 1.0
C      1  0.5354280000000  0.4764810000000  0.5975500000000 1.0
C      1  0.4740830000000  0.4398080000000  0.5022850000000 1.0
C      1  0.5142290000000  0.4541010000000  0.5290760000000 1.0
C      1  0.5166380000000  0.5616460000000  0.5369460000000 1.0
C      1  0.5618640000000  0.4404110000000  0.5300590000000 1.0
C      1  0.5263150000000  0.5673150000000  0.4766740000000 1.0
C      1  0.3973810000000  0.4946960000000  0.5328450000000 1.0
C      1  0.5518400000000  0.5383490000000  0.5589870000000 1.0
C      1  0.4787370000000  0.5175890000000  0.5725530000000 1.0
C      1  0.5713740000000  0.5575300000000  0.4676940000000 1.0
C      1  0.5445650000000  0.4677340000000  0.4388340000000 1.0
C      1  0.4905300000000  0.4600490000000  0.5137180000000 1.0
C      1  0.5333220000000  0.4253270000000  0.4936650000000 1.0
C      1  0.4759420000000  0.5679630000000  0.4897850000000 1.0
C      1  0.5712050000000  0.5046880000000  0.4514230000000 1.0
C      1  0.5361530000000  0.4257270000000  0.4672100000000 1.0
C      1  0.5219250000000  0.4623180000000  0.5787020000000 1.0
C      1  0.4738120000000  0.5081500000000  0.5234610000000 1.0
C      1  0.4627180000000  0.4487610000000  0.4363080000000 1.0
C      1  0.5157820000000  0.5242490000000  0.4510290000000 1.0
C      1  0.4510450000000  0.5236890000000  0.4369660000000 1.0
C      1  0.5603570000000  0.5565030000000  0.5144420000000 1.0
C      1  0.4883170000000  0.4606150000000  0.4439270000000 1.0
C      1  0.4029620000000  0.5210720000000  0.5242100000000 1.0
C      1  0.5137100000000  0.5160510000000  0.4228620000000 1.0
C      1  0.5149930000000  0.4994860000000  0.4959910000000 1.0
C      1  0.4459030000000  0.4734120000000  0.4305450000000 1.0
C      1  0.4915480000000  0.5495770000000  0.5347270000000 1.0
C      1  0.4583230000000  0.5640950000000  0.4682440000000 1.0
C      1  0.5441400000000  0.5552840000000  0.5376750000000 1.0
C      1  0.4861170000000  0.5227790000000  0.5458110000000 1.0
C      1  0.5280460000000  0.5498940000000  0.4539080000000 1.0
C      1  0.5358480000000  0.4387740000000  0.5180700000000 1.0
C      1  0.5775530000000  0.4636450000000  0.5272270000000 1.0
C      1  0.5474590000000  0.5000390000000  0.5913280000000 1.0
C      1  0.4613590000000  0.4280090000000  0.4816940000000 1.0
C      1  0.4496170000000  0.5470730000000  0.4496520000000 1.0
C      1  0.5875700000000  0.4883760000000  0.5273760000000 1.0
C      1  0.5315160000000  0.5036400000000  0.5184660000000 1.0
C      1  0.4556180000000  0.5288300000000  0.5127020000000 1.0
C      1  0.5254450000000  0.5030440000000  0.4695610000000 1.0
C      1  0.4283240000000  0.4788300000000  0.4534390000000 1.0
C      1  0.4827860000000  0.4872540000000  0.4542730000000 1.0
C      1  0.5456640000000  0.5118400000000  0.5656730000000 1.0
C      1  0.4658770000000  0.4985350000000  0.4306720000000 1.0
C      1  0.4408620000000  0.4853450000000  0.4771810000000 1.0
C      1  0.5210620000000  0.4701590000000  0.5515730000000 1.0
C      1  0.4306840000000  0.4941680000000  0.5701980000000 1.0
C      1  0.5613050000000  0.5232760000000  0.4307840000000 1.0
C      1  0.5921370000000  0.5141430000000  0.4674710000000 1.0
C      1  0.5443290000000  0.4805970000000  0.4131870000000 1.0
C      1  0.4718650000000  0.5530970000000  0.5134030000000 1.0
C      1  0.5891360000000  0.5148260000000  0.5238410000000 1.0
C      1  0.4867790000000  0.4889580000000  0.5036230000000 1.0
C      1  0.5713590000000  0.4191940000000  0.5445630000000 1.0
C      1  0.4932240000000  0.5269040000000  0.5937250000000 1.0
C      1  0.4692850000000  0.4887940000000  0.4793360000000 1.0
C      1  0.4543420000000  0.5043210000000  0.5766130000000 1.0
C      1  0.3993560000000  0.4569870000000  0.5635390000000 1.0
C      1  0.5409750000000  0.4411980000000  0.4460550000000 1.0
C      1  0.3703170000000  0.4537150000000  0.5268150000000 1.0
C      1  0.4280250000000  0.5268660000000  0.5132310000000 1.0
C      1  0.4549210000000  0.4291660000000  0.4553540000000 1.0
C      1  0.3785140000000  0.4784310000000  0.5189330000000 1.0
C      1  0.3807920000000  0.4428970000000  0.5494990000000 1.0
C      1  0.4887610000000  0.5068550000000  0.4126120000000 1.0
C      1  0.5524390000000  0.5678890000000  0.4888970000000 1.0
C      1  0.5487780000000  0.4879820000000  0.4591960000000 1.0
C      1  0.4095200000000  0.4826230000000  0.5562570000000 1.0
C      1  0.5888820000000  0.5385380000000  0.4812250000000 1.0
C      1  0.5559910000000  0.5486210000000  0.4440710000000 1.0
C      1  0.5406250000000  0.5093610000000  0.4141040000000 1.0
END
