TITL C-3866669-3764-279 -229.826291026106 125000 -597.335325836024 0 0 99 (C1) n - 1
REM
REM in /home/nfs/bkarasulu/CARBON/AIRSS/Generating-Clusters/LCBOP/Only-C1/SD-CG/HFTN-CG/FIRE-CG
REM
REM
REM
REM
REM
REM ./C.cell (11c1c37f851c82e70ff6c80c92926a4b)
REM AIRSS Version 0.9.1 bugfix July 2018 build 013d7b7c2542+ Fri, 06 Jul 2018 19:26:36 +0100
REM compiler GCC version 9.2.1 20190827 (Red Hat 9.2.1-1)
REM options -cpp -mtune=generic -march=x86-64 -g -O0 -fpre-include=/usr/include/finclude/math-vector-fortran.h
REM seed 564031315 1390105334 2123562147 1980406364 1501509142 2020146254 -791532436 -2754743 704905565 -2005818450 -240538910 -1013553155 908719327 -1236029801 1976601786 1418350636 1564881792 -601572336 -1981867610 -1797111277 1290032884 1110940385 501472452 1968704347 -1973392592 2015010648 -1985958330 -1846537784 604640963 -1573600924 -1043653250 1335988276 -596149244
REM
CELL 1.54180   50.00000   50.00000   50.00000   90.00000   90.00000   90.00000
LATT -1
SFAC C  
C      1  0.4583240000000  0.5212860000000  0.4769100000000 1.0
C      1  0.5610770000000  0.4705140000000  0.4540310000000 1.0
C      1  0.4730450000000  0.5324110000000  0.4986330000000 1.0
C      1  0.4866030000000  0.5521920000000  0.4620590000000 1.0
C      1  0.4466010000000  0.4192260000000  0.4994840000000 1.0
C      1  0.5326490000000  0.5718310000000  0.5489470000000 1.0
C      1  0.4896810000000  0.4891050000000  0.4081160000000 1.0
C      1  0.5479450000000  0.4771050000000  0.5372510000000 1.0
C      1  0.5235920000000  0.5281260000000  0.4316520000000 1.0
C      1  0.4010310000000  0.5215010000000  0.4577800000000 1.0
C      1  0.5024700000000  0.4542930000000  0.5813430000000 1.0
C      1  0.5390400000000  0.5252660000000  0.5322820000000 1.0
C      1  0.5301390000000  0.5566840000000  0.5737090000000 1.0
C      1  0.4459170000000  0.4727100000000  0.4718710000000 1.0
C      1  0.4180030000000  0.5423760000000  0.4474410000000 1.0
C      1  0.5014690000000  0.5860750000000  0.4224750000000 1.0
C      1  0.5463940000000  0.4772340000000  0.4773460000000 1.0
C      1  0.4693000000000  0.5125760000000  0.5628810000000 1.0
C      1  0.4104420000000  0.4878720000000  0.5014320000000 1.0
C      1  0.4432810000000  0.5344310000000  0.4344670000000 1.0
C      1  0.5010870000000  0.4845100000000  0.5923250000000 1.0
C      1  0.4119580000000  0.5035410000000  0.4764530000000 1.0
C      1  0.4440310000000  0.4458130000000  0.5404550000000 1.0
C      1  0.5085180000000  0.5681460000000  0.5057860000000 1.0
C      1  0.4380550000000  0.5699610000000  0.4887630000000 1.0
C      1  0.5895060000000  0.4295210000000  0.4687900000000 1.0
C      1  0.5301900000000  0.5792800000000  0.4905360000000 1.0
C      1  0.5748580000000  0.4935800000000  0.5728610000000 1.0
C      1  0.4926840000000  0.4265950000000  0.5415990000000 1.0
C      1  0.4403500000000  0.5011060000000  0.4723000000000 1.0
C      1  0.4629810000000  0.5893150000000  0.5595240000000 1.0
C      1  0.4815810000000  0.5963470000000  0.4669210000000 1.0
C      1  0.4993920000000  0.5636120000000  0.4077710000000 1.0
C      1  0.5797620000000  0.5633840000000  0.5301330000000 1.0
C      1  0.5244550000000  0.5052680000000  0.5979990000000 1.0
C      1  0.4734800000000  0.4933560000000  0.5833190000000 1.0
C      1  0.5604600000000  0.4221750000000  0.5687480000000 1.0
C      1  0.4557850000000  0.4705180000000  0.5809030000000 1.0
C      1  0.5561810000000  0.5791340000000  0.5325790000000 1.0
C      1  0.5798620000000  0.4499720000000  0.4546800000000 1.0
C      1  0.4362250000000  0.5510380000000  0.5120330000000 1.0
C      1  0.4209690000000  0.5640080000000  0.4662500000000 1.0
C      1  0.4382940000000  0.5240510000000  0.5254070000000 1.0
C      1  0.5145520000000  0.4358060000000  0.5595510000000 1.0
C      1  0.4994330000000  0.4681500000000  0.4783760000000 1.0
C      1  0.5077500000000  0.5738110000000  0.5337890000000 1.0
C      1  0.5016950000000  0.5361320000000  0.4135130000000 1.0
C      1  0.5274860000000  0.5737060000000  0.4622060000000 1.0
C      1  0.5882780000000  0.4939370000000  0.3900550000000 1.0
C      1  0.4641380000000  0.5375420000000  0.4537500000000 1.0
C      1  0.5534260000000  0.5302430000000  0.4713270000000 1.0
C      1  0.4730840000000  0.4470420000000  0.5787590000000 1.0
C      1  0.5755070000000  0.5390310000000  0.4869640000000 1.0
C      1  0.5403200000000  0.4265830000000  0.5507010000000 1.0
C      1  0.3930550000000  0.3692840000000  0.4663410000000 1.0
C      1  0.5256460000000  0.4580300000000  0.4924170000000 1.0
C      1  0.5055550000000  0.4816690000000  0.4299290000000 1.0
C      1  0.4378470000000  0.4431800000000  0.5127570000000 1.0
C      1  0.5727940000000  0.4930910000000  0.5419020000000 1.0
C      1  0.4616970000000  0.4695510000000  0.4477140000000 1.0
C      1  0.5719800000000  0.4900860000000  0.4100200000000 1.0
C      1  0.5854840000000  0.4153110000000  0.4910030000000 1.0
C      1  0.4675530000000  0.4334380000000  0.5531390000000 1.0
C      1  0.5980380000000  0.4957940000000  0.5867690000000 1.0
C      1  0.5236890000000  0.5147770000000  0.5533480000000 1.0
C      1  0.5443750000000  0.4214660000000  0.5221990000000 1.0
C      1  0.4809710000000  0.4928820000000  0.5192160000000 1.0
C      1  0.4842240000000  0.5819690000000  0.5463390000000 1.0
C      1  0.4162120000000  0.5054520000000  0.5233200000000 1.0
C      1  0.5804520000000  0.5390630000000  0.5151660000000 1.0
C      1  0.5686380000000  0.4125130000000  0.5114790000000 1.0
C      1  0.5136200000000  0.5108460000000  0.4882540000000 1.0
C      1  0.5051220000000  0.5895210000000  0.4503610000000 1.0
C      1  0.5365740000000  0.5459730000000  0.4525570000000 1.0
C      1  0.4295140000000  0.4644380000000  0.4957130000000 1.0
C      1  0.4633130000000  0.5108650000000  0.5349350000000 1.0
C      1  0.5474660000000  0.4912680000000  0.5842250000000 1.0
C      1  0.4920110000000  0.4930770000000  0.4923600000000 1.0
C      1  0.5402630000000  0.5060530000000  0.4803050000000 1.0
C      1  0.4106010000000  0.3851800000000  0.4772520000000 1.0
C      1  0.4912460000000  0.5523380000000  0.4908330000000 1.0
C      1  0.4283940000000  0.4014200000000  0.4882770000000 1.0
C      1  0.5287630000000  0.4988960000000  0.4318820000000 1.0
C      1  0.4908220000000  0.4680850000000  0.4511730000000 1.0
C      1  0.4969830000000  0.4215070000000  0.5135870000000 1.0
C      1  0.5544810000000  0.4864940000000  0.4313420000000 1.0
C      1  0.5264460000000  0.4711200000000  0.5197000000000 1.0
C      1  0.4536600000000  0.4853090000000  0.4251090000000 1.0
C      1  0.4530050000000  0.5135630000000  0.4172800000000 1.0
C      1  0.5221390000000  0.5295430000000  0.5789180000000 1.0
C      1  0.4743790000000  0.4147500000000  0.4985890000000 1.0
C      1  0.4595840000000  0.5887110000000  0.4818940000000 1.0
C      1  0.5001050000000  0.4758430000000  0.5315460000000 1.0
C      1  0.5494230000000  0.5912130000000  0.5072520000000 1.0
C      1  0.4814100000000  0.5165610000000  0.4066760000000 1.0
C      1  0.5231130000000  0.4290100000000  0.5033580000000 1.0
C      1  0.4359390000000  0.4659400000000  0.5600820000000 1.0
C      1  0.5670130000000  0.5184530000000  0.5289340000000 1.0
C      1  0.5330610000000  0.4874400000000  0.5593120000000 1.0
END
