TITL C-3866672-3872-301 -299.923745564542 125000 -1031.77803553466 0 0 169 (C1) n - 1
REM
REM in /home/nfs/bkarasulu/CARBON/AIRSS/Generating-Clusters/LCBOP/Only-C1/SD-CG/FIRE-CG
REM
REM
REM
REM
REM
REM ./C.cell (11c1c37f851c82e70ff6c80c92926a4b)
REM AIRSS Version 0.9.1 bugfix July 2018 build 013d7b7c2542+ Fri, 06 Jul 2018 19:26:36 +0100
REM compiler GCC version 9.2.1 20190827 (Red Hat 9.2.1-1)
REM options -cpp -mtune=generic -march=x86-64 -g -O0 -fpre-include=/usr/include/finclude/math-vector-fortran.h
REM seed -1368470214 -620512407 -1381930663 1190877493 2029687646 1352889274 1273622482 -1436601992 2054901334 1836732305 -1773817535 1316223927 1669371862 215671401 2036229193 -1371676890 213459708 92665916 -278721524 591172142 -548671530 1859107411 1924869025 135559006 1571802338 1241113743 1836428664 -2067484042 -847671270 -470801552 -475461279 -1373815845 2044618951
REM
CELL 1.54180   50.00000   50.00000   50.00000   90.00000   90.00000   90.00000
LATT -1
SFAC C  
C      1  0.4792390000000  0.4896650000000  0.4513280000000 1.0
C      1  0.5701190000000  0.5161510000000  0.5261960000000 1.0
C      1  0.5033740000000  0.3759800000000  0.4322140000000 1.0
C      1  0.5620890000000  0.4493410000000  0.5072400000000 1.0
C      1  0.5578310000000  0.4970030000000  0.4521630000000 1.0
C      1  0.4358710000000  0.5094570000000  0.5327310000000 1.0
C      1  0.5134890000000  0.4588600000000  0.4217630000000 1.0
C      1  0.4228780000000  0.5774620000000  0.4485440000000 1.0
C      1  0.4994260000000  0.4830800000000  0.6011580000000 1.0
C      1  0.5775510000000  0.4724710000000  0.5113440000000 1.0
C      1  0.4383110000000  0.4039020000000  0.5197380000000 1.0
C      1  0.5269220000000  0.5546410000000  0.4052560000000 1.0
C      1  0.4342210000000  0.3974580000000  0.4096620000000 1.0
C      1  0.5430800000000  0.4465270000000  0.5309240000000 1.0
C      1  0.5463040000000  0.5818080000000  0.5751320000000 1.0
C      1  0.5832750000000  0.5396590000000  0.5355630000000 1.0
C      1  0.4340500000000  0.5108470000000  0.3858160000000 1.0
C      1  0.5625190000000  0.4398500000000  0.4800310000000 1.0
C      1  0.4501420000000  0.3874460000000  0.5857100000000 1.0
C      1  0.3922120000000  0.5168230000000  0.5055570000000 1.0
C      1  0.4870590000000  0.3980160000000  0.5307540000000 1.0
C      1  0.4315360000000  0.5959610000000  0.5034290000000 1.0
C      1  0.4117170000000  0.5042160000000  0.3741190000000 1.0
C      1  0.4338810000000  0.6022730000000  0.4559330000000 1.0
C      1  0.4161130000000  0.5237870000000  0.4916000000000 1.0
C      1  0.6094880000000  0.5519950000000  0.4914390000000 1.0
C      1  0.4748910000000  0.5916570000000  0.5852900000000 1.0
C      1  0.6043940000000  0.4738190000000  0.5190900000000 1.0
C      1  0.5055240000000  0.4181430000000  0.5409520000000 1.0
C      1  0.5954950000000  0.5168340000000  0.3865680000000 1.0
C      1  0.5209040000000  0.6204320000000  0.4955590000000 1.0
C      1  0.5020130000000  0.5657630000000  0.4170450000000 1.0
C      1  0.4693270000000  0.5195330000000  0.5697380000000 1.0
C      1  0.5370220000000  0.4553390000000  0.4391130000000 1.0
C      1  0.4154880000000  0.4182480000000  0.5299590000000 1.0
C      1  0.5316970000000  0.5027210000000  0.4630570000000 1.0
C      1  0.5378870000000  0.5940740000000  0.5496370000000 1.0
C      1  0.4474770000000  0.6037840000000  0.4812870000000 1.0
C      1  0.4214860000000  0.4824180000000  0.4428640000000 1.0
C      1  0.4862110000000  0.4207680000000  0.4411770000000 1.0
C      1  0.6067850000000  0.5718120000000  0.4710130000000 1.0
C      1  0.5821320000000  0.5436040000000  0.5634430000000 1.0
C      1  0.4469390000000  0.5257090000000  0.6132520000000 1.0
C      1  0.5022830000000  0.6149410000000  0.4219430000000 1.0
C      1  0.5224100000000  0.4972030000000  0.5911780000000 1.0
C      1  0.4763520000000  0.6055100000000  0.4802730000000 1.0
C      1  0.5325210000000  0.4823520000000  0.3810660000000 1.0
C      1  0.4140600000000  0.4554890000000  0.4459110000000 1.0
C      1  0.4125040000000  0.4678970000000  0.5192790000000 1.0
C      1  0.5460840000000  0.5875820000000  0.5233920000000 1.0
C      1  0.5607050000000  0.4949030000000  0.5100970000000 1.0
C      1  0.5735600000000  0.5023530000000  0.3935290000000 1.0
C      1  0.5423460000000  0.3698790000000  0.4646010000000 1.0
C      1  0.4845500000000  0.4690860000000  0.4923070000000 1.0
C      1  0.5747770000000  0.5140450000000  0.4683120000000 1.0
C      1  0.5597740000000  0.5632240000000  0.4432620000000 1.0
C      1  0.3913590000000  0.4889520000000  0.5131830000000 1.0
C      1  0.4583690000000  0.3890270000000  0.4171380000000 1.0
C      1  0.5415690000000  0.5608340000000  0.5168230000000 1.0
C      1  0.5438800000000  0.5471560000000  0.4601870000000 1.0
C      1  0.6107930000000  0.4834180000000  0.4608670000000 1.0
C      1  0.4451700000000  0.3708480000000  0.6051740000000 1.0
C      1  0.4691930000000  0.4487630000000  0.4061190000000 1.0
C      1  0.4578810000000  0.4628360000000  0.5297270000000 1.0
C      1  0.5573940000000  0.5402100000000  0.6033170000000 1.0
C      1  0.4666220000000  0.4266750000000  0.4876950000000 1.0
C      1  0.4443830000000  0.4085850000000  0.4919950000000 1.0
C      1  0.4695380000000  0.5474720000000  0.5637870000000 1.0
C      1  0.4937200000000  0.5971930000000  0.5269550000000 1.0
C      1  0.5009670000000  0.5999050000000  0.5787660000000 1.0
C      1  0.5472520000000  0.5075730000000  0.3841380000000 1.0
C      1  0.4923050000000  0.5536270000000  0.5478080000000 1.0
C      1  0.5189520000000  0.5223920000000  0.5781340000000 1.0
C      1  0.5521920000000  0.3978250000000  0.5420370000000 1.0
C      1  0.5879280000000  0.4354570000000  0.4674790000000 1.0
C      1  0.5093830000000  0.6031920000000  0.5508490000000 1.0
C      1  0.5742290000000  0.4801430000000  0.4115260000000 1.0
C      1  0.3801440000000  0.5403080000000  0.5158930000000 1.0
C      1  0.4370340000000  0.4487310000000  0.5827360000000 1.0
C      1  0.5855980000000  0.4346370000000  0.6215090000000 1.0
C      1  0.4901200000000  0.5615990000000  0.4718950000000 1.0
C      1  0.5436020000000  0.6080230000000  0.5038720000000 1.0
C      1  0.4083980000000  0.4389360000000  0.4240280000000 1.0
C      1  0.5443100000000  0.3843580000000  0.4871900000000 1.0
C      1  0.4876760000000  0.5550020000000  0.4992530000000 1.0
C      1  0.5380940000000  0.4391170000000  0.4642950000000 1.0
C      1  0.5600510000000  0.4642280000000  0.5840800000000 1.0
C      1  0.4282330000000  0.4580350000000  0.4932910000000 1.0
C      1  0.5328890000000  0.4895270000000  0.4885590000000 1.0
C      1  0.5129620000000  0.5174220000000  0.5148220000000 1.0
C      1  0.5732790000000  0.4488210000000  0.6034480000000 1.0
C      1  0.4179790000000  0.4432430000000  0.4712390000000 1.0
C      1  0.4892370000000  0.4239370000000  0.4694320000000 1.0
C      1  0.5981400000000  0.5549270000000  0.5171900000000 1.0
C      1  0.4125920000000  0.4503310000000  0.5675350000000 1.0
C      1  0.4612720000000  0.5108500000000  0.5954350000000 1.0
C      1  0.4052930000000  0.5334690000000  0.5703020000000 1.0
C      1  0.4191300000000  0.5268060000000  0.4637780000000 1.0
C      1  0.5250570000000  0.4037110000000  0.4991830000000 1.0
C      1  0.3700840000000  0.5548300000000  0.6036590000000 1.0
C      1  0.4224760000000  0.5238950000000  0.5525260000000 1.0
C      1  0.6024640000000  0.5091190000000  0.4690480000000 1.0
C      1  0.5246100000000  0.5904960000000  0.5929360000000 1.0
C      1  0.3875850000000  0.5439750000000  0.5869770000000 1.0
C      1  0.5215880000000  0.5287500000000  0.4562630000000 1.0
C      1  0.4860850000000  0.5438370000000  0.4273610000000 1.0
C      1  0.5256250000000  0.3670880000000  0.4439220000000 1.0
C      1  0.4102740000000  0.5831990000000  0.5139000000000 1.0
C      1  0.4563000000000  0.4335240000000  0.5685970000000 1.0
C      1  0.4808900000000  0.5218870000000  0.4106690000000 1.0
C      1  0.5507420000000  0.5651830000000  0.4166380000000 1.0
C      1  0.5274540000000  0.5266840000000  0.3958630000000 1.0
C      1  0.5963850000000  0.4095720000000  0.4614090000000 1.0
C      1  0.4400710000000  0.5195840000000  0.5065780000000 1.0
C      1  0.4317500000000  0.6246820000000  0.4395270000000 1.0
C      1  0.5572380000000  0.5336570000000  0.4825050000000 1.0
C      1  0.4898060000000  0.4427480000000  0.4233530000000 1.0
C      1  0.4977200000000  0.5902230000000  0.4329150000000 1.0
C      1  0.5471100000000  0.5473870000000  0.6275100000000 1.0
C      1  0.5331470000000  0.4164620000000  0.5277150000000 1.0
C      1  0.6067790000000  0.3865200000000  0.4550990000000 1.0
C      1  0.4710520000000  0.4490940000000  0.5500240000000 1.0
C      1  0.4883560000000  0.5876280000000  0.4606590000000 1.0
C      1  0.5151050000000  0.5416800000000  0.5597020000000 1.0
C      1  0.4597240000000  0.3976860000000  0.5381160000000 1.0
C      1  0.5166990000000  0.4654080000000  0.5361300000000 1.0
C      1  0.4078250000000  0.4444500000000  0.5391950000000 1.0
C      1  0.4980770000000  0.4450900000000  0.5462220000000 1.0
C      1  0.4363340000000  0.4814280000000  0.5334420000000 1.0
C      1  0.6339740000000  0.5110540000000  0.5046790000000 1.0
C      1  0.6266110000000  0.4888310000000  0.5180860000000 1.0
C      1  0.5846280000000  0.5716890000000  0.4534010000000 1.0
C      1  0.4607010000000  0.5694380000000  0.5791170000000 1.0
C      1  0.5502200000000  0.4900530000000  0.5924470000000 1.0
C      1  0.4943710000000  0.6121810000000  0.5020820000000 1.0
C      1  0.5885870000000  0.5194430000000  0.5784280000000 1.0
C      1  0.5106490000000  0.4735750000000  0.4927450000000 1.0
C      1  0.5000550000000  0.3876530000000  0.5076420000000 1.0
C      1  0.4891820000000  0.5690540000000  0.5239820000000 1.0
C      1  0.4706840000000  0.4848230000000  0.6022760000000 1.0
C      1  0.5128240000000  0.4802860000000  0.4020760000000 1.0
C      1  0.4641180000000  0.5145390000000  0.4919090000000 1.0
C      1  0.4961890000000  0.5405200000000  0.4538180000000 1.0
C      1  0.3528760000000  0.5654920000000  0.6200870000000 1.0
C      1  0.5574060000000  0.4527950000000  0.5580090000000 1.0
C      1  0.5078020000000  0.4948400000000  0.5349080000000 1.0
C      1  0.5168850000000  0.4241730000000  0.4777630000000 1.0
C      1  0.4498720000000  0.4653480000000  0.6018150000000 1.0
C      1  0.4563520000000  0.5164110000000  0.3989910000000 1.0
C      1  0.5674010000000  0.5129350000000  0.5967240000000 1.0
C      1  0.4550560000000  0.4054930000000  0.5652360000000 1.0
C      1  0.5585460000000  0.4750650000000  0.4345340000000 1.0
C      1  0.6259840000000  0.5911940000000  0.4684760000000 1.0
C      1  0.4853110000000  0.5021240000000  0.5526280000000 1.0
C      1  0.3904480000000  0.5653750000000  0.5176860000000 1.0
C      1  0.5047150000000  0.5084070000000  0.4040000000000 1.0
C      1  0.4341110000000  0.5050470000000  0.4535470000000 1.0
C      1  0.4227180000000  0.4152190000000  0.4745460000000 1.0
C      1  0.4169350000000  0.5516390000000  0.4512910000000 1.0
C      1  0.4878520000000  0.5265380000000  0.5023800000000 1.0
C      1  0.4825720000000  0.3946130000000  0.4300520000000 1.0
C      1  0.5627070000000  0.5588270000000  0.5802240000000 1.0
C      1  0.4312690000000  0.6456340000000  0.4240390000000 1.0
C      1  0.5373830000000  0.5349720000000  0.5055450000000 1.0
C      1  0.6187150000000  0.5255230000000  0.4857190000000 1.0
C      1  0.4599180000000  0.4543670000000  0.5001480000000 1.0
C      1  0.6045650000000  0.4574090000000  0.4614600000000 1.0
C      1  0.4602270000000  0.5031390000000  0.4654360000000 1.0
C      1  0.4157550000000  0.4166170000000  0.4113950000000 1.0
END
