TITL C-3866673-4222-626 0.228059586798925 125000 -292.233388283447 0 0 50 (C1) n - 1
REM
REM in /home/nfs/bkarasulu/CARBON/AIRSS/Generating-Clusters/LCBOP/Only-C1/SD-CG/FIRE-CG
REM
REM
REM
REM
REM
REM ./C.cell (11c1c37f851c82e70ff6c80c92926a4b)
REM AIRSS Version 0.9.1 bugfix July 2018 build 013d7b7c2542+ Fri, 06 Jul 2018 19:26:36 +0100
REM compiler GCC version 9.2.1 20190827 (Red Hat 9.2.1-1)
REM options -cpp -mtune=generic -march=x86-64 -g -O0 -fpre-include=/usr/include/finclude/math-vector-fortran.h
REM seed 94201451 -1110931066 -256667263 -1959103463 -757996700 58104288 2120241034 -1580571407 1270700252 87860664 -1452067899 -2124282861 -317614393 1414861432 285814564 -421235897 73331654 300273518 1334344443 -1981275347 2141232353 320143356 -1224133543 -268429562 806032216 -969283007 749771441 1496266994 1508349175 807566801 865330272 -226770131 206240660
REM
CELL 1.54180   50.00000   50.00000   50.00000   90.00000   90.00000   90.00000
LATT -1
SFAC C  
C      1  0.4954900000000  0.4454330000000  0.4338580000000 1.0
C      1  0.4881160000000  0.4930770000000  0.5427320000000 1.0
C      1  0.5072790000000  0.4726490000000  0.5368800000000 1.0
C      1  0.4917130000000  0.4474610000000  0.4955100000000 1.0
C      1  0.4849400000000  0.4718720000000  0.4385020000000 1.0
C      1  0.5034080000000  0.4277120000000  0.4764180000000 1.0
C      1  0.5359310000000  0.5071120000000  0.5163600000000 1.0
C      1  0.4083540000000  0.4945590000000  0.4694160000000 1.0
C      1  0.4274880000000  0.4972120000000  0.5396850000000 1.0
C      1  0.5095560000000  0.5422370000000  0.5712920000000 1.0
C      1  0.5251400000000  0.4421520000000  0.4360580000000 1.0
C      1  0.4609410000000  0.5504140000000  0.5087380000000 1.0
C      1  0.5551960000000  0.4644490000000  0.5303220000000 1.0
C      1  0.4857580000000  0.4248170000000  0.4525460000000 1.0
C      1  0.4471210000000  0.4663140000000  0.4749970000000 1.0
C      1  0.4250910000000  0.4808040000000  0.4878620000000 1.0
C      1  0.4224920000000  0.4850270000000  0.5158910000000 1.0
C      1  0.5091760000000  0.5593920000000  0.4939400000000 1.0
C      1  0.5534230000000  0.5236170000000  0.5833650000000 1.0
C      1  0.4723570000000  0.5066050000000  0.5639500000000 1.0
C      1  0.5185380000000  0.5767710000000  0.5141210000000 1.0
C      1  0.4575020000000  0.4747890000000  0.4482460000000 1.0
C      1  0.4983800000000  0.4482560000000  0.5246880000000 1.0
C      1  0.4984650000000  0.4763800000000  0.4870010000000 1.0
C      1  0.5883010000000  0.5078710000000  0.6193970000000 1.0
C      1  0.5054930000000  0.4914570000000  0.4453070000000 1.0
C      1  0.5334370000000  0.4808400000000  0.5277940000000 1.0
C      1  0.5134130000000  0.5816800000000  0.5399870000000 1.0
C      1  0.5169350000000  0.4926000000000  0.4718540000000 1.0
C      1  0.4474750000000  0.5154280000000  0.5488730000000 1.0
C      1  0.4150400000000  0.4986820000000  0.4434270000000 1.0
C      1  0.5266020000000  0.5408850000000  0.4806060000000 1.0
C      1  0.5701000000000  0.5647370000000  0.4172000000000 1.0
C      1  0.5063500000000  0.5688100000000  0.5624740000000 1.0
C      1  0.4809630000000  0.5581350000000  0.4923630000000 1.0
C      1  0.4877710000000  0.5255190000000  0.5785260000000 1.0
C      1  0.5618570000000  0.4525610000000  0.3983420000000 1.0
C      1  0.4616980000000  0.4475850000000  0.4905970000000 1.0
C      1  0.5400120000000  0.5265990000000  0.5364110000000 1.0
C      1  0.5710010000000  0.5157410000000  0.6015540000000 1.0
C      1  0.5290070000000  0.5132390000000  0.4885590000000 1.0
C      1  0.5441320000000  0.4469780000000  0.4166110000000 1.0
C      1  0.5289940000000  0.4324100000000  0.4633130000000 1.0
C      1  0.4790350000000  0.4951150000000  0.4953660000000 1.0
C      1  0.5561690000000  0.5575010000000  0.4380130000000 1.0
C      1  0.4600500000000  0.5283750000000  0.5256700000000 1.0
C      1  0.4383510000000  0.4894160000000  0.4330390000000 1.0
C      1  0.5419690000000  0.5499760000000  0.4590730000000 1.0
C      1  0.4792310000000  0.5080520000000  0.5193340000000 1.0
C      1  0.5347630000000  0.5306960000000  0.5639360000000 1.0
END
