TITL C-3866672-3872-299 614312.179601741 125000 -1052.77761528724 0 0 172 (C1) n - 1
REM
REM in /home/nfs/bkarasulu/CARBON/AIRSS/Generating-Clusters/LCBOP/Only-C1/SD-CG/FIRE-CG
REM
REM
REM
REM
REM
REM ./C.cell (11c1c37f851c82e70ff6c80c92926a4b)
REM AIRSS Version 0.9.1 bugfix July 2018 build 013d7b7c2542+ Fri, 06 Jul 2018 19:26:36 +0100
REM compiler GCC version 9.2.1 20190827 (Red Hat 9.2.1-1)
REM options -cpp -mtune=generic -march=x86-64 -g -O0 -fpre-include=/usr/include/finclude/math-vector-fortran.h
REM seed -375147052 -1068525539 -240902711 1563725327 -1791202528 -2071701741 485224399 -1468505106 -1567467395 -582748650 1303032326 830444692 -1396780418 2098237393 -2040764596 2063911297 -1451778630 -453155837 -2004221483 -828923911 106760925 41902682 942868217 -623679918 130113212 -1662685100 -1756155589 916348855 1379236886 300031571 -2082902322 -191341077 408123452
REM
CELL 1.54180   50.00000   50.00000   50.00000   90.00000   90.00000   90.00000
LATT -1
SFAC C  
C      1  0.5183140000000  0.4044680000000  0.5610290000000 1.0
C      1  0.5018740000000  0.5111620000000  0.6039840000000 1.0
C      1  0.4059800000000  0.5685450000000  0.5015700000000 1.0
C      1  0.4207940000000  0.5230430000000  0.4756550000000 1.0
C      1  0.4766770000000  0.5718250000000  0.4931610000000 1.0
C      1  0.5210720000000  0.3866030000000  0.4843900000000 1.0
C      1  0.5237510000000  0.4313690000000  0.5042220000000 1.0
C      1  0.5273250000000  0.3965810000000  0.4268480000000 1.0
C      1  0.4539320000000  0.5194480000000  0.3822980000000 1.0
C      1  0.6163350000000  0.4819640000000  0.5145050000000 1.0
C      1  0.5141660000000  0.3717150000000  0.4307020000000 1.0
C      1  0.5873500000000  0.5594000000000  0.5066480000000 1.0
C      1  0.4659580000000  0.5559990000000  0.5368700000000 1.0
C      1  0.5342410000000  0.5784050000000  0.6031780000000 1.0
C      1  0.4279270000000  0.5590880000000  0.5649960000000 1.0
C      1  0.4661980000000  0.5429950000000  0.4526230000000 1.0
C      1  0.4306250000000  0.4239570000000  0.5096680000000 1.0
C      1  0.4384330000000  0.4989830000000  0.4873130000000 1.0
C      1  0.5096470000000  0.4856190000000  0.6126720000000 1.0
C      1  0.4474170000000  0.4628230000000  0.5581400000000 1.0
C      1  0.4617440000000  0.4592600000000  0.6098850000000 1.0
C      1  0.4362100000000  0.5108520000000  0.4342140000000 1.0
C      1  0.4397950000000  0.5918140000000  0.4454870000000 1.0
C      1  0.4262380000000  0.5820940000000  0.5203010000000 1.0
C      1  0.4700080000000  0.5475720000000  0.4805860000000 1.0
C      1  0.5268240000000  0.4647430000000  0.4462650000000 1.0
C      1  0.3792910000000  0.5684220000000  0.5153360000000 1.0
C      1  0.5352120000000  0.5815680000000  0.4814400000000 1.0
C      1  0.5699940000000  0.4463310000000  0.4071060000000 1.0
C      1  0.4436160000000  0.4413820000000  0.4576300000000 1.0
C      1  0.4742610000000  0.5104910000000  0.5969660000000 1.0
C      1  0.5602130000000  0.4673070000000  0.4597940000000 1.0
C      1  0.4704940000000  0.4427550000000  0.4433240000000 1.0
C      1  0.4866360000000  0.5762990000000  0.5972520000000 1.0
C      1  0.5420530000000  0.4745710000000  0.5046780000000 1.0
C      1  0.4849360000000  0.4984840000000  0.4854890000000 1.0
C      1  0.5119010000000  0.5530440000000  0.5197780000000 1.0
C      1  0.4554470000000  0.4910330000000  0.4399320000000 1.0
C      1  0.4855480000000  0.5677380000000  0.5196000000000 1.0
C      1  0.5853300000000  0.4003210000000  0.5262890000000 1.0
C      1  0.5105080000000  0.4620840000000  0.3644800000000 1.0
C      1  0.5101710000000  0.4570090000000  0.6066510000000 1.0
C      1  0.3712160000000  0.4986840000000  0.4777310000000 1.0
C      1  0.4361510000000  0.4219570000000  0.5367350000000 1.0
C      1  0.5408970000000  0.4941630000000  0.5249980000000 1.0
C      1  0.4389390000000  0.5323500000000  0.4520900000000 1.0
C      1  0.5756760000000  0.5133240000000  0.4512250000000 1.0
C      1  0.5617320000000  0.6122710000000  0.5229380000000 1.0
C      1  0.4434880000000  0.4460960000000  0.6254290000000 1.0
C      1  0.5479430000000  0.5890540000000  0.5327730000000 1.0
C      1  0.4236930000000  0.4759400000000  0.5651240000000 1.0
C      1  0.6046360000000  0.5242480000000  0.5392470000000 1.0
C      1  0.4835810000000  0.3617610000000  0.5000080000000 1.0
C      1  0.4039190000000  0.5760760000000  0.4722120000000 1.0
C      1  0.4833160000000  0.5928400000000  0.4763260000000 1.0
C      1  0.4676240000000  0.4515860000000  0.4160400000000 1.0
C      1  0.5555910000000  0.4003190000000  0.4306470000000 1.0
C      1  0.5497670000000  0.5652620000000  0.5826500000000 1.0
C      1  0.4959160000000  0.4739240000000  0.5564640000000 1.0
C      1  0.4750690000000  0.4261640000000  0.5748220000000 1.0
C      1  0.4148920000000  0.5394190000000  0.5005130000000 1.0
C      1  0.5292110000000  0.5072470000000  0.4624800000000 1.0
C      1  0.4391400000000  0.5652330000000  0.5398490000000 1.0
C      1  0.5203080000000  0.4635500000000  0.5589560000000 1.0
C      1  0.4729380000000  0.4330680000000  0.5144210000000 1.0
C      1  0.4635680000000  0.6122700000000  0.5654900000000 1.0
C      1  0.5857560000000  0.5247010000000  0.5607190000000 1.0
C      1  0.4773780000000  0.3845560000000  0.5464440000000 1.0
C      1  0.5541090000000  0.5165720000000  0.4686080000000 1.0
C      1  0.3936450000000  0.5107990000000  0.4698970000000 1.0
C      1  0.6174810000000  0.4953480000000  0.4891940000000 1.0
C      1  0.5630760000000  0.5774710000000  0.4678420000000 1.0
C      1  0.4094690000000  0.5568380000000  0.4239140000000 1.0
C      1  0.4417510000000  0.5431140000000  0.3855920000000 1.0
C      1  0.5357650000000  0.5415930000000  0.4136770000000 1.0
C      1  0.5453790000000  0.5364100000000  0.5864480000000 1.0
C      1  0.4892140000000  0.5368960000000  0.4337020000000 1.0
C      1  0.5839420000000  0.5823300000000  0.4888680000000 1.0
C      1  0.4621540000000  0.6002080000000  0.4583530000000 1.0
C      1  0.5128420000000  0.4198100000000  0.4321970000000 1.0
C      1  0.5562670000000  0.6373910000000  0.5320050000000 1.0
C      1  0.4831370000000  0.4085810000000  0.5061450000000 1.0
C      1  0.5458880000000  0.4563840000000  0.5603110000000 1.0
C      1  0.4618930000000  0.5041270000000  0.5353970000000 1.0
C      1  0.4614640000000  0.4956050000000  0.3920540000000 1.0
C      1  0.5576670000000  0.5259640000000  0.4943460000000 1.0
C      1  0.4901250000000  0.4038720000000  0.5636680000000 1.0
C      1  0.5663640000000  0.5177840000000  0.5809010000000 1.0
C      1  0.4179100000000  0.5220100000000  0.5232200000000 1.0
C      1  0.5153200000000  0.5836580000000  0.4193980000000 1.0
C      1  0.5864780000000  0.5384940000000  0.4444110000000 1.0
C      1  0.4773720000000  0.3831590000000  0.5180410000000 1.0
C      1  0.5408950000000  0.4049400000000  0.5446380000000 1.0
C      1  0.6082820000000  0.4826790000000  0.4654100000000 1.0
C      1  0.4604880000000  0.4898090000000  0.4688340000000 1.0
C      1  0.5662500000000  0.3910800000000  0.5460900000000 1.0
C      1  0.4925660000000  0.4440570000000  0.3725700000000 1.0
C      1  0.4158360000000  0.5757370000000  0.4461870000000 1.0
C      1  0.5182190000000  0.5340150000000  0.5992120000000 1.0
C      1  0.5818790000000  0.4467960000000  0.5024540000000 1.0
C      1  0.3550180000000  0.4947070000000  0.4986560000000 1.0
C      1  0.4405140000000  0.5427040000000  0.5823520000000 1.0
C      1  0.4720630000000  0.5249190000000  0.4957950000000 1.0
C      1  0.4642990000000  0.5279540000000  0.5776410000000 1.0
C      1  0.5633740000000  0.4714670000000  0.4003730000000 1.0
C      1  0.5382860000000  0.4513220000000  0.6085920000000 1.0
C      1  0.5060690000000  0.4436050000000  0.4451360000000 1.0
C      1  0.5557040000000  0.5631690000000  0.4186700000000 1.0
C      1  0.3712130000000  0.5228360000000  0.5364270000000 1.0
C      1  0.5368370000000  0.5696530000000  0.5122160000000 1.0
C      1  0.4753850000000  0.5290720000000  0.5490840000000 1.0
C      1  0.5605250000000  0.5491480000000  0.5089750000000 1.0
C      1  0.4694710000000  0.4761680000000  0.5428000000000 1.0
C      1  0.5117110000000  0.5343720000000  0.4964020000000 1.0
C      1  0.4405760000000  0.5053510000000  0.5164510000000 1.0
C      1  0.4630230000000  0.4791540000000  0.4149780000000 1.0
C      1  0.5481310000000  0.3849730000000  0.4768720000000 1.0
C      1  0.5099600000000  0.5622440000000  0.6042240000000 1.0
C      1  0.5455310000000  0.4911590000000  0.3905240000000 1.0
C      1  0.4490310000000  0.6189750000000  0.5439090000000 1.0
C      1  0.5183250000000  0.4918240000000  0.4415830000000 1.0
C      1  0.5086230000000  0.4102380000000  0.4940790000000 1.0
C      1  0.6181080000000  0.5239640000000  0.4926350000000 1.0
C      1  0.5273610000000  0.4816130000000  0.3712370000000 1.0
C      1  0.3541440000000  0.5043160000000  0.5237410000000 1.0
C      1  0.5640180000000  0.3904610000000  0.4557650000000 1.0
C      1  0.3979450000000  0.5142130000000  0.5417050000000 1.0
C      1  0.4065150000000  0.4754450000000  0.4318860000000 1.0
C      1  0.5629520000000  0.4633500000000  0.4885660000000 1.0
C      1  0.4258980000000  0.5589380000000  0.4005020000000 1.0
C      1  0.5112500000000  0.5116340000000  0.4823040000000 1.0
C      1  0.4209910000000  0.4550620000000  0.4437350000000 1.0
C      1  0.5089420000000  0.5545600000000  0.4213110000000 1.0
C      1  0.4979490000000  0.5088750000000  0.4303540000000 1.0
C      1  0.5069650000000  0.5314150000000  0.5421740000000 1.0
C      1  0.6193520000000  0.4997870000000  0.5367030000000 1.0
C      1  0.4050530000000  0.4944020000000  0.5602040000000 1.0
C      1  0.5425110000000  0.5173450000000  0.4009330000000 1.0
C      1  0.6063990000000  0.5396750000000  0.5140760000000 1.0
C      1  0.5811070000000  0.6070100000000  0.5027820000000 1.0
C      1  0.4760440000000  0.4384680000000  0.3928690000000 1.0
C      1  0.5830850000000  0.4855950000000  0.4519950000000 1.0
C      1  0.5442620000000  0.4221630000000  0.5211420000000 1.0
C      1  0.5719570000000  0.4219890000000  0.5122970000000 1.0
C      1  0.4507770000000  0.4343290000000  0.5589170000000 1.0
C      1  0.5263550000000  0.5107100000000  0.5406320000000 1.0
C      1  0.5026030000000  0.3651390000000  0.4788490000000 1.0
C      1  0.6010710000000  0.4589650000000  0.5198200000000 1.0
C      1  0.5534400000000  0.5786510000000  0.5584480000000 1.0
C      1  0.5583240000000  0.4699420000000  0.6062820000000 1.0
C      1  0.5955630000000  0.4537730000000  0.5471430000000 1.0
C      1  0.5122540000000  0.6004320000000  0.4414670000000 1.0
C      1  0.5024580000000  0.3585140000000  0.4513630000000 1.0
C      1  0.4331420000000  0.6092140000000  0.5242700000000 1.0
C      1  0.5112460000000  0.5940170000000  0.4689070000000 1.0
C      1  0.5682430000000  0.4213560000000  0.4167510000000 1.0
C      1  0.3672560000000  0.5503320000000  0.5312830000000 1.0
C      1  0.3963000000000  0.5302490000000  0.4246220000000 1.0
C      1  0.4932110000000  0.4727280000000  0.4998160000000 1.0
C      1  0.4095060000000  0.5038720000000  0.4265560000000 1.0
C      1  0.4603620000000  0.4873330000000  0.6057030000000 1.0
C      1  0.4745520000000  0.4606900000000  0.5172380000000 1.0
C      1  0.5723180000000  0.4530250000000  0.5602860000000 1.0
C      1  0.5703800000000  0.5623810000000  0.4431820000000 1.0
C      1  0.5412740000000  0.5993890000000  0.6187590000000 1.0
C      1  0.5669790000000  0.4933710000000  0.5957160000000 1.0
C      1  0.5184750000000  0.4593770000000  0.5010430000000 1.0
C      1  0.4365450000000  0.4300300000000  0.4834630000000 1.0
C      1  0.4743740000000  0.5960610000000  0.5838910000000 1.0
C      1  0.5420800000000  0.5862920000000  0.4084890000000 1.0
C      1  0.6103700000000  0.3908650000000  0.5220620000000 1.0
C      1  0.4841480000000  0.4449050000000  0.5975190000000 1.0
END
