TITL C-3866673-4222-1 49.9695853480865 125000 -1008.21178371521 0 0 165 (C1) n - 1
REM
REM in /home/nfs/bkarasulu/CARBON/AIRSS/Generating-Clusters/LCBOP/Only-C1/SD-CG/HFTN-CG/FIRE-CG
REM
REM
REM
REM
REM
REM ./C.cell (11c1c37f851c82e70ff6c80c92926a4b)
REM AIRSS Version 0.9.1 bugfix July 2018 build 013d7b7c2542+ Fri, 06 Jul 2018 19:26:36 +0100
REM compiler GCC version 9.2.1 20190827 (Red Hat 9.2.1-1)
REM options -cpp -mtune=generic -march=x86-64 -g -O0 -fpre-include=/usr/include/finclude/math-vector-fortran.h
REM seed -1394116072 127272319 1854438524 -1927904678 -1836190413 1891684766 -716047862 2083240559 627564183 986270836 1966602181 -1418923451 1551643606 1235401556 -715543965 -245705749 -167500655 -1939072695 1934201136 1172474366 2102651638 1091950021 1696619813 1946713288 798790258 -479139115 1330604370 -566569444 229040354 -1380440767 -270696107 1172598156 -459144072
REM
CELL 1.54180   50.00000   50.00000   50.00000   90.00000   90.00000   90.00000
LATT -1
SFAC C  
C      1  0.5898790000000  0.5329110000000  0.5659520000000 1.0
C      1  0.5022500000000  0.5500440000000  0.4758380000000 1.0
C      1  0.4414930000000  0.5106020000000  0.4411800000000 1.0
C      1  0.5044030000000  0.4304800000000  0.5128340000000 1.0
C      1  0.5386590000000  0.5838080000000  0.4978870000000 1.0
C      1  0.4076810000000  0.6147170000000  0.5080140000000 1.0
C      1  0.5054500000000  0.5380900000000  0.3907400000000 1.0
C      1  0.6183690000000  0.4638250000000  0.4372770000000 1.0
C      1  0.4278720000000  0.4981420000000  0.5863640000000 1.0
C      1  0.5306330000000  0.6086190000000  0.5110920000000 1.0
C      1  0.4030580000000  0.4931170000000  0.5719460000000 1.0
C      1  0.4534730000000  0.4670380000000  0.5251600000000 1.0
C      1  0.4212970000000  0.4462080000000  0.5630340000000 1.0
C      1  0.5715940000000  0.5204500000000  0.4326050000000 1.0
C      1  0.4827780000000  0.5587790000000  0.5422170000000 1.0
C      1  0.4195270000000  0.4171540000000  0.4344070000000 1.0
C      1  0.5727800000000  0.5690790000000  0.5359940000000 1.0
C      1  0.4562100000000  0.5237970000000  0.4626370000000 1.0
C      1  0.4098410000000  0.5721360000000  0.4595480000000 1.0
C      1  0.3903280000000  0.5182060000000  0.5646470000000 1.0
C      1  0.5547080000000  0.5058220000000  0.5867290000000 1.0
C      1  0.4669880000000  0.5357630000000  0.5555080000000 1.0
C      1  0.4264100000000  0.3662690000000  0.4926290000000 1.0
C      1  0.5160580000000  0.5752620000000  0.4799850000000 1.0
C      1  0.5947670000000  0.5850860000000  0.5287480000000 1.0
C      1  0.5411020000000  0.4385690000000  0.4554910000000 1.0
C      1  0.4067170000000  0.4405560000000  0.4394260000000 1.0
C      1  0.3877720000000  0.4644180000000  0.5323600000000 1.0
C      1  0.5499990000000  0.4506500000000  0.4825650000000 1.0
C      1  0.4987520000000  0.6452530000000  0.5002390000000 1.0
C      1  0.4528950000000  0.4643320000000  0.4390570000000 1.0
C      1  0.4672350000000  0.5005300000000  0.4978780000000 1.0
C      1  0.4272430000000  0.5956920000000  0.5123640000000 1.0
C      1  0.5518760000000  0.5613440000000  0.5812040000000 1.0
C      1  0.5244690000000  0.5610780000000  0.5919280000000 1.0
C      1  0.5713210000000  0.4647380000000  0.4222690000000 1.0
C      1  0.5348890000000  0.5127690000000  0.6062940000000 1.0
C      1  0.4753400000000  0.5096220000000  0.6113980000000 1.0
C      1  0.4960270000000  0.6029560000000  0.4284480000000 1.0
C      1  0.4742920000000  0.5584810000000  0.5126880000000 1.0
C      1  0.5438980000000  0.4900240000000  0.5658080000000 1.0
C      1  0.6098090000000  0.5218690000000  0.5476850000000 1.0
C      1  0.4067540000000  0.4584510000000  0.4837730000000 1.0
C      1  0.4083220000000  0.5064020000000  0.5191400000000 1.0
C      1  0.4095490000000  0.4647400000000  0.4553400000000 1.0
C      1  0.4447910000000  0.5307790000000  0.5356590000000 1.0
C      1  0.3953870000000  0.5441900000000  0.5575340000000 1.0
C      1  0.4710750000000  0.5068600000000  0.4003800000000 1.0
C      1  0.4287370000000  0.4423410000000  0.4925190000000 1.0
C      1  0.4926850000000  0.4871600000000  0.4410090000000 1.0
C      1  0.6198570000000  0.4838170000000  0.5014400000000 1.0
C      1  0.4518090000000  0.5909740000000  0.5574420000000 1.0
C      1  0.5233920000000  0.3808320000000  0.5416190000000 1.0
C      1  0.5872200000000  0.5584860000000  0.4723310000000 1.0
C      1  0.5824900000000  0.5094620000000  0.5825980000000 1.0
C      1  0.4292940000000  0.5848240000000  0.5397960000000 1.0
C      1  0.5327990000000  0.5448880000000  0.5227090000000 1.0
C      1  0.4814090000000  0.3751280000000  0.5181140000000 1.0
C      1  0.5311140000000  0.5115910000000  0.4624580000000 1.0
C      1  0.5722390000000  0.5552610000000  0.5617330000000 1.0
C      1  0.5958030000000  0.4771680000000  0.4301170000000 1.0
C      1  0.5519640000000  0.5654610000000  0.5159120000000 1.0
C      1  0.4695560000000  0.3886000000000  0.4962290000000 1.0
C      1  0.5254270000000  0.4120010000000  0.5085580000000 1.0
C      1  0.4518820000000  0.4569250000000  0.4991520000000 1.0
C      1  0.5576760000000  0.4804290000000  0.4028850000000 1.0
C      1  0.4945350000000  0.5379710000000  0.5010640000000 1.0
C      1  0.4014780000000  0.4669680000000  0.5575490000000 1.0
C      1  0.4962430000000  0.5582470000000  0.4093250000000 1.0
C      1  0.5335880000000  0.3860620000000  0.5153450000000 1.0
C      1  0.5180480000000  0.5369580000000  0.6064020000000 1.0
C      1  0.4312060000000  0.4828410000000  0.4447210000000 1.0
C      1  0.5031860000000  0.4777920000000  0.5921590000000 1.0
C      1  0.5136810000000  0.5586100000000  0.5389190000000 1.0
C      1  0.5077790000000  0.6197170000000  0.4981960000000 1.0
C      1  0.5831640000000  0.3937650000000  0.4182500000000 1.0
C      1  0.6070700000000  0.5895160000000  0.5053010000000 1.0
C      1  0.5187170000000  0.4754980000000  0.5685920000000 1.0
C      1  0.4755570000000  0.5500340000000  0.4295210000000 1.0
C      1  0.5215110000000  0.5838750000000  0.5526350000000 1.0
C      1  0.5176400000000  0.4503470000000  0.3988650000000 1.0
C      1  0.4413790000000  0.4012290000000  0.4336400000000 1.0
C      1  0.4462770000000  0.4353310000000  0.5603510000000 1.0
C      1  0.4722950000000  0.4352930000000  0.5519050000000 1.0
C      1  0.4778000000000  0.3412780000000  0.5826670000000 1.0
C      1  0.4860320000000  0.5350610000000  0.4541960000000 1.0
C      1  0.4906920000000  0.4048140000000  0.4519410000000 1.0
C      1  0.6062960000000  0.5042330000000  0.4909630000000 1.0
C      1  0.5712990000000  0.4421530000000  0.5108640000000 1.0
C      1  0.5978930000000  0.4856410000000  0.5735350000000 1.0
C      1  0.5731020000000  0.4164640000000  0.4261600000000 1.0
C      1  0.5467260000000  0.6100880000000  0.3443300000000 1.0
C      1  0.4561070000000  0.4476560000000  0.4168100000000 1.0
C      1  0.3913350000000  0.5174160000000  0.5018250000000 1.0
C      1  0.4896280000000  0.6072760000000  0.4539710000000 1.0
C      1  0.4503510000000  0.5217060000000  0.4893580000000 1.0
C      1  0.5339370000000  0.4001330000000  0.5597030000000 1.0
C      1  0.5545820000000  0.4894550000000  0.5387150000000 1.0
C      1  0.4369230000000  0.5791960000000  0.4628320000000 1.0
C      1  0.6117960000000  0.4735890000000  0.5261050000000 1.0
C      1  0.5639980000000  0.5090000000000  0.5193960000000 1.0
C      1  0.4915340000000  0.5311580000000  0.6151210000000 1.0
C      1  0.5382620000000  0.5200010000000  0.5103770000000 1.0
C      1  0.5451120000000  0.4239200000000  0.5526840000000 1.0
C      1  0.4755020000000  0.4871440000000  0.5927650000000 1.0
C      1  0.4544070000000  0.5211790000000  0.4177190000000 1.0
C      1  0.4945090000000  0.5981540000000  0.4817260000000 1.0
C      1  0.3885920000000  0.4633310000000  0.5051460000000 1.0
C      1  0.4491820000000  0.5417060000000  0.5097830000000 1.0
C      1  0.4285720000000  0.4145030000000  0.4944390000000 1.0
C      1  0.5316080000000  0.5007490000000  0.4887630000000 1.0
C      1  0.5306680000000  0.6065890000000  0.5392230000000 1.0
C      1  0.4873030000000  0.5140210000000  0.5556060000000 1.0
C      1  0.5955130000000  0.4403510000000  0.5547440000000 1.0
C      1  0.4444310000000  0.5887610000000  0.4896090000000 1.0
C      1  0.5049040000000  0.5109190000000  0.4505130000000 1.0
C      1  0.4409890000000  0.3893030000000  0.4944900000000 1.0
C      1  0.4744320000000  0.4548840000000  0.4813930000000 1.0
C      1  0.4518840000000  0.4851120000000  0.5752290000000 1.0
C      1  0.5357310000000  0.4728340000000  0.4951410000000 1.0
C      1  0.5947420000000  0.4575610000000  0.5760900000000 1.0
C      1  0.5958170000000  0.4492900000000  0.5270540000000 1.0
C      1  0.4760870000000  0.4683350000000  0.4558560000000 1.0
C      1  0.4840330000000  0.4067000000000  0.4791890000000 1.0
C      1  0.4871230000000  0.3548990000000  0.5625000000000 1.0
C      1  0.5196120000000  0.4889440000000  0.6134100000000 1.0
C      1  0.5361420000000  0.4682110000000  0.5254930000000 1.0
C      1  0.4678740000000  0.3961200000000  0.4367200000000 1.0
C      1  0.4835030000000  0.5228710000000  0.3804900000000 1.0
C      1  0.5120310000000  0.4231610000000  0.4416180000000 1.0
C      1  0.5347030000000  0.4947870000000  0.3954310000000 1.0
C      1  0.5037330000000  0.5856560000000  0.4077420000000 1.0
C      1  0.5616780000000  0.4406870000000  0.4347040000000 1.0
C      1  0.5936160000000  0.5052910000000  0.4287740000000 1.0
C      1  0.4717250000000  0.5839170000000  0.4966470000000 1.0
C      1  0.5484290000000  0.3691780000000  0.5002280000000 1.0
C      1  0.4523090000000  0.5402950000000  0.5812960000000 1.0
C      1  0.5295520000000  0.5226870000000  0.3920390000000 1.0
C      1  0.5184310000000  0.5952110000000  0.3860530000000 1.0
C      1  0.5088630000000  0.4707770000000  0.5403200000000 1.0
C      1  0.4894490000000  0.4877150000000  0.4120630000000 1.0
C      1  0.4948080000000  0.4442920000000  0.5362840000000 1.0
C      1  0.4910220000000  0.5099720000000  0.5091990000000 1.0
C      1  0.5059820000000  0.5804770000000  0.5773330000000 1.0
C      1  0.5727340000000  0.5348320000000  0.4769190000000 1.0
C      1  0.5041120000000  0.4321770000000  0.4150360000000 1.0
C      1  0.4551660000000  0.5702000000000  0.4419480000000 1.0
C      1  0.5505480000000  0.4420390000000  0.5316460000000 1.0
C      1  0.6114540000000  0.4927490000000  0.5481040000000 1.0
C      1  0.3842230000000  0.5349450000000  0.4831600000000 1.0
C      1  0.4890840000000  0.4323750000000  0.4896510000000 1.0
C      1  0.5560630000000  0.5245290000000  0.4556640000000 1.0
C      1  0.4310370000000  0.5065810000000  0.5356580000000 1.0
C      1  0.4970570000000  0.3698880000000  0.5412780000000 1.0
C      1  0.4782600000000  0.5806970000000  0.5645580000000 1.0
C      1  0.4466880000000  0.4846200000000  0.5457850000000 1.0
C      1  0.4763950000000  0.4320400000000  0.4086690000000 1.0
C      1  0.5820390000000  0.5166160000000  0.4974230000000 1.0
C      1  0.4336740000000  0.5250270000000  0.5940840000000 1.0
C      1  0.6026810000000  0.5783030000000  0.4813300000000 1.0
C      1  0.4090680000000  0.5662380000000  0.5491900000000 1.0
C      1  0.5326780000000  0.6028550000000  0.3650660000000 1.0
C      1  0.4968100000000  0.4981180000000  0.5341740000000 1.0
C      1  0.5119000000000  0.4779110000000  0.3976710000000 1.0
C      1  0.3907070000000  0.5553410000000  0.4673520000000 1.0
END
