TITL C-3866670-4165-750 -2.86653502431913e-07 125000 -519.182549667405 0 0 84 (C1) n - 1
REM
REM in /home/nfs/bkarasulu/CARBON/AIRSS/Generating-Clusters/LCBOP/Only-C1/SD-CG/FIRE-CG
REM
REM
REM
REM
REM
REM ./C.cell (11c1c37f851c82e70ff6c80c92926a4b)
REM AIRSS Version 0.9.1 bugfix July 2018 build 013d7b7c2542+ Fri, 06 Jul 2018 19:26:36 +0100
REM compiler GCC version 9.2.1 20190827 (Red Hat 9.2.1-1)
REM options -cpp -mtune=generic -march=x86-64 -g -O0 -fpre-include=/usr/include/finclude/math-vector-fortran.h
REM seed -1536496801 271143894 -796892931 518580004 1142145505 -2033477077 -1996479146 -271609042 -578723762 1352531858 763841462 87469521 778792931 -1845771442 1704845260 -1896307488 765009277 -1775595650 -521430870 -995370684 2004886805 -1631553213 -2131152031 985633620 829149062 1918299352 -1908450962 2066051232 -1570656228 -743225099 521255653 -615897996 1360253535
REM
CELL 1.54180   50.00000   50.00000   50.00000   90.00000   90.00000   90.00000
LATT -1
SFAC C  
C      1  0.5455110000000  0.5246740000000  0.5431700000000 1.0
C      1  0.5138320000000  0.5594840000000  0.4205250000000 1.0
C      1  0.5140350000000  0.4670300000000  0.5047930000000 1.0
C      1  0.5071940000000  0.5943290000000  0.4751010000000 1.0
C      1  0.5024830000000  0.5075390000000  0.5415470000000 1.0
C      1  0.5397330000000  0.5331770000000  0.4815070000000 1.0
C      1  0.5301140000000  0.5807190000000  0.4695720000000 1.0
C      1  0.4256690000000  0.4750380000000  0.4576710000000 1.0
C      1  0.4189100000000  0.5006420000000  0.5466540000000 1.0
C      1  0.4785860000000  0.4093350000000  0.4229100000000 1.0
C      1  0.5104880000000  0.4263350000000  0.4588870000000 1.0
C      1  0.4406860000000  0.5182060000000  0.5556660000000 1.0
C      1  0.5906690000000  0.5453640000000  0.5106940000000 1.0
C      1  0.4253900000000  0.4750930000000  0.5598810000000 1.0
C      1  0.5061710000000  0.4737740000000  0.4788850000000 1.0
C      1  0.4674900000000  0.5437930000000  0.5184860000000 1.0
C      1  0.6225270000000  0.4599250000000  0.4860510000000 1.0
C      1  0.5496220000000  0.4312610000000  0.5135240000000 1.0
C      1  0.4495790000000  0.5661890000000  0.5136810000000 1.0
C      1  0.5536080000000  0.5518220000000  0.5443300000000 1.0
C      1  0.4596670000000  0.5223100000000  0.5350580000000 1.0
C      1  0.4817220000000  0.5827680000000  0.4794450000000 1.0
C      1  0.4109670000000  0.4521140000000  0.5574590000000 1.0
C      1  0.5689950000000  0.4645740000000  0.4780010000000 1.0
C      1  0.5858980000000  0.5257870000000  0.4929390000000 1.0
C      1  0.5437090000000  0.4805190000000  0.5665490000000 1.0
C      1  0.4735040000000  0.4614600000000  0.5773490000000 1.0
C      1  0.4658860000000  0.4303050000000  0.4110590000000 1.0
C      1  0.4221830000000  0.5603170000000  0.5169880000000 1.0
C      1  0.5349730000000  0.5454980000000  0.4350570000000 1.0
C      1  0.4814360000000  0.5399830000000  0.4507990000000 1.0
C      1  0.4947410000000  0.4554530000000  0.5227270000000 1.0
C      1  0.5082570000000  0.4427940000000  0.5451270000000 1.0
C      1  0.4015500000000  0.4957730000000  0.5000910000000 1.0
C      1  0.5150030000000  0.5230730000000  0.4969800000000 1.0
C      1  0.4976000000000  0.4071570000000  0.4421810000000 1.0
C      1  0.5382990000000  0.5544690000000  0.4623310000000 1.0
C      1  0.4417560000000  0.4546860000000  0.4685120000000 1.0
C      1  0.5183170000000  0.4837700000000  0.6079630000000 1.0
C      1  0.5627650000000  0.5154120000000  0.4808050000000 1.0
C      1  0.5766280000000  0.5582120000000  0.5296560000000 1.0
C      1  0.4876600000000  0.5209990000000  0.4091710000000 1.0
C      1  0.4676350000000  0.5217990000000  0.5980030000000 1.0
C      1  0.5374050000000  0.4405610000000  0.5377470000000 1.0
C      1  0.5033830000000  0.5015520000000  0.4759320000000 1.0
C      1  0.5511620000000  0.4939490000000  0.4389410000000 1.0
C      1  0.4728820000000  0.4731000000000  0.5266440000000 1.0
C      1  0.4671830000000  0.4471080000000  0.4690720000000 1.0
C      1  0.5460270000000  0.4708410000000  0.4234580000000 1.0
C      1  0.4893380000000  0.5407540000000  0.4993580000000 1.0
C      1  0.4661310000000  0.5043660000000  0.4017660000000 1.0
C      1  0.5219480000000  0.5663870000000  0.5826340000000 1.0
C      1  0.4951130000000  0.4527350000000  0.4602620000000 1.0
C      1  0.4500760000000  0.4779680000000  0.5764320000000 1.0
C      1  0.4961300000000  0.4605390000000  0.4305800000000 1.0
C      1  0.5217200000000  0.4604290000000  0.4184870000000 1.0
C      1  0.4081180000000  0.4877380000000  0.4754520000000 1.0
C      1  0.4768850000000  0.5001490000000  0.5337500000000 1.0
C      1  0.5259940000000  0.5116550000000  0.5237280000000 1.0
C      1  0.4716690000000  0.4577130000000  0.4157550000000 1.0
C      1  0.4548930000000  0.4809400000000  0.4135540000000 1.0
C      1  0.5516210000000  0.5076610000000  0.5655150000000 1.0
C      1  0.4610730000000  0.5877700000000  0.4985390000000 1.0
C      1  0.4058440000000  0.5391830000000  0.5204850000000 1.0
C      1  0.5458810000000  0.4681870000000  0.5412360000000 1.0
C      1  0.4522420000000  0.5072910000000  0.5800910000000 1.0
C      1  0.4828230000000  0.5546620000000  0.4745510000000 1.0
C      1  0.5010890000000  0.4551330000000  0.5709450000000 1.0
C      1  0.4328120000000  0.4827800000000  0.4313840000000 1.0
C      1  0.5342530000000  0.4826590000000  0.5188370000000 1.0
C      1  0.5370540000000  0.4274600000000  0.4676600000000 1.0
C      1  0.5609900000000  0.4906120000000  0.4660910000000 1.0
C      1  0.5223750000000  0.4708040000000  0.5834230000000 1.0
C      1  0.4055450000000  0.5107840000000  0.5235200000000 1.0
C      1  0.5396240000000  0.5678090000000  0.5626100000000 1.0
C      1  0.5066200000000  0.5082250000000  0.4275990000000 1.0
C      1  0.4934740000000  0.5284740000000  0.6066800000000 1.0
C      1  0.5088840000000  0.5072080000000  0.6167560000000 1.0
C      1  0.5968930000000  0.4617340000000  0.4817320000000 1.0
C      1  0.5058290000000  0.5523200000000  0.5985870000000 1.0
C      1  0.4925230000000  0.5127420000000  0.4529590000000 1.0
C      1  0.5343950000000  0.5162740000000  0.4308560000000 1.0
C      1  0.5532820000000  0.4409690000000  0.4864040000000 1.0
C      1  0.4873650000000  0.5478150000000  0.4222060000000 1.0
END
