TITL C-3866675-3766-152 -0.000240794381212682 125000 -799.05082663771 0 0 132 (C1) n - 1
REM
REM in /home/nfs/bkarasulu/CARBON/AIRSS/Generating-Clusters/LCBOP/Only-C1/SD-CG/HFTN-CG/FIRE-CG
REM
REM
REM
REM
REM
REM ./C.cell (11c1c37f851c82e70ff6c80c92926a4b)
REM AIRSS Version 0.9.1 bugfix July 2018 build 013d7b7c2542+ Fri, 06 Jul 2018 19:26:36 +0100
REM compiler GCC version 9.2.1 20190827 (Red Hat 9.2.1-1)
REM options -cpp -mtune=generic -march=x86-64 -g -O0 -fpre-include=/usr/include/finclude/math-vector-fortran.h
REM seed -1695993777 1342339159 -783703908 -1481745740 1643939779 -1545949816 -1906494813 -1910685075 -1002298990 1043717121 -1680805174 2011220029 -850086062 -243519984 -324058013 -1333955344 2114585101 1411051465 1829733921 911207964 1736615000 -315259403 1887491483 503846242 -919044205 1335809840 -1213658074 -1235764850 -624312074 -575172917 1481855047 99577201 1434981480
REM
CELL 1.54180   50.00000   50.00000   50.00000   90.00000   90.00000   90.00000
LATT -1
SFAC C  
C      1  0.4928740000000  0.6022100000000  0.5187700000000 1.0
C      1  0.5391440000000  0.4370240000000  0.5177340000000 1.0
C      1  0.4281210000000  0.4201410000000  0.5712570000000 1.0
C      1  0.6094280000000  0.4737390000000  0.4998550000000 1.0
C      1  0.4960810000000  0.5300160000000  0.4026760000000 1.0
C      1  0.4705150000000  0.4302140000000  0.6331290000000 1.0
C      1  0.4735300000000  0.5006900000000  0.5395130000000 1.0
C      1  0.4246970000000  0.5346980000000  0.4893010000000 1.0
C      1  0.4843800000000  0.5904470000000  0.4344250000000 1.0
C      1  0.6104640000000  0.5023160000000  0.4893270000000 1.0
C      1  0.5192980000000  0.6037590000000  0.5063450000000 1.0
C      1  0.5254020000000  0.5066530000000  0.5408490000000 1.0
C      1  0.4172180000000  0.5327800000000  0.4110610000000 1.0
C      1  0.6036880000000  0.5289230000000  0.5028040000000 1.0
C      1  0.3937870000000  0.5654650000000  0.5110230000000 1.0
C      1  0.4175290000000  0.4505690000000  0.4978870000000 1.0
C      1  0.5183560000000  0.5548430000000  0.4671810000000 1.0
C      1  0.4772690000000  0.3969440000000  0.4976480000000 1.0
C      1  0.4165560000000  0.5503090000000  0.5118890000000 1.0
C      1  0.4674430000000  0.5223170000000  0.6056690000000 1.0
C      1  0.4282170000000  0.4874900000000  0.5323570000000 1.0
C      1  0.4331730000000  0.5501700000000  0.5353490000000 1.0
C      1  0.5374990000000  0.4563430000000  0.6422220000000 1.0
C      1  0.4432210000000  0.4303690000000  0.5526020000000 1.0
C      1  0.5884570000000  0.5607030000000  0.4953700000000 1.0
C      1  0.4755540000000  0.6244720000000  0.5133950000000 1.0
C      1  0.3676820000000  0.4987500000000  0.5054000000000 1.0
C      1  0.5928190000000  0.4222810000000  0.4861820000000 1.0
C      1  0.5509860000000  0.4898890000000  0.6040820000000 1.0
C      1  0.4087540000000  0.5122090000000  0.4808590000000 1.0
C      1  0.5359450000000  0.4626630000000  0.4552840000000 1.0
C      1  0.4961990000000  0.5161360000000  0.4999090000000 1.0
C      1  0.4744970000000  0.4914300000000  0.4262080000000 1.0
C      1  0.4741680000000  0.6456800000000  0.5305550000000 1.0
C      1  0.5234070000000  0.5491010000000  0.5199150000000 1.0
C      1  0.4626810000000  0.5879790000000  0.4521870000000 1.0
C      1  0.4603640000000  0.6234070000000  0.4899370000000 1.0
C      1  0.4872190000000  0.5170590000000  0.5859620000000 1.0
C      1  0.4535100000000  0.4375330000000  0.5277560000000 1.0
C      1  0.5279800000000  0.5771720000000  0.4514120000000 1.0
C      1  0.5283310000000  0.5196780000000  0.4320260000000 1.0
C      1  0.5210020000000  0.4085260000000  0.4162900000000 1.0
C      1  0.4566170000000  0.5674060000000  0.5350930000000 1.0
C      1  0.4897040000000  0.3925170000000  0.5224150000000 1.0
C      1  0.5517370000000  0.4388370000000  0.4929440000000 1.0
C      1  0.5432000000000  0.4472120000000  0.4324000000000 1.0
C      1  0.5676670000000  0.5209410000000  0.4590780000000 1.0
C      1  0.4248450000000  0.5321080000000  0.5562960000000 1.0
C      1  0.4532350000000  0.5626260000000  0.4600480000000 1.0
C      1  0.4678440000000  0.3872410000000  0.4540890000000 1.0
C      1  0.6126050000000  0.5001910000000  0.4605060000000 1.0
C      1  0.5598300000000  0.5106380000000  0.4844550000000 1.0
C      1  0.5506820000000  0.5866580000000  0.4684660000000 1.0
C      1  0.5052370000000  0.5549530000000  0.4099050000000 1.0
C      1  0.4791250000000  0.4480070000000  0.5197040000000 1.0
C      1  0.4255410000000  0.5484410000000  0.3919550000000 1.0
C      1  0.4759280000000  0.4533870000000  0.5846730000000 1.0
C      1  0.5430260000000  0.5579970000000  0.5375680000000 1.0
C      1  0.4505620000000  0.5416930000000  0.4786780000000 1.0
C      1  0.4080030000000  0.4730790000000  0.4530380000000 1.0
C      1  0.4619240000000  0.4774240000000  0.5790450000000 1.0
C      1  0.5379120000000  0.4854450000000  0.5270380000000 1.0
C      1  0.4820980000000  0.4518090000000  0.4913470000000 1.0
C      1  0.5076220000000  0.4273930000000  0.3996590000000 1.0
C      1  0.4739450000000  0.5313740000000  0.4908630000000 1.0
C      1  0.5167820000000  0.3884240000000  0.4600130000000 1.0
C      1  0.5261330000000  0.4596030000000  0.5293390000000 1.0
C      1  0.4816870000000  0.5820120000000  0.5370940000000 1.0
C      1  0.4787380000000  0.4976090000000  0.5668560000000 1.0
C      1  0.5308760000000  0.5149310000000  0.5675910000000 1.0
C      1  0.5331290000000  0.4118940000000  0.5293740000000 1.0
C      1  0.5483860000000  0.5043740000000  0.4199120000000 1.0
C      1  0.5091470000000  0.4017280000000  0.5406380000000 1.0
C      1  0.5680980000000  0.5671700000000  0.5388480000000 1.0
C      1  0.4268950000000  0.5383150000000  0.5844790000000 1.0
C      1  0.5921890000000  0.4859870000000  0.4460790000000 1.0
C      1  0.4939370000000  0.4422100000000  0.5650810000000 1.0
C      1  0.4966550000000  0.5766050000000  0.5605260000000 1.0
C      1  0.5392770000000  0.4840680000000  0.4024850000000 1.0
C      1  0.6051990000000  0.4461270000000  0.4958000000000 1.0
C      1  0.5545160000000  0.4949870000000  0.5058490000000 1.0
C      1  0.5115670000000  0.5239240000000  0.5230340000000 1.0
C      1  0.5084690000000  0.5586970000000  0.5764760000000 1.0
C      1  0.4401740000000  0.5171180000000  0.5989140000000 1.0
C      1  0.5820540000000  0.4637190000000  0.4602340000000 1.0
C      1  0.4557530000000  0.4891450000000  0.4934450000000 1.0
C      1  0.5162820000000  0.4798320000000  0.4642260000000 1.0
C      1  0.6068840000000  0.5272880000000  0.5308540000000 1.0
C      1  0.4923080000000  0.5013230000000  0.4061790000000 1.0
C      1  0.4367570000000  0.4921800000000  0.5822150000000 1.0
C      1  0.3425000000000  0.5028140000000  0.5107290000000 1.0
C      1  0.5163170000000  0.5314960000000  0.4525160000000 1.0
C      1  0.5445490000000  0.4731230000000  0.6235600000000 1.0
C      1  0.4493680000000  0.4080730000000  0.4914920000000 1.0
C      1  0.5009340000000  0.4145250000000  0.5647770000000 1.0
C      1  0.4092350000000  0.5013440000000  0.4543310000000 1.0
C      1  0.4242110000000  0.5019260000000  0.5565540000000 1.0
C      1  0.5434090000000  0.4046510000000  0.4608230000000 1.0
C      1  0.4106950000000  0.4752290000000  0.5133580000000 1.0
C      1  0.4684870000000  0.4771370000000  0.4482070000000 1.0
C      1  0.4110430000000  0.5172480000000  0.4316210000000 1.0
C      1  0.5979880000000  0.5204580000000  0.5549460000000 1.0
C      1  0.3947700000000  0.4954260000000  0.4999590000000 1.0
C      1  0.4908630000000  0.3889260000000  0.4725030000000 1.0
C      1  0.5793200000000  0.5133240000000  0.5724210000000 1.0
C      1  0.4373170000000  0.4303310000000  0.5052960000000 1.0
C      1  0.5109880000000  0.4811340000000  0.3964280000000 1.0
C      1  0.5712480000000  0.5029910000000  0.4366840000000 1.0
C      1  0.5639920000000  0.4152000000000  0.4806990000000 1.0
C      1  0.4552590000000  0.6102270000000  0.4674300000000 1.0
C      1  0.5410900000000  0.4195450000000  0.4346250000000 1.0
C      1  0.5739930000000  0.5679820000000  0.4710040000000 1.0
C      1  0.5804470000000  0.6281920000000  0.5158460000000 1.0
C      1  0.5107950000000  0.5309770000000  0.5800810000000 1.0
C      1  0.5742200000000  0.5471690000000  0.4527400000000 1.0
C      1  0.5129620000000  0.3851320000000  0.4305820000000 1.0
C      1  0.5811460000000  0.5786660000000  0.5167900000000 1.0
C      1  0.4102810000000  0.4526110000000  0.4704090000000 1.0
C      1  0.4679800000000  0.4710520000000  0.4757550000000 1.0
C      1  0.5513940000000  0.4593530000000  0.4084980000000 1.0
C      1  0.5067760000000  0.4964860000000  0.4827890000000 1.0
C      1  0.5030580000000  0.4534560000000  0.3930370000000 1.0
C      1  0.4537140000000  0.4933210000000  0.5210510000000 1.0
C      1  0.5538930000000  0.5062600000000  0.5816540000000 1.0
C      1  0.4734590000000  0.4414280000000  0.6097910000000 1.0
C      1  0.5695340000000  0.6041270000000  0.5091010000000 1.0
C      1  0.4993320000000  0.4540590000000  0.5390670000000 1.0
C      1  0.4448800000000  0.3983780000000  0.4646530000000 1.0
C      1  0.5188620000000  0.5588550000000  0.4944670000000 1.0
C      1  0.5453070000000  0.6014650000000  0.4933620000000 1.0
C      1  0.5088770000000  0.5772900000000  0.4284920000000 1.0
C      1  0.5572780000000  0.4588710000000  0.4734680000000 1.0
END
