TITL C-3866671-3735-315 5460.14632908888 125000 -756.263354299225 0 0 125 (C1) n - 1
REM
REM in /home/nfs/bkarasulu/CARBON/AIRSS/Generating-Clusters/LCBOP/Only-C1/SD-CG/FIRE-CG
REM
REM
REM
REM
REM
REM ./C.cell (11c1c37f851c82e70ff6c80c92926a4b)
REM AIRSS Version 0.9.1 bugfix July 2018 build 013d7b7c2542+ Fri, 06 Jul 2018 19:26:36 +0100
REM compiler GCC version 9.2.1 20190827 (Red Hat 9.2.1-1)
REM options -cpp -mtune=generic -march=x86-64 -g -O0 -fpre-include=/usr/include/finclude/math-vector-fortran.h
REM seed 209345091 -752731259 1976122585 -1370290199 1196752462 -1129411184 -2018717748 2131034511 801839198 -864082780 1406965759 867923150 -1217386790 -1808313377 783622351 1396568129 696382920 -1192000205 1461950088 -797207085 -396928180 1069695084 686764459 17502814 1245080769 1358750685 -1717594069 2115225669 -1435255624 -582481323 924121722 1850542771 -1908509997
REM
CELL 1.54180   50.00000   50.00000   50.00000   90.00000   90.00000   90.00000
LATT -1
SFAC C  
C      1  0.5036570000000  0.5588710000000  0.5278680000000 1.0
C      1  0.5490040000000  0.5708480000000  0.5797910000000 1.0
C      1  0.4508760000000  0.5555440000000  0.5645950000000 1.0
C      1  0.4562020000000  0.5149890000000  0.4959090000000 1.0
C      1  0.4964120000000  0.5656980000000  0.4177560000000 1.0
C      1  0.4202760000000  0.4962560000000  0.5752000000000 1.0
C      1  0.4833040000000  0.4871640000000  0.4096500000000 1.0
C      1  0.4453170000000  0.5062830000000  0.5853280000000 1.0
C      1  0.4982370000000  0.4908060000000  0.5014030000000 1.0
C      1  0.5048670000000  0.4732360000000  0.3964420000000 1.0
C      1  0.4668430000000  0.4995270000000  0.4540090000000 1.0
C      1  0.4020030000000  0.4925120000000  0.5269720000000 1.0
C      1  0.4724730000000  0.5945010000000  0.4629820000000 1.0
C      1  0.4533290000000  0.5535990000000  0.4706120000000 1.0
C      1  0.4692270000000  0.3993700000000  0.4955320000000 1.0
C      1  0.4813000000000  0.4255060000000  0.5445530000000 1.0
C      1  0.5598680000000  0.4456400000000  0.5640270000000 1.0
C      1  0.4988830000000  0.6019160000000  0.4547260000000 1.0
C      1  0.6209810000000  0.4765010000000  0.4792770000000 1.0
C      1  0.5547740000000  0.5216690000000  0.5816420000000 1.0
C      1  0.5724920000000  0.5063320000000  0.5255990000000 1.0
C      1  0.4332650000000  0.4314330000000  0.4529130000000 1.0
C      1  0.4012030000000  0.5442670000000  0.4762910000000 1.0
C      1  0.6242790000000  0.5162840000000  0.5382760000000 1.0
C      1  0.4443680000000  0.5127150000000  0.5204780000000 1.0
C      1  0.5498350000000  0.4239800000000  0.5442030000000 1.0
C      1  0.4861810000000  0.5830720000000  0.5354600000000 1.0
C      1  0.5433510000000  0.4656510000000  0.5104960000000 1.0
C      1  0.5148480000000  0.6118930000000  0.4760180000000 1.0
C      1  0.4565100000000  0.4945210000000  0.5370950000000 1.0
C      1  0.4260790000000  0.5535990000000  0.4768850000000 1.0
C      1  0.5569770000000  0.4476930000000  0.4671090000000 1.0
C      1  0.5309660000000  0.3696360000000  0.5880400000000 1.0
C      1  0.5575110000000  0.4810570000000  0.5321390000000 1.0
C      1  0.6744870000000  0.5268120000000  0.5497780000000 1.0
C      1  0.4567560000000  0.5328350000000  0.4153600000000 1.0
C      1  0.5066930000000  0.4981390000000  0.4758980000000 1.0
C      1  0.4756330000000  0.4795410000000  0.4361260000000 1.0
C      1  0.5325900000000  0.4899990000000  0.4705930000000 1.0
C      1  0.4618970000000  0.5891360000000  0.5168660000000 1.0
C      1  0.5990750000000  0.4906320000000  0.4795130000000 1.0
C      1  0.4190090000000  0.4988320000000  0.4342450000000 1.0
C      1  0.5081770000000  0.4192650000000  0.4408980000000 1.0
C      1  0.5609050000000  0.4221760000000  0.5156980000000 1.0
C      1  0.5330320000000  0.5351710000000  0.4631790000000 1.0
C      1  0.5260360000000  0.4888170000000  0.3865840000000 1.0
C      1  0.5457440000000  0.4687780000000  0.4828280000000 1.0
C      1  0.5319810000000  0.4921570000000  0.5483610000000 1.0
C      1  0.5019900000000  0.5187410000000  0.6036770000000 1.0
C      1  0.5144690000000  0.4480370000000  0.4043560000000 1.0
C      1  0.4751320000000  0.5735050000000  0.5630380000000 1.0
C      1  0.5051440000000  0.6060280000000  0.5271110000000 1.0
C      1  0.5270230000000  0.5186520000000  0.5332070000000 1.0
C      1  0.5220000000000  0.5445120000000  0.5476890000000 1.0
C      1  0.5016790000000  0.4085120000000  0.5345390000000 1.0
C      1  0.4893120000000  0.5184190000000  0.4617180000000 1.0
C      1  0.4484410000000  0.4164980000000  0.5042570000000 1.0
C      1  0.4302810000000  0.5612420000000  0.5457210000000 1.0
C      1  0.5056510000000  0.5906140000000  0.4293090000000 1.0
C      1  0.5587200000000  0.4886450000000  0.4254640000000 1.0
C      1  0.5553020000000  0.5949020000000  0.5875900000000 1.0
C      1  0.4686210000000  0.5587370000000  0.4247340000000 1.0
C      1  0.5475820000000  0.4948030000000  0.5925870000000 1.0
C      1  0.5104310000000  0.5327250000000  0.4467450000000 1.0
C      1  0.5021380000000  0.5104910000000  0.5199930000000 1.0
C      1  0.4837690000000  0.4771970000000  0.5699270000000 1.0
C      1  0.4616170000000  0.5710380000000  0.4501620000000 1.0
C      1  0.5153830000000  0.6136640000000  0.5030820000000 1.0
C      1  0.5137660000000  0.5433940000000  0.4209670000000 1.0
C      1  0.5289410000000  0.3874920000000  0.5691680000000 1.0
C      1  0.6495710000000  0.5216080000000  0.5441440000000 1.0
C      1  0.5561550000000  0.5472330000000  0.4983560000000 1.0
C      1  0.4648200000000  0.4469200000000  0.5361470000000 1.0
C      1  0.5497060000000  0.5117320000000  0.4679420000000 1.0
C      1  0.5108050000000  0.4859390000000  0.5688850000000 1.0
C      1  0.4045710000000  0.4859880000000  0.5551210000000 1.0
C      1  0.5756980000000  0.5033190000000  0.4776330000000 1.0
C      1  0.5267040000000  0.4069140000000  0.5490820000000 1.0
C      1  0.5992880000000  0.5106540000000  0.5315590000000 1.0
C      1  0.4090420000000  0.4809480000000  0.4543060000000 1.0
C      1  0.4502360000000  0.4440970000000  0.5114880000000 1.0
C      1  0.5028400000000  0.3986240000000  0.4607690000000 1.0
C      1  0.5413870000000  0.5456750000000  0.5700110000000 1.0
C      1  0.4726970000000  0.3977340000000  0.4666700000000 1.0
C      1  0.4810210000000  0.4314170000000  0.4386240000000 1.0
C      1  0.4526690000000  0.4918580000000  0.4788350000000 1.0
C      1  0.5767690000000  0.5478980000000  0.4755250000000 1.0
C      1  0.5822030000000  0.5359130000000  0.4499150000000 1.0
C      1  0.3949560000000  0.4941960000000  0.4768510000000 1.0
C      1  0.5343460000000  0.5303820000000  0.4067260000000 1.0
C      1  0.4906170000000  0.5646770000000  0.5859310000000 1.0
C      1  0.4169210000000  0.5175030000000  0.5249290000000 1.0
C      1  0.4976940000000  0.4622810000000  0.5012190000000 1.0
C      1  0.3972950000000  0.4786040000000  0.5018230000000 1.0
C      1  0.5635080000000  0.4272810000000  0.4880530000000 1.0
C      1  0.4656660000000  0.4863650000000  0.5902410000000 1.0
C      1  0.4367950000000  0.5821120000000  0.5278260000000 1.0
C      1  0.4320860000000  0.5207410000000  0.4245190000000 1.0
C      1  0.5751600000000  0.4627370000000  0.5464500000000 1.0
C      1  0.5275400000000  0.4379190000000  0.4278380000000 1.0
C      1  0.5778540000000  0.5118240000000  0.4348510000000 1.0
C      1  0.4583220000000  0.4164620000000  0.4492740000000 1.0
C      1  0.4114630000000  0.5419770000000  0.5375410000000 1.0
C      1  0.4693530000000  0.4721280000000  0.5466480000000 1.0
C      1  0.4734820000000  0.5131340000000  0.4022070000000 1.0
C      1  0.4561720000000  0.5330240000000  0.5830750000000 1.0
C      1  0.5185360000000  0.4977650000000  0.5942870000000 1.0
C      1  0.4819030000000  0.4565490000000  0.4505420000000 1.0
C      1  0.4154940000000  0.4524250000000  0.4627610000000 1.0
C      1  0.5502710000000  0.4552670000000  0.4385500000000 1.0
C      1  0.4959110000000  0.3973580000000  0.5088120000000 1.0
C      1  0.4831460000000  0.5382170000000  0.5953670000000 1.0
C      1  0.5189810000000  0.4521470000000  0.5157310000000 1.0
C      1  0.5031770000000  0.5514900000000  0.4996900000000 1.0
C      1  0.5293420000000  0.5508460000000  0.4867440000000 1.0
C      1  0.3878790000000  0.5211610000000  0.4759390000000 1.0
C      1  0.4747560000000  0.5365400000000  0.4834280000000 1.0
C      1  0.4545580000000  0.4641610000000  0.4898340000000 1.0
C      1  0.5546760000000  0.4655030000000  0.5866340000000 1.0
C      1  0.4046950000000  0.4523130000000  0.4908690000000 1.0
C      1  0.5422630000000  0.5028790000000  0.4046540000000 1.0
C      1  0.5145550000000  0.3939320000000  0.4868160000000 1.0
C      1  0.5539950000000  0.5266180000000  0.5187190000000 1.0
C      1  0.4645750000000  0.5986660000000  0.4901730000000 1.0
C      1  0.4807690000000  0.4556410000000  0.4791940000000 1.0
END
