TITL C-3866675-3766-529 0.107117705900947 125000 -379.526818168746 0 0 64 (C1) n - 1
REM
REM in /home/nfs/bkarasulu/CARBON/AIRSS/Generating-Clusters/LCBOP/Only-C1/SD-CG/FIRE-CG
REM
REM
REM
REM
REM
REM ./C.cell (11c1c37f851c82e70ff6c80c92926a4b)
REM AIRSS Version 0.9.1 bugfix July 2018 build 013d7b7c2542+ Fri, 06 Jul 2018 19:26:36 +0100
REM compiler GCC version 9.2.1 20190827 (Red Hat 9.2.1-1)
REM options -cpp -mtune=generic -march=x86-64 -g -O0 -fpre-include=/usr/include/finclude/math-vector-fortran.h
REM seed -1707590069 -1493121786 253870510 -1772647788 -365967556 185038856 1049453024 358390124 243535537 1915266137 -1244165712 2046907419 -1177499036 629360943 587392602 85650299 -27642424 1026481404 2052770743 523634188 915943839 -941623516 804792764 839271457 -1227181177 -2115786991 877663769 1366726984 -529874146 307947605 -1650172658 1632826991 1745362189
REM
CELL 1.54180   50.00000   50.00000   50.00000   90.00000   90.00000   90.00000
LATT -1
SFAC C  
C      1  0.4645860000000  0.4964380000000  0.4136060000000 1.0
C      1  0.5498710000000  0.5221610000000  0.4986920000000 1.0
C      1  0.4710410000000  0.4940340000000  0.4750320000000 1.0
C      1  0.6139610000000  0.4852400000000  0.4893440000000 1.0
C      1  0.4737400000000  0.4737450000000  0.4291280000000 1.0
C      1  0.5709230000000  0.3947980000000  0.5309100000000 1.0
C      1  0.5509690000000  0.5741520000000  0.5390640000000 1.0
C      1  0.5382230000000  0.4260530000000  0.4809280000000 1.0
C      1  0.5563080000000  0.4305810000000  0.5017260000000 1.0
C      1  0.4466190000000  0.4471950000000  0.5278720000000 1.0
C      1  0.4500570000000  0.4958560000000  0.5520660000000 1.0
C      1  0.4469380000000  0.4331020000000  0.5048370000000 1.0
C      1  0.5283500000000  0.5286560000000  0.5780490000000 1.0
C      1  0.4794170000000  0.5103090000000  0.3935810000000 1.0
C      1  0.5704770000000  0.5152030000000  0.5386530000000 1.0
C      1  0.5341640000000  0.4228650000000  0.5441470000000 1.0
C      1  0.4922560000000  0.5800830000000  0.4698910000000 1.0
C      1  0.5017250000000  0.5853330000000  0.4440700000000 1.0
C      1  0.5163230000000  0.5530910000000  0.5713610000000 1.0
C      1  0.5685920000000  0.5611130000000  0.5235070000000 1.0
C      1  0.4421890000000  0.4920770000000  0.4712900000000 1.0
C      1  0.4418680000000  0.5021320000000  0.5998110000000 1.0
C      1  0.4966310000000  0.4221410000000  0.5741980000000 1.0
C      1  0.5253520000000  0.5711920000000  0.5496740000000 1.0
C      1  0.5125430000000  0.4355780000000  0.5564920000000 1.0
C      1  0.5099760000000  0.5405190000000  0.4404200000000 1.0
C      1  0.4872530000000  0.5531140000000  0.5692720000000 1.0
C      1  0.4478170000000  0.5140830000000  0.4293940000000 1.0
C      1  0.4615340000000  0.4481730000000  0.4318350000000 1.0
C      1  0.5953970000000  0.4676650000000  0.4944530000000 1.0
C      1  0.5014870000000  0.4708380000000  0.5236010000000 1.0
C      1  0.5006180000000  0.5578470000000  0.3979430000000 1.0
C      1  0.4834990000000  0.5534990000000  0.4781900000000 1.0
C      1  0.5321610000000  0.5057410000000  0.5147230000000 1.0
C      1  0.5014680000000  0.5768190000000  0.5339830000000 1.0
C      1  0.4855420000000  0.5079250000000  0.4952420000000 1.0
C      1  0.4789020000000  0.5604100000000  0.5423620000000 1.0
C      1  0.5331930000000  0.5287720000000  0.4496550000000 1.0
C      1  0.5763410000000  0.4498380000000  0.4990210000000 1.0
C      1  0.5699950000000  0.5339980000000  0.5164510000000 1.0
C      1  0.4296120000000  0.5045880000000  0.4488070000000 1.0
C      1  0.4588340000000  0.4960630000000  0.5793230000000 1.0
C      1  0.5480370000000  0.5243230000000  0.4711940000000 1.0
C      1  0.4858680000000  0.4896780000000  0.5835950000000 1.0
C      1  0.5540470000000  0.4157140000000  0.5258600000000 1.0
C      1  0.4445520000000  0.4707350000000  0.5404910000000 1.0
C      1  0.4026190000000  0.5075360000000  0.4464850000000 1.0
C      1  0.4611870000000  0.5372170000000  0.4376960000000 1.0
C      1  0.4844000000000  0.5392090000000  0.4530850000000 1.0
C      1  0.4858350000000  0.4821430000000  0.4537260000000 1.0
C      1  0.4789890000000  0.5358630000000  0.5001770000000 1.0
C      1  0.4299410000000  0.4683090000000  0.4796030000000 1.0
C      1  0.4410200000000  0.4422650000000  0.4788680000000 1.0
C      1  0.5073320000000  0.4625530000000  0.5499320000000 1.0
C      1  0.5083120000000  0.5647810000000  0.4243280000000 1.0
C      1  0.5065660000000  0.4947930000000  0.5095150000000 1.0
C      1  0.5202790000000  0.4218180000000  0.4625140000000 1.0
C      1  0.4906390000000  0.5344250000000  0.3882140000000 1.0
C      1  0.5293910000000  0.5034630000000  0.5651830000000 1.0
C      1  0.4519060000000  0.5199070000000  0.5373190000000 1.0
C      1  0.4512030000000  0.4350370000000  0.4533590000000 1.0
C      1  0.5446980000000  0.5026260000000  0.5414380000000 1.0
C      1  0.4672910000000  0.5408050000000  0.5257270000000 1.0
C      1  0.5091370000000  0.4837790000000  0.5690900000000 1.0
END
