TITL C-3866675-3766-706 0.00540556561920281 125000 -605.802443330057 0 0 99 (C1) n - 1
REM
REM in /home/nfs/bkarasulu/CARBON/AIRSS/Generating-Clusters/LCBOP/Only-C1/SD-CG/FIRE-CG
REM
REM
REM
REM
REM
REM ./C.cell (11c1c37f851c82e70ff6c80c92926a4b)
REM AIRSS Version 0.9.1 bugfix July 2018 build 013d7b7c2542+ Fri, 06 Jul 2018 19:26:36 +0100
REM compiler GCC version 9.2.1 20190827 (Red Hat 9.2.1-1)
REM options -cpp -mtune=generic -march=x86-64 -g -O0 -fpre-include=/usr/include/finclude/math-vector-fortran.h
REM seed 1813770889 903587949 2030375385 1167547954 -1614244049 -1937694814 1211996197 2057791023 -25757881 2018204110 1385564575 -1121623169 1109950677 -1417400353 1686725772 -1428929545 -461079078 706871186 735654413 -42801839 598396352 -1925761986 1926567899 1130194012 1346983260 940046204 -222303833 693146949 714195259 1612310044 -1381798997 1556355168 50352527
REM
CELL 1.54180   50.00000   50.00000   50.00000   90.00000   90.00000   90.00000
LATT -1
SFAC C  
C      1  0.6503290000000  0.4931530000000  0.4547590000000 1.0
C      1  0.4376780000000  0.5756570000000  0.4340200000000 1.0
C      1  0.4459530000000  0.5336900000000  0.5538350000000 1.0
C      1  0.4929310000000  0.5805140000000  0.4993420000000 1.0
C      1  0.6034810000000  0.4856300000000  0.5282070000000 1.0
C      1  0.4617910000000  0.5002740000000  0.4760070000000 1.0
C      1  0.5430260000000  0.5490460000000  0.4254880000000 1.0
C      1  0.3797620000000  0.5639420000000  0.5269700000000 1.0
C      1  0.4193980000000  0.4807180000000  0.4807660000000 1.0
C      1  0.4286160000000  0.4446860000000  0.4526180000000 1.0
C      1  0.4624140000000  0.5362380000000  0.5783890000000 1.0
C      1  0.5469450000000  0.5697200000000  0.4668680000000 1.0
C      1  0.4318950000000  0.4538570000000  0.4797330000000 1.0
C      1  0.4572300000000  0.4471160000000  0.4132960000000 1.0
C      1  0.5230830000000  0.4458220000000  0.5220500000000 1.0
C      1  0.4956280000000  0.5740160000000  0.4723600000000 1.0
C      1  0.5050620000000  0.5161750000000  0.4520320000000 1.0
C      1  0.5542710000000  0.4070920000000  0.4851030000000 1.0
C      1  0.5739270000000  0.5292970000000  0.4590690000000 1.0
C      1  0.4702240000000  0.4766470000000  0.5401820000000 1.0
C      1  0.5162400000000  0.5576120000000  0.4318950000000 1.0
C      1  0.4159910000000  0.5865960000000  0.5611920000000 1.0
C      1  0.6210070000000  0.4772760000000  0.5100020000000 1.0
C      1  0.4779330000000  0.4420500000000  0.5077340000000 1.0
C      1  0.6288830000000  0.4776960000000  0.4613870000000 1.0
C      1  0.4393420000000  0.4605130000000  0.4310420000000 1.0
C      1  0.5199850000000  0.5737340000000  0.4573440000000 1.0
C      1  0.4948150000000  0.5814370000000  0.5274880000000 1.0
C      1  0.5434820000000  0.4642880000000  0.4743010000000 1.0
C      1  0.6271250000000  0.4637230000000  0.4862660000000 1.0
C      1  0.4651910000000  0.5406340000000  0.5332090000000 1.0
C      1  0.4522950000000  0.5085060000000  0.4189410000000 1.0
C      1  0.5605040000000  0.5513590000000  0.4484400000000 1.0
C      1  0.4563670000000  0.4519450000000  0.3863870000000 1.0
C      1  0.5165620000000  0.4928340000000  0.5229550000000 1.0
C      1  0.4362690000000  0.4972950000000  0.4636300000000 1.0
C      1  0.5663380000000  0.4182980000000  0.5342270000000 1.0
C      1  0.4598920000000  0.4533500000000  0.4884430000000 1.0
C      1  0.3990510000000  0.4926110000000  0.4954780000000 1.0
C      1  0.4780590000000  0.5180740000000  0.4905510000000 1.0
C      1  0.4638950000000  0.5855230000000  0.5845790000000 1.0
C      1  0.4494220000000  0.4824020000000  0.5586780000000 1.0
C      1  0.4994790000000  0.5084910000000  0.5976300000000 1.0
C      1  0.4377960000000  0.5916020000000  0.5757250000000 1.0
C      1  0.5824110000000  0.4629260000000  0.4446560000000 1.0
C      1  0.3826020000000  0.5377850000000  0.5170550000000 1.0
C      1  0.5164510000000  0.4835530000000  0.4168430000000 1.0
C      1  0.5779510000000  0.4909310000000  0.5387820000000 1.0
C      1  0.4979940000000  0.4696330000000  0.4603080000000 1.0
C      1  0.5067300000000  0.4895140000000  0.4415850000000 1.0
C      1  0.5102730000000  0.6007870000000  0.5392020000000 1.0
C      1  0.4754060000000  0.5623400000000  0.5727990000000 1.0
C      1  0.6217570000000  0.4360900000000  0.4847120000000 1.0
C      1  0.4810120000000  0.5628070000000  0.5435610000000 1.0
C      1  0.5553480000000  0.5727820000000  0.4932330000000 1.0
C      1  0.3870400000000  0.5137690000000  0.5064060000000 1.0
C      1  0.4892650000000  0.4479780000000  0.5850510000000 1.0
C      1  0.4761670000000  0.5196310000000  0.5183850000000 1.0
C      1  0.4585490000000  0.4864950000000  0.5854820000000 1.0
C      1  0.5061170000000  0.4421770000000  0.4997980000000 1.0
C      1  0.5689870000000  0.4428150000000  0.5449720000000 1.0
C      1  0.4717980000000  0.5273060000000  0.4183880000000 1.0
C      1  0.5675260000000  0.5078930000000  0.4737360000000 1.0
C      1  0.5138690000000  0.4610530000000  0.5908800000000 1.0
C      1  0.5165720000000  0.4874880000000  0.5966290000000 1.0
C      1  0.4223380000000  0.5192740000000  0.5508250000000 1.0
C      1  0.5467970000000  0.4916070000000  0.4831690000000 1.0
C      1  0.4736760000000  0.4739690000000  0.4736200000000 1.0
C      1  0.6006130000000  0.4211510000000  0.4778370000000 1.0
C      1  0.4756350000000  0.4284180000000  0.4239210000000 1.0
C      1  0.5165010000000  0.4544270000000  0.4755780000000 1.0
C      1  0.5325340000000  0.4706900000000  0.5320310000000 1.0
C      1  0.3582180000000  0.5789690000000  0.5191680000000 1.0
C      1  0.5702990000000  0.5176280000000  0.5424010000000 1.0
C      1  0.5731040000000  0.4246460000000  0.4729400000000 1.0
C      1  0.5319790000000  0.3988160000000  0.4700920000000 1.0
C      1  0.4486190000000  0.5642560000000  0.4564130000000 1.0
C      1  0.5610750000000  0.5622030000000  0.5169800000000 1.0
C      1  0.5653910000000  0.5424900000000  0.5343150000000 1.0
C      1  0.4762880000000  0.5586090000000  0.4570450000000 1.0
C      1  0.4390590000000  0.4895260000000  0.4354280000000 1.0
C      1  0.4672600000000  0.4620180000000  0.5971650000000 1.0
C      1  0.4770950000000  0.6006190000000  0.6030260000000 1.0
C      1  0.4241990000000  0.4923700000000  0.5516810000000 1.0
C      1  0.4750200000000  0.4487920000000  0.5356240000000 1.0
C      1  0.5117260000000  0.4021490000000  0.4529030000000 1.0
C      1  0.4930400000000  0.4130490000000  0.4371650000000 1.0
C      1  0.5244820000000  0.5037720000000  0.4969200000000 1.0
C      1  0.4721720000000  0.5119640000000  0.5903180000000 1.0
C      1  0.5050670000000  0.5176990000000  0.4807090000000 1.0
C      1  0.5578280000000  0.4041550000000  0.5129830000000 1.0
C      1  0.5648230000000  0.4498980000000  0.4624240000000 1.0
C      1  0.6067530000000  0.4741130000000  0.4442830000000 1.0
C      1  0.4914240000000  0.5395700000000  0.4373160000000 1.0
C      1  0.4838720000000  0.4358620000000  0.5595750000000 1.0
C      1  0.4885790000000  0.4967210000000  0.5307080000000 1.0
C      1  0.3985750000000  0.5750210000000  0.5446880000000 1.0
C      1  0.5595250000000  0.4694150000000  0.5413100000000 1.0
C      1  0.4330410000000  0.5592420000000  0.4783610000000 1.0
END
