TITL C-3866670-4165-713 0.326920062143235 125000 -363.500512889621 0 0 61 (C1) n - 1
REM
REM in /home/nfs/bkarasulu/CARBON/AIRSS/Generating-Clusters/LCBOP/Only-C1/SD-CG/FIRE-CG
REM
REM
REM
REM
REM
REM ./C.cell (11c1c37f851c82e70ff6c80c92926a4b)
REM AIRSS Version 0.9.1 bugfix July 2018 build 013d7b7c2542+ Fri, 06 Jul 2018 19:26:36 +0100
REM compiler GCC version 9.2.1 20190827 (Red Hat 9.2.1-1)
REM options -cpp -mtune=generic -march=x86-64 -g -O0 -fpre-include=/usr/include/finclude/math-vector-fortran.h
REM seed 1402102084 879724890 247287973 1952382086 -563413364 974628693 -651550869 1009512573 -701815316 971632810 -1351697499 -1510478138 655381660 -700739413 -313004266 -1202901545 1779439542 1274016258 638074884 1158998094 -639476484 1070719227 1645533642 -2000343707 1716951974 -1500559064 -1251162688 -1464622318 2024880399 -1664218805 887469053 1375149988 -1814093479
REM
CELL 1.54180   50.00000   50.00000   50.00000   90.00000   90.00000   90.00000
LATT -1
SFAC C  
C      1  0.4913460000000  0.5779480000000  0.4595820000000 1.0
C      1  0.5985430000000  0.5586380000000  0.5101300000000 1.0
C      1  0.4126500000000  0.5496480000000  0.5039690000000 1.0
C      1  0.4406190000000  0.5087210000000  0.4564540000000 1.0
C      1  0.5461940000000  0.4340880000000  0.4788910000000 1.0
C      1  0.5452480000000  0.4722200000000  0.5541680000000 1.0
C      1  0.3879140000000  0.4761000000000  0.5664850000000 1.0
C      1  0.5776440000000  0.5015310000000  0.5290620000000 1.0
C      1  0.5439170000000  0.5836900000000  0.5918850000000 1.0
C      1  0.5088710000000  0.4437040000000  0.4507150000000 1.0
C      1  0.4690450000000  0.5732080000000  0.4757760000000 1.0
C      1  0.4535130000000  0.5326490000000  0.5221700000000 1.0
C      1  0.4203840000000  0.4333870000000  0.5203360000000 1.0
C      1  0.5626790000000  0.4608890000000  0.3595060000000 1.0
C      1  0.5988150000000  0.5181080000000  0.5379850000000 1.0
C      1  0.4714990000000  0.5790910000000  0.5037530000000 1.0
C      1  0.3986680000000  0.4965440000000  0.5535020000000 1.0
C      1  0.5357580000000  0.5187610000000  0.5454100000000 1.0
C      1  0.4788840000000  0.4397450000000  0.5353390000000 1.0
C      1  0.5405190000000  0.5621870000000  0.5775440000000 1.0
C      1  0.4610710000000  0.4395610000000  0.4509170000000 1.0
C      1  0.5752610000000  0.5247820000000  0.4866690000000 1.0
C      1  0.4475540000000  0.5343840000000  0.4537930000000 1.0
C      1  0.4217490000000  0.5624750000000  0.4820870000000 1.0
C      1  0.5603050000000  0.4605060000000  0.3854650000000 1.0
C      1  0.5737800000000  0.5001610000000  0.5004340000000 1.0
C      1  0.4381040000000  0.4494620000000  0.5071630000000 1.0
C      1  0.5373350000000  0.5405100000000  0.5626520000000 1.0
C      1  0.4785320000000  0.6039150000000  0.5126650000000 1.0
C      1  0.4844040000000  0.4476000000000  0.4640640000000 1.0
C      1  0.5578540000000  0.4601020000000  0.4118420000000 1.0
C      1  0.5176150000000  0.5805770000000  0.4562430000000 1.0
C      1  0.4695090000000  0.5104810000000  0.5160030000000 1.0
C      1  0.5806280000000  0.5523250000000  0.4891970000000 1.0
C      1  0.5266860000000  0.4634160000000  0.5118070000000 1.0
C      1  0.5487650000000  0.4570310000000  0.4957580000000 1.0
C      1  0.5550300000000  0.4975780000000  0.5459900000000 1.0
C      1  0.5520060000000  0.4085900000000  0.4862740000000 1.0
C      1  0.4292640000000  0.4690300000000  0.4889510000000 1.0
C      1  0.3778760000000  0.4547540000000  0.5785740000000 1.0
C      1  0.5694880000000  0.4759730000000  0.4573420000000 1.0
C      1  0.5661440000000  0.4774110000000  0.4856720000000 1.0
C      1  0.4315460000000  0.4877600000000  0.4701580000000 1.0
C      1  0.5548080000000  0.4594400000000  0.4393900000000 1.0
C      1  0.5366860000000  0.4419040000000  0.4529890000000 1.0
C      1  0.4414530000000  0.4295650000000  0.4369620000000 1.0
C      1  0.4836750000000  0.4577020000000  0.4907930000000 1.0
C      1  0.5029390000000  0.4758660000000  0.5016140000000 1.0
C      1  0.3682030000000  0.4335130000000  0.5901870000000 1.0
C      1  0.4457870000000  0.5589240000000  0.4674520000000 1.0
C      1  0.4657930000000  0.5580050000000  0.5213970000000 1.0
C      1  0.4958110000000  0.5012560000000  0.5128050000000 1.0
C      1  0.4105510000000  0.5154850000000  0.5393060000000 1.0
C      1  0.5026410000000  0.4438360000000  0.5477110000000 1.0
C      1  0.5155880000000  0.5162260000000  0.5261250000000 1.0
C      1  0.6065560000000  0.5428890000000  0.5305810000000 1.0
C      1  0.5434270000000  0.5791420000000  0.4625010000000 1.0
C      1  0.5262090000000  0.4572330000000  0.5397460000000 1.0
C      1  0.4249850000000  0.5322250000000  0.5224780000000 1.0
C      1  0.5655410000000  0.5706480000000  0.4745990000000 1.0
C      1  0.4661290000000  0.4469020000000  0.5109800000000 1.0
END
