TITL C-3866672-3872-740 621.954660496005 125000 -609.801218115599 0 0 100 (C1) n - 1
REM
REM in /home/nfs/bkarasulu/CARBON/AIRSS/Generating-Clusters/LCBOP/Only-C1/SD-CG/FIRE-CG
REM
REM
REM
REM
REM
REM ./C.cell (11c1c37f851c82e70ff6c80c92926a4b)
REM AIRSS Version 0.9.1 bugfix July 2018 build 013d7b7c2542+ Fri, 06 Jul 2018 19:26:36 +0100
REM compiler GCC version 9.2.1 20190827 (Red Hat 9.2.1-1)
REM options -cpp -mtune=generic -march=x86-64 -g -O0 -fpre-include=/usr/include/finclude/math-vector-fortran.h
REM seed -980529616 1582676302 514456627 -794599751 -1039761129 -1578857288 922237816 762769795 1018214195 1450914767 -210364223 -1529266929 515520818 776993737 -892978062 309359112 1375027518 1124345251 654344007 -308872317 -652941943 1218447673 1666836611 2020182382 436151497 856452577 127986823 2136221716 142622538 333575529 -251797010 -782292151 1186651374
REM
CELL 1.54180   50.00000   50.00000   50.00000   90.00000   90.00000   90.00000
LATT -1
SFAC C  
C      1  0.5439740000000  0.6166480000000  0.4992180000000 1.0
C      1  0.4652720000000  0.4802990000000  0.4848240000000 1.0
C      1  0.4613300000000  0.4152770000000  0.5531300000000 1.0
C      1  0.4914670000000  0.4652580000000  0.5988840000000 1.0
C      1  0.4058650000000  0.4836620000000  0.4881840000000 1.0
C      1  0.5099480000000  0.5642160000000  0.4259770000000 1.0
C      1  0.4217630000000  0.5317280000000  0.4790110000000 1.0
C      1  0.4331600000000  0.4702540000000  0.5241860000000 1.0
C      1  0.5475390000000  0.4560670000000  0.4753410000000 1.0
C      1  0.4725480000000  0.5150140000000  0.3572170000000 1.0
C      1  0.4724620000000  0.4606770000000  0.4650270000000 1.0
C      1  0.5697790000000  0.5247200000000  0.4342980000000 1.0
C      1  0.4563750000000  0.5054430000000  0.3081140000000 1.0
C      1  0.4994850000000  0.5057090000000  0.4246950000000 1.0
C      1  0.4807110000000  0.5198230000000  0.3819510000000 1.0
C      1  0.4623450000000  0.4361750000000  0.5721010000000 1.0
C      1  0.4950400000000  0.5644870000000  0.5694820000000 1.0
C      1  0.5149560000000  0.4445670000000  0.4413080000000 1.0
C      1  0.4720480000000  0.5475910000000  0.5646810000000 1.0
C      1  0.4649950000000  0.5307480000000  0.5860130000000 1.0
C      1  0.5142130000000  0.5189040000000  0.5359840000000 1.0
C      1  0.4857190000000  0.5514540000000  0.4192350000000 1.0
C      1  0.4288140000000  0.4937960000000  0.5395200000000 1.0
C      1  0.5158680000000  0.5526480000000  0.5845930000000 1.0
C      1  0.5137380000000  0.4373800000000  0.5644450000000 1.0
C      1  0.4531650000000  0.4394460000000  0.4658510000000 1.0
C      1  0.4643820000000  0.5101990000000  0.3324640000000 1.0
C      1  0.5140230000000  0.4901490000000  0.5428210000000 1.0
C      1  0.4374790000000  0.5504290000000  0.4952100000000 1.0
C      1  0.5723310000000  0.5861960000000  0.4691630000000 1.0
C      1  0.4802580000000  0.4612190000000  0.5244920000000 1.0
C      1  0.4357570000000  0.4682980000000  0.6020540000000 1.0
C      1  0.4413280000000  0.4461380000000  0.5879680000000 1.0
C      1  0.5633610000000  0.4472180000000  0.5668400000000 1.0
C      1  0.5578690000000  0.4161190000000  0.5048390000000 1.0
C      1  0.4184360000000  0.4976570000000  0.4446280000000 1.0
C      1  0.5230150000000  0.4752110000000  0.5110480000000 1.0
C      1  0.4540080000000  0.5708330000000  0.4848940000000 1.0
C      1  0.5702630000000  0.5581600000000  0.4716970000000 1.0
C      1  0.5066290000000  0.4906110000000  0.4469920000000 1.0
C      1  0.4475930000000  0.5878590000000  0.4635890000000 1.0
C      1  0.6072190000000  0.4413790000000  0.5423400000000 1.0
C      1  0.5851020000000  0.5346240000000  0.5193270000000 1.0
C      1  0.5844050000000  0.4293540000000  0.4648890000000 1.0
C      1  0.4685130000000  0.5067930000000  0.4799360000000 1.0
C      1  0.5654550000000  0.4362320000000  0.4864800000000 1.0
C      1  0.5413540000000  0.3957290000000  0.4971490000000 1.0
C      1  0.5035590000000  0.4550410000000  0.5100040000000 1.0
C      1  0.5353980000000  0.4795030000000  0.4860190000000 1.0
C      1  0.4597280000000  0.5596670000000  0.4274350000000 1.0
C      1  0.5109870000000  0.6050490000000  0.5384400000000 1.0
C      1  0.4253530000000  0.5245080000000  0.4513900000000 1.0
C      1  0.5429360000000  0.5464310000000  0.5088590000000 1.0
C      1  0.4816330000000  0.4103170000000  0.5336470000000 1.0
C      1  0.4538500000000  0.5861730000000  0.4361350000000 1.0
C      1  0.4467960000000  0.4920070000000  0.6081070000000 1.0
C      1  0.4884760000000  0.5252990000000  0.4081150000000 1.0
C      1  0.4140610000000  0.4754740000000  0.4617140000000 1.0
C      1  0.4972980000000  0.5467890000000  0.4998140000000 1.0
C      1  0.5200570000000  0.5015680000000  0.5897930000000 1.0
C      1  0.6234270000000  0.4398300000000  0.5209760000000 1.0
C      1  0.4113410000000  0.5111310000000  0.4970380000000 1.0
C      1  0.4540390000000  0.6077110000000  0.4194800000000 1.0
C      1  0.4878680000000  0.4524300000000  0.5724350000000 1.0
C      1  0.5296190000000  0.4839290000000  0.5682820000000 1.0
C      1  0.4581100000000  0.4697210000000  0.5105100000000 1.0
C      1  0.5227910000000  0.5421590000000  0.4898850000000 1.0
C      1  0.4946840000000  0.4932580000000  0.6008670000000 1.0
C      1  0.4234730000000  0.5167280000000  0.5239210000000 1.0
C      1  0.4670440000000  0.5397210000000  0.5374770000000 1.0
C      1  0.4994590000000  0.5883820000000  0.5556760000000 1.0
C      1  0.6251580000000  0.4340580000000  0.4948560000000 1.0
C      1  0.5350010000000  0.5606350000000  0.4348940000000 1.0
C      1  0.4601900000000  0.4183230000000  0.4839890000000 1.0
C      1  0.5806870000000  0.4346470000000  0.5487910000000 1.0
C      1  0.5681160000000  0.5248830000000  0.5392500000000 1.0
C      1  0.5366440000000  0.4554900000000  0.5689550000000 1.0
C      1  0.5257560000000  0.4992000000000  0.4667490000000 1.0
C      1  0.4811090000000  0.5674420000000  0.4908770000000 1.0
C      1  0.5528300000000  0.5425120000000  0.4515110000000 1.0
C      1  0.5609520000000  0.6074270000000  0.4808470000000 1.0
C      1  0.4422700000000  0.5389630000000  0.5223450000000 1.0
C      1  0.5674710000000  0.4323910000000  0.4414610000000 1.0
C      1  0.5263710000000  0.5289180000000  0.5914740000000 1.0
C      1  0.5682960000000  0.4172290000000  0.5306070000000 1.0
C      1  0.4876940000000  0.4730810000000  0.5491540000000 1.0
C      1  0.5077430000000  0.4166900000000  0.5449110000000 1.0
C      1  0.4270730000000  0.4497720000000  0.4590450000000 1.0
C      1  0.6112440000000  0.4288250000000  0.4724700000000 1.0
C      1  0.4915680000000  0.5328100000000  0.5240900000000 1.0
C      1  0.4694870000000  0.5074330000000  0.6009250000000 1.0
C      1  0.5321770000000  0.5268120000000  0.4679330000000 1.0
C      1  0.5422770000000  0.4453210000000  0.4480350000000 1.0
C      1  0.5702680000000  0.5481900000000  0.4985550000000 1.0
C      1  0.4104630000000  0.4642300000000  0.5084070000000 1.0
C      1  0.4730200000000  0.4094250000000  0.5063070000000 1.0
C      1  0.5264740000000  0.6149580000000  0.5192060000000 1.0
C      1  0.4400510000000  0.5403650000000  0.4336010000000 1.0
C      1  0.5402990000000  0.5307240000000  0.5332430000000 1.0
C      1  0.4959640000000  0.4640180000000  0.4494020000000 1.0
END
