TITL C-3866672-3872-176 2.2100110367686 125000 -892.4243044016 0 0 144 (C1) n - 1
REM
REM in /home/nfs/bkarasulu/CARBON/AIRSS/Generating-Clusters/LCBOP/Only-C1/SD-CG/HFTN-CG/FIRE-CG
REM
REM
REM
REM
REM
REM ./C.cell (11c1c37f851c82e70ff6c80c92926a4b)
REM AIRSS Version 0.9.1 bugfix July 2018 build 013d7b7c2542+ Fri, 06 Jul 2018 19:26:36 +0100
REM compiler GCC version 9.2.1 20190827 (Red Hat 9.2.1-1)
REM options -cpp -mtune=generic -march=x86-64 -g -O0 -fpre-include=/usr/include/finclude/math-vector-fortran.h
REM seed 824620472 -2132693176 72879254 1493057390 1296080503 1388987545 -1702632340 -1703602794 2053668718 1119656206 1240199499 -331900367 -2082485275 855410866 888942628 926328433 -1206716451 -1526200639 -1797914338 991969822 -865693184 1706365721 -1724030107 -699933999 1286051849 1571686250 698138709 1279212975 -28644849 2017695834 702309699 -1782078375 817815360
REM
CELL 1.54180   50.00000   50.00000   50.00000   90.00000   90.00000   90.00000
LATT -1
SFAC C  
C      1  0.5089530000000  0.4291510000000  0.6161890000000 1.0
C      1  0.5940190000000  0.4721110000000  0.5492280000000 1.0
C      1  0.4963930000000  0.4777840000000  0.4214180000000 1.0
C      1  0.5028960000000  0.4900420000000  0.5901270000000 1.0
C      1  0.4850430000000  0.4618760000000  0.4446130000000 1.0
C      1  0.6112860000000  0.5481180000000  0.4997220000000 1.0
C      1  0.6057690000000  0.4934080000000  0.5098760000000 1.0
C      1  0.4266570000000  0.4137920000000  0.4999900000000 1.0
C      1  0.5625920000000  0.5554210000000  0.4620140000000 1.0
C      1  0.5295260000000  0.4861030000000  0.4913070000000 1.0
C      1  0.5182160000000  0.4118250000000  0.5532930000000 1.0
C      1  0.4848010000000  0.4967130000000  0.4741720000000 1.0
C      1  0.4707030000000  0.5447940000000  0.4969020000000 1.0
C      1  0.5808230000000  0.3692420000000  0.2948280000000 1.0
C      1  0.4229630000000  0.5770120000000  0.5741460000000 1.0
C      1  0.3966100000000  0.5037460000000  0.4433820000000 1.0
C      1  0.3877450000000  0.5251740000000  0.4620060000000 1.0
C      1  0.5854290000000  0.4184400000000  0.5257120000000 1.0
C      1  0.4411470000000  0.5786270000000  0.4891660000000 1.0
C      1  0.4887210000000  0.5568060000000  0.4089870000000 1.0
C      1  0.4499050000000  0.4395300000000  0.5672660000000 1.0
C      1  0.5671940000000  0.4071810000000  0.5428310000000 1.0
C      1  0.5567710000000  0.4000200000000  0.3306590000000 1.0
C      1  0.4467920000000  0.4492810000000  0.4754730000000 1.0
C      1  0.6207710000000  0.5288420000000  0.4809020000000 1.0
C      1  0.4811180000000  0.5680410000000  0.6195950000000 1.0
C      1  0.4578200000000  0.5214260000000  0.4984300000000 1.0
C      1  0.5242620000000  0.4561190000000  0.4916700000000 1.0
C      1  0.5480410000000  0.4084590000000  0.5899310000000 1.0
C      1  0.5634190000000  0.5478540000000  0.5124900000000 1.0
C      1  0.5027270000000  0.5319870000000  0.4059760000000 1.0
C      1  0.5080510000000  0.5463240000000  0.4673190000000 1.0
C      1  0.4423310000000  0.4891320000000  0.5806760000000 1.0
C      1  0.3971760000000  0.4921030000000  0.5446620000000 1.0
C      1  0.5250420000000  0.5788800000000  0.5578040000000 1.0
C      1  0.5328220000000  0.4308610000000  0.3664930000000 1.0
C      1  0.5736660000000  0.4533860000000  0.5544720000000 1.0
C      1  0.5407990000000  0.4832470000000  0.5601590000000 1.0
C      1  0.4750030000000  0.4306920000000  0.5815120000000 1.0
C      1  0.4479140000000  0.5651970000000  0.5759260000000 1.0
C      1  0.3930890000000  0.4633100000000  0.4752520000000 1.0
C      1  0.5325480000000  0.5954470000000  0.4506070000000 1.0
C      1  0.5204170000000  0.5219290000000  0.4571230000000 1.0
C      1  0.5023610000000  0.4791490000000  0.5375940000000 1.0
C      1  0.5433020000000  0.5544690000000  0.5572580000000 1.0
C      1  0.4818200000000  0.4618130000000  0.5276700000000 1.0
C      1  0.4989560000000  0.5772590000000  0.5733400000000 1.0
C      1  0.5085370000000  0.5962790000000  0.5141380000000 1.0
C      1  0.5518720000000  0.5576730000000  0.4884940000000 1.0
C      1  0.5483480000000  0.4600100000000  0.5428930000000 1.0
C      1  0.4713550000000  0.3866500000000  0.5257420000000 1.0
C      1  0.5329160000000  0.4464360000000  0.5198120000000 1.0
C      1  0.4844460000000  0.5545910000000  0.5184060000000 1.0
C      1  0.3918190000000  0.4633840000000  0.5049510000000 1.0
C      1  0.5240630000000  0.5207270000000  0.5305940000000 1.0
C      1  0.4870830000000  0.6004390000000  0.4671040000000 1.0
C      1  0.5903660000000  0.5398140000000  0.5174360000000 1.0
C      1  0.4119760000000  0.5201920000000  0.4243160000000 1.0
C      1  0.5513000000000  0.6110140000000  0.5236470000000 1.0
C      1  0.6049960000000  0.5048230000000  0.4834230000000 1.0
C      1  0.5053490000000  0.4465270000000  0.4696230000000 1.0
C      1  0.4660950000000  0.5120080000000  0.4297410000000 1.0
C      1  0.4598490000000  0.5510230000000  0.6189240000000 1.0
C      1  0.4749770000000  0.3610320000000  0.5226120000000 1.0
C      1  0.5538990000000  0.6148310000000  0.4964270000000 1.0
C      1  0.5461080000000  0.5142240000000  0.4144350000000 1.0
C      1  0.4456160000000  0.5152290000000  0.5870530000000 1.0
C      1  0.5342080000000  0.6102780000000  0.4761410000000 1.0
C      1  0.5999730000000  0.4394930000000  0.5155020000000 1.0
C      1  0.5110730000000  0.5141750000000  0.6017590000000 1.0
C      1  0.4675840000000  0.4138270000000  0.5306980000000 1.0
C      1  0.4066830000000  0.5400790000000  0.5363830000000 1.0
C      1  0.5677740000000  0.5272410000000  0.4559730000000 1.0
C      1  0.4884190000000  0.4711640000000  0.6047970000000 1.0
C      1  0.4609450000000  0.5919870000000  0.5385030000000 1.0
C      1  0.4008710000000  0.5190140000000  0.5529900000000 1.0
C      1  0.4289640000000  0.4668040000000  0.4380380000000 1.0
C      1  0.5036960000000  0.5950080000000  0.4429450000000 1.0
C      1  0.5142500000000  0.4268640000000  0.5297760000000 1.0
C      1  0.5860520000000  0.5001120000000  0.5526730000000 1.0
C      1  0.5324210000000  0.4174050000000  0.6100590000000 1.0
C      1  0.5066750000000  0.6091730000000  0.4881690000000 1.0
C      1  0.4259950000000  0.4942740000000  0.4865900000000 1.0
C      1  0.5112800000000  0.4632680000000  0.4024370000000 1.0
C      1  0.5031230000000  0.5260730000000  0.5493610000000 1.0
C      1  0.5120960000000  0.4991960000000  0.4712050000000 1.0
C      1  0.4429370000000  0.5132410000000  0.4746780000000 1.0
C      1  0.5447510000000  0.5175150000000  0.4424260000000 1.0
C      1  0.6050480000000  0.4670310000000  0.5222660000000 1.0
C      1  0.3901790000000  0.4906910000000  0.5162620000000 1.0
C      1  0.4464890000000  0.4216220000000  0.4814170000000 1.0
C      1  0.4053590000000  0.4486250000000  0.5274730000000 1.0
C      1  0.6412400000000  0.5324380000000  0.4634430000000 1.0
C      1  0.4634920000000  0.5064320000000  0.4565370000000 1.0
C      1  0.4038060000000  0.4763800000000  0.4503190000000 1.0
C      1  0.4409950000000  0.4697740000000  0.4944730000000 1.0
C      1  0.5148640000000  0.5405630000000  0.6026400000000 1.0
C      1  0.5784980000000  0.4817620000000  0.3869310000000 1.0
C      1  0.4953150000000  0.4199120000000  0.4713730000000 1.0
C      1  0.4341660000000  0.4647210000000  0.5680760000000 1.0
C      1  0.4064240000000  0.5490310000000  0.4614950000000 1.0
C      1  0.5070870000000  0.5684220000000  0.5100980000000 1.0
C      1  0.5014720000000  0.5652450000000  0.5999600000000 1.0
C      1  0.4708480000000  0.4088280000000  0.4748580000000 1.0
C      1  0.4702240000000  0.5796030000000  0.5630350000000 1.0
C      1  0.5784830000000  0.5068140000000  0.4729930000000 1.0
C      1  0.4440980000000  0.4235470000000  0.5435220000000 1.0
C      1  0.5491400000000  0.5729280000000  0.4416850000000 1.0
C      1  0.4901150000000  0.5066240000000  0.4154620000000 1.0
C      1  0.5447490000000  0.4154080000000  0.3485720000000 1.0
C      1  0.5195110000000  0.4952520000000  0.5189050000000 1.0
C      1  0.5953250000000  0.5139010000000  0.5292750000000 1.0
C      1  0.5452650000000  0.4067340000000  0.5617370000000 1.0
C      1  0.4107910000000  0.4669640000000  0.5504530000000 1.0
C      1  0.4926600000000  0.5805610000000  0.4212560000000 1.0
C      1  0.4822560000000  0.5409990000000  0.5424400000000 1.0
C      1  0.4944470000000  0.4120380000000  0.5698700000000 1.0
C      1  0.5543850000000  0.5326940000000  0.5739190000000 1.0
C      1  0.5582750000000  0.4913800000000  0.4858500000000 1.0
C      1  0.5312500000000  0.5365650000000  0.4052210000000 1.0
C      1  0.4218770000000  0.4257230000000  0.5254570000000 1.0
C      1  0.4462430000000  0.5901690000000  0.5155890000000 1.0
C      1  0.4499590000000  0.5425340000000  0.5936390000000 1.0
C      1  0.4745710000000  0.4987750000000  0.5012610000000 1.0
C      1  0.5280460000000  0.5992320000000  0.5359750000000 1.0
C      1  0.4104290000000  0.5372570000000  0.5082020000000 1.0
C      1  0.5215870000000  0.4467750000000  0.3844550000000 1.0
C      1  0.4186420000000  0.5570720000000  0.4868250000000 1.0
C      1  0.5437930000000  0.5410130000000  0.5314140000000 1.0
C      1  0.5612820000000  0.4964650000000  0.3998420000000 1.0
C      1  0.4633270000000  0.4752660000000  0.5117930000000 1.0
C      1  0.5233050000000  0.5582420000000  0.4889110000000 1.0
C      1  0.4178090000000  0.5455640000000  0.4348060000000 1.0
C      1  0.4548420000000  0.4584050000000  0.4490400000000 1.0
C      1  0.4058710000000  0.5086460000000  0.5010310000000 1.0
C      1  0.5604410000000  0.5050650000000  0.5652940000000 1.0
C      1  0.4660740000000  0.5805350000000  0.4712040000000 1.0
C      1  0.5424430000000  0.5612970000000  0.4158550000000 1.0
C      1  0.5125290000000  0.4829620000000  0.5645700000000 1.0
C      1  0.5926530000000  0.3541050000000  0.2772050000000 1.0
C      1  0.5687960000000  0.3846330000000  0.3127460000000 1.0
C      1  0.4870080000000  0.4339150000000  0.5260040000000 1.0
C      1  0.4799160000000  0.5543680000000  0.4716310000000 1.0
C      1  0.4871560000000  0.4432700000000  0.6043910000000 1.0
END
