TITL C-3866672-3872-413 255.027442839009 125000 -1058.72808661252 0 0 173 (C1) n - 1
REM
REM in /home/nfs/bkarasulu/CARBON/AIRSS/Generating-Clusters/LCBOP/Only-C1/SD-CG/FIRE-CG
REM
REM
REM
REM
REM
REM ./C.cell (11c1c37f851c82e70ff6c80c92926a4b)
REM AIRSS Version 0.9.1 bugfix July 2018 build 013d7b7c2542+ Fri, 06 Jul 2018 19:26:36 +0100
REM compiler GCC version 9.2.1 20190827 (Red Hat 9.2.1-1)
REM options -cpp -mtune=generic -march=x86-64 -g -O0 -fpre-include=/usr/include/finclude/math-vector-fortran.h
REM seed 2120754073 -1033242720 -1642247500 -160241557 -2070544920 1928339051 273604208 1191594652 -1950733929 1851874074 1285475761 -949614083 2134409828 624814287 1786245273 1599667026 1980632764 120309221 -1266764457 1194240398 2068821562 146046070 -71901173 -2120801001 573749789 257406709 425107097 772851708 944922436 -1890308284 880922333 1489602558 -148552658
REM
CELL 1.54180   50.00000   50.00000   50.00000   90.00000   90.00000   90.00000
LATT -1
SFAC C  
C      1  0.5984480000000  0.4781060000000  0.5495300000000 1.0
C      1  0.5769990000000  0.4667130000000  0.4888360000000 1.0
C      1  0.5221060000000  0.3928260000000  0.5051360000000 1.0
C      1  0.4679910000000  0.5618490000000  0.5354800000000 1.0
C      1  0.3939890000000  0.4450500000000  0.5293300000000 1.0
C      1  0.4317340000000  0.4569490000000  0.4115930000000 1.0
C      1  0.5883120000000  0.5046610000000  0.5562740000000 1.0
C      1  0.5011080000000  0.6127920000000  0.4806120000000 1.0
C      1  0.6480350000000  0.5730220000000  0.4532300000000 1.0
C      1  0.4066990000000  0.5209380000000  0.4575960000000 1.0
C      1  0.4693580000000  0.5231820000000  0.4539510000000 1.0
C      1  0.6730210000000  0.5699880000000  0.4392790000000 1.0
C      1  0.6327110000000  0.5828180000000  0.4750740000000 1.0
C      1  0.4676370000000  0.4249360000000  0.4007710000000 1.0
C      1  0.4905760000000  0.4164620000000  0.5974130000000 1.0
C      1  0.3888450000000  0.4127960000000  0.4883050000000 1.0
C      1  0.5505490000000  0.5314300000000  0.5358520000000 1.0
C      1  0.5428780000000  0.4683520000000  0.5271380000000 1.0
C      1  0.4526710000000  0.3952470000000  0.5317990000000 1.0
C      1  0.5668780000000  0.5450840000000  0.4091760000000 1.0
C      1  0.4860120000000  0.3888380000000  0.4335800000000 1.0
C      1  0.4766880000000  0.4496350000000  0.5017590000000 1.0
C      1  0.4787830000000  0.4689940000000  0.5485140000000 1.0
C      1  0.5770640000000  0.4302700000000  0.5486520000000 1.0
C      1  0.5561380000000  0.5883470000000  0.3784920000000 1.0
C      1  0.4771780000000  0.4892290000000  0.5279110000000 1.0
C      1  0.5353920000000  0.3973770000000  0.4550430000000 1.0
C      1  0.5018500000000  0.4430150000000  0.5938500000000 1.0
C      1  0.5197750000000  0.5928710000000  0.4740400000000 1.0
C      1  0.5598350000000  0.5195460000000  0.3993670000000 1.0
C      1  0.5329330000000  0.4740490000000  0.3955270000000 1.0
C      1  0.4175570000000  0.5317520000000  0.4350030000000 1.0
C      1  0.4565210000000  0.5635310000000  0.4337400000000 1.0
C      1  0.5650470000000  0.5965330000000  0.4956200000000 1.0
C      1  0.5112890000000  0.5654130000000  0.4742380000000 1.0
C      1  0.4591950000000  0.4522600000000  0.4029690000000 1.0
C      1  0.5889390000000  0.5228850000000  0.6042200000000 1.0
C      1  0.4319070000000  0.5628670000000  0.4469020000000 1.0
C      1  0.5148470000000  0.3933380000000  0.4752600000000 1.0
C      1  0.4502950000000  0.4717500000000  0.5872400000000 1.0
C      1  0.5281610000000  0.4572320000000  0.4638200000000 1.0
C      1  0.5820410000000  0.4622380000000  0.4629510000000 1.0
C      1  0.4079730000000  0.4159660000000  0.4397800000000 1.0
C      1  0.5162010000000  0.5227290000000  0.4436970000000 1.0
C      1  0.4783330000000  0.5330140000000  0.4034720000000 1.0
C      1  0.4481060000000  0.5445730000000  0.5389880000000 1.0
C      1  0.4948710000000  0.4922740000000  0.4841420000000 1.0
C      1  0.4618440000000  0.4742180000000  0.4524700000000 1.0
C      1  0.3940450000000  0.4967130000000  0.4961530000000 1.0
C      1  0.4935730000000  0.3958070000000  0.5789680000000 1.0
C      1  0.6046720000000  0.5747950000000  0.4741410000000 1.0
C      1  0.5502460000000  0.4731350000000  0.6263270000000 1.0
C      1  0.5798510000000  0.5501540000000  0.4338140000000 1.0
C      1  0.4883750000000  0.5320620000000  0.5927160000000 1.0
C      1  0.5617460000000  0.5079760000000  0.5457250000000 1.0
C      1  0.4654770000000  0.5150360000000  0.6008930000000 1.0
C      1  0.4283200000000  0.4895900000000  0.5825430000000 1.0
C      1  0.4817050000000  0.4843840000000  0.4325930000000 1.0
C      1  0.4124700000000  0.4564950000000  0.5478070000000 1.0
C      1  0.4330480000000  0.5251880000000  0.5257530000000 1.0
C      1  0.6694180000000  0.5547370000000  0.4163290000000 1.0
C      1  0.4740530000000  0.4214820000000  0.4639450000000 1.0
C      1  0.5557350000000  0.5367050000000  0.6385980000000 1.0
C      1  0.5887240000000  0.5806850000000  0.4966590000000 1.0
C      1  0.5192770000000  0.4394080000000  0.4808440000000 1.0
C      1  0.5406730000000  0.4803180000000  0.5787430000000 1.0
C      1  0.4723470000000  0.5990120000000  0.5599560000000 1.0
C      1  0.5130670000000  0.5513500000000  0.4488680000000 1.0
C      1  0.3844610000000  0.5425970000000  0.5494290000000 1.0
C      1  0.5156070000000  0.4904060000000  0.5873700000000 1.0
C      1  0.4842720000000  0.5818780000000  0.5778850000000 1.0
C      1  0.4395930000000  0.4838660000000  0.4712520000000 1.0
C      1  0.4202210000000  0.5038370000000  0.5382460000000 1.0
C      1  0.3970610000000  0.4072940000000  0.4629130000000 1.0
C      1  0.5676170000000  0.5399850000000  0.6136590000000 1.0
C      1  0.4655950000000  0.5363100000000  0.4291900000000 1.0
C      1  0.4894420000000  0.3980690000000  0.4605480000000 1.0
C      1  0.4187320000000  0.5370980000000  0.5880400000000 1.0
C      1  0.5295680000000  0.4167670000000  0.5572870000000 1.0
C      1  0.5681010000000  0.4626450000000  0.5148730000000 1.0
C      1  0.4880710000000  0.5158160000000  0.5273620000000 1.0
C      1  0.5414410000000  0.4609620000000  0.4195500000000 1.0
C      1  0.4597350000000  0.6089440000000  0.5066640000000 1.0
C      1  0.4168240000000  0.4816970000000  0.4178810000000 1.0
C      1  0.4367380000000  0.4415520000000  0.5524610000000 1.0
C      1  0.4678590000000  0.5202090000000  0.3812710000000 1.0
C      1  0.4883260000000  0.5712120000000  0.5202790000000 1.0
C      1  0.4814350000000  0.5166870000000  0.4782010000000 1.0
C      1  0.5612900000000  0.5672300000000  0.3928700000000 1.0
C      1  0.4193040000000  0.5066860000000  0.4805630000000 1.0
C      1  0.5431740000000  0.4129910000000  0.4342400000000 1.0
C      1  0.3563510000000  0.5268280000000  0.4851010000000 1.0
C      1  0.4756780000000  0.3847940000000  0.5231080000000 1.0
C      1  0.4150050000000  0.4840780000000  0.5573900000000 1.0
C      1  0.5401580000000  0.5825170000000  0.5355230000000 1.0
C      1  0.5559990000000  0.4672220000000  0.5994250000000 1.0
C      1  0.5055950000000  0.5148870000000  0.5768030000000 1.0
C      1  0.4979660000000  0.5569240000000  0.4980420000000 1.0
C      1  0.5182990000000  0.4548320000000  0.5247980000000 1.0
C      1  0.4219850000000  0.5105790000000  0.4156300000000 1.0
C      1  0.4275170000000  0.5299380000000  0.4984190000000 1.0
C      1  0.3656680000000  0.5529500000000  0.4818330000000 1.0
C      1  0.5529330000000  0.4156470000000  0.5399890000000 1.0
C      1  0.3911570000000  0.4376380000000  0.5019910000000 1.0
C      1  0.5030410000000  0.5666480000000  0.4259450000000 1.0
C      1  0.4712110000000  0.4847310000000  0.6023290000000 1.0
C      1  0.4016620000000  0.4568960000000  0.4838130000000 1.0
C      1  0.5280530000000  0.4734740000000  0.4415710000000 1.0
C      1  0.4783920000000  0.5817100000000  0.4305400000000 1.0
C      1  0.4772380000000  0.4022300000000  0.4116590000000 1.0
C      1  0.5740500000000  0.4464340000000  0.5946580000000 1.0
C      1  0.4659540000000  0.4454770000000  0.4551330000000 1.0
C      1  0.4761490000000  0.6087330000000  0.4285030000000 1.0
C      1  0.6015520000000  0.5599490000000  0.4486560000000 1.0
C      1  0.6427220000000  0.5472890000000  0.4141960000000 1.0
C      1  0.5032730000000  0.3882430000000  0.5274610000000 1.0
C      1  0.4796500000000  0.4776670000000  0.5024560000000 1.0
C      1  0.6276500000000  0.5578540000000  0.4364530000000 1.0
C      1  0.5467250000000  0.5156280000000  0.6524400000000 1.0
C      1  0.5398820000000  0.5558100000000  0.5361790000000 1.0
C      1  0.5474320000000  0.5981900000000  0.4738630000000 1.0
C      1  0.5101510000000  0.3954650000000  0.5550310000000 1.0
C      1  0.5491580000000  0.4015780000000  0.5143640000000 1.0
C      1  0.5566070000000  0.4376000000000  0.4281450000000 1.0
C      1  0.4574700000000  0.4576210000000  0.5636110000000 1.0
C      1  0.3811810000000  0.5375660000000  0.5221760000000 1.0
C      1  0.5801630000000  0.4407020000000  0.4448550000000 1.0
C      1  0.5919300000000  0.4168100000000  0.4548520000000 1.0
C      1  0.4795160000000  0.6252990000000  0.4935830000000 1.0
C      1  0.4297910000000  0.4601860000000  0.4859820000000 1.0
C      1  0.5676650000000  0.5227170000000  0.4824550000000 1.0
C      1  0.5797560000000  0.5517340000000  0.5702490000000 1.0
C      1  0.4871790000000  0.5311360000000  0.5019690000000 1.0
C      1  0.4186880000000  0.4330360000000  0.4218580000000 1.0
C      1  0.4579200000000  0.5112960000000  0.3588820000000 1.0
C      1  0.5289760000000  0.5618520000000  0.5902480000000 1.0
C      1  0.4149290000000  0.5552390000000  0.4917270000000 1.0
C      1  0.5007720000000  0.5506660000000  0.4021930000000 1.0
C      1  0.3893470000000  0.4649430000000  0.4595310000000 1.0
C      1  0.5874100000000  0.4018330000000  0.4767210000000 1.0
C      1  0.5572640000000  0.5554660000000  0.5907100000000 1.0
C      1  0.5903480000000  0.5664530000000  0.5485800000000 1.0
C      1  0.4431150000000  0.5935430000000  0.4886040000000 1.0
C      1  0.4368070000000  0.5161000000000  0.5923720000000 1.0
C      1  0.4492900000000  0.4433500000000  0.4982840000000 1.0
C      1  0.5227020000000  0.4960060000000  0.4874410000000 1.0
C      1  0.5957980000000  0.5717010000000  0.5227840000000 1.0
C      1  0.5828060000000  0.4291920000000  0.5762190000000 1.0
C      1  0.4803680000000  0.4714080000000  0.4064360000000 1.0
C      1  0.3946750000000  0.4755910000000  0.4353620000000 1.0
C      1  0.5043800000000  0.4415670000000  0.5039100000000 1.0
C      1  0.5461030000000  0.4850130000000  0.5507130000000 1.0
C      1  0.5930330000000  0.5251730000000  0.5757280000000 1.0
C      1  0.3984680000000  0.5446350000000  0.5721480000000 1.0
C      1  0.4770810000000  0.6525500000000  0.4936820000000 1.0
C      1  0.4968720000000  0.4719670000000  0.5997870000000 1.0
C      1  0.5474060000000  0.4977360000000  0.3898320000000 1.0
C      1  0.5455330000000  0.5095700000000  0.4864510000000 1.0
C      1  0.5861990000000  0.4549390000000  0.5358880000000 1.0
C      1  0.3878140000000  0.5573880000000  0.5004230000000 1.0
C      1  0.5524820000000  0.6011690000000  0.5206520000000 1.0
C      1  0.4993270000000  0.5598790000000  0.5895490000000 1.0
C      1  0.5158590000000  0.4399670000000  0.5684270000000 1.0
C      1  0.5041290000000  0.5209850000000  0.5495220000000 1.0
C      1  0.4291440000000  0.5726330000000  0.4743800000000 1.0
C      1  0.5453260000000  0.4895360000000  0.6467190000000 1.0
C      1  0.5045760000000  0.4719530000000  0.3909170000000 1.0
C      1  0.5715640000000  0.3972340000000  0.4977490000000 1.0
C      1  0.3727740000000  0.5136360000000  0.5056140000000 1.0
C      1  0.4619160000000  0.6074970000000  0.5358410000000 1.0
C      1  0.5036280000000  0.4554250000000  0.5485280000000 1.0
C      1  0.5088060000000  0.4948960000000  0.4388350000000 1.0
C      1  0.4402360000000  0.4150530000000  0.5445490000000 1.0
END
