TITL C-3866673-4222-715 13925.3777536403 125000 -566.292277029511 0 0 94 (C1) n - 1
REM
REM in /home/nfs/bkarasulu/CARBON/AIRSS/Generating-Clusters/LCBOP/Only-C1/SD-CG/FIRE-CG
REM
REM
REM
REM
REM
REM ./C.cell (11c1c37f851c82e70ff6c80c92926a4b)
REM AIRSS Version 0.9.1 bugfix July 2018 build 013d7b7c2542+ Fri, 06 Jul 2018 19:26:36 +0100
REM compiler GCC version 9.2.1 20190827 (Red Hat 9.2.1-1)
REM options -cpp -mtune=generic -march=x86-64 -g -O0 -fpre-include=/usr/include/finclude/math-vector-fortran.h
REM seed -94945485 1111357330 -1872021085 -1760486962 -1003297690 711598546 -1807639929 1451693504 -1054495571 991500045 945410197 2124676792 595449370 1099914053 1743922163 -659220513 1046514608 1551009594 629596426 95797812 46581633 1409534099 157998585 -58010934 -1122916502 -1781192291 121564905 1891534117 573326409 1030549045 824290349 -208863055 -603577065
REM
CELL 1.54180   50.00000   50.00000   50.00000   90.00000   90.00000   90.00000
LATT -1
SFAC C  
C      1  0.5316370000000  0.4282740000000  0.5542360000000 1.0
C      1  0.5115610000000  0.5490940000000  0.4034280000000 1.0
C      1  0.5023910000000  0.5907830000000  0.5518680000000 1.0
C      1  0.4901610000000  0.5370480000000  0.4540420000000 1.0
C      1  0.5473030000000  0.5790360000000  0.4965000000000 1.0
C      1  0.5007330000000  0.4899460000000  0.3713610000000 1.0
C      1  0.4634380000000  0.4444780000000  0.4477270000000 1.0
C      1  0.5752980000000  0.5454580000000  0.4772870000000 1.0
C      1  0.5313670000000  0.5026580000000  0.4720080000000 1.0
C      1  0.5394430000000  0.5467420000000  0.4423720000000 1.0
C      1  0.4391880000000  0.4825300000000  0.5714820000000 1.0
C      1  0.4108880000000  0.5039550000000  0.5000100000000 1.0
C      1  0.4747430000000  0.5559410000000  0.4374790000000 1.0
C      1  0.5744070000000  0.4957710000000  0.5506840000000 1.0
C      1  0.5403920000000  0.5044910000000  0.5899360000000 1.0
C      1  0.4689500000000  0.5776260000000  0.4832170000000 1.0
C      1  0.5076440000000  0.4913240000000  0.4792500000000 1.0
C      1  0.5281370000000  0.4049490000000  0.5381820000000 1.0
C      1  0.4877670000000  0.5341360000000  0.5831360000000 1.0
C      1  0.4854700000000  0.4827290000000  0.5849340000000 1.0
C      1  0.5330480000000  0.5242690000000  0.5706710000000 1.0
C      1  0.4485020000000  0.4673400000000  0.5271680000000 1.0
C      1  0.5118900000000  0.5789360000000  0.4632260000000 1.0
C      1  0.4602360000000  0.4680580000000  0.5868500000000 1.0
C      1  0.5157800000000  0.5518540000000  0.4563700000000 1.0
C      1  0.5342140000000  0.5368250000000  0.4156780000000 1.0
C      1  0.5774310000000  0.4897390000000  0.4583860000000 1.0
C      1  0.5383140000000  0.4771790000000  0.5818980000000 1.0
C      1  0.5218670000000  0.4677640000000  0.5234360000000 1.0
C      1  0.4372770000000  0.5201980000000  0.5399270000000 1.0
C      1  0.4763180000000  0.4667050000000  0.5313920000000 1.0
C      1  0.4548860000000  0.5646110000000  0.5054020000000 1.0
C      1  0.4918880000000  0.4455540000000  0.4397930000000 1.0
C      1  0.4904520000000  0.5430970000000  0.5275300000000 1.0
C      1  0.4369750000000  0.5437280000000  0.4954660000000 1.0
C      1  0.4342330000000  0.4639180000000  0.5509510000000 1.0
C      1  0.4765990000000  0.5835700000000  0.5471410000000 1.0
C      1  0.5669980000000  0.5095910000000  0.4401600000000 1.0
C      1  0.5495550000000  0.5057870000000  0.4940080000000 1.0
C      1  0.4280180000000  0.4900810000000  0.4536970000000 1.0
C      1  0.4452910000000  0.4644970000000  0.4985090000000 1.0
C      1  0.4874820000000  0.4211820000000  0.4827050000000 1.0
C      1  0.4609840000000  0.4267220000000  0.4707570000000 1.0
C      1  0.4570840000000  0.5135770000000  0.4238420000000 1.0
C      1  0.5640310000000  0.5363220000000  0.4530610000000 1.0
C      1  0.4426700000000  0.4655570000000  0.4446720000000 1.0
C      1  0.4104770000000  0.4911680000000  0.4761130000000 1.0
C      1  0.5767390000000  0.5223990000000  0.5407920000000 1.0
C      1  0.5594820000000  0.4709390000000  0.5616940000000 1.0
C      1  0.5674350000000  0.5492200000000  0.5296940000000 1.0
C      1  0.5461350000000  0.5098750000000  0.4176920000000 1.0
C      1  0.4948350000000  0.4472990000000  0.4917140000000 1.0
C      1  0.5667810000000  0.5581450000000  0.5011420000000 1.0
C      1  0.5208820000000  0.4494580000000  0.4440810000000 1.0
C      1  0.5279350000000  0.4888660000000  0.4112370000000 1.0
C      1  0.5024460000000  0.4940110000000  0.3985150000000 1.0
C      1  0.5323600000000  0.5139990000000  0.5437490000000 1.0
C      1  0.4379310000000  0.5417700000000  0.4651050000000 1.0
C      1  0.5246030000000  0.5828890000000  0.5363200000000 1.0
C      1  0.5535070000000  0.4471070000000  0.5453300000000 1.0
C      1  0.5481930000000  0.5672140000000  0.5438300000000 1.0
C      1  0.4980400000000  0.4555450000000  0.5181160000000 1.0
C      1  0.5387290000000  0.4474300000000  0.4677720000000 1.0
C      1  0.5131760000000  0.5419980000000  0.5794650000000 1.0
C      1  0.4682450000000  0.4157210000000  0.5383360000000 1.0
C      1  0.5683340000000  0.4841840000000  0.4857020000000 1.0
C      1  0.5209450000000  0.5853610000000  0.5073960000000 1.0
C      1  0.4750240000000  0.5189970000000  0.4727450000000 1.0
C      1  0.4702270000000  0.5627080000000  0.5291650000000 1.0
C      1  0.4506440000000  0.4188850000000  0.5175380000000 1.0
C      1  0.5552040000000  0.4580340000000  0.4904320000000 1.0
C      1  0.5346600000000  0.5211900000000  0.5156580000000 1.0
C      1  0.4589820000000  0.4429320000000  0.5752690000000 1.0
C      1  0.4941900000000  0.5135880000000  0.4917770000000 1.0
C      1  0.4887760000000  0.4711240000000  0.4775830000000 1.0
C      1  0.4386640000000  0.5165610000000  0.4460350000000 1.0
C      1  0.5104520000000  0.4660360000000  0.5807300000000 1.0
C      1  0.4790200000000  0.5028090000000  0.4122080000000 1.0
C      1  0.4628730000000  0.4827210000000  0.4814890000000 1.0
C      1  0.4562350000000  0.5653080000000  0.4576570000000 1.0
C      1  0.4271930000000  0.5232370000000  0.5130860000000 1.0
C      1  0.5323960000000  0.4635920000000  0.4223990000000 1.0
C      1  0.5172860000000  0.3953420000000  0.5155230000000 1.0
C      1  0.5072150000000  0.5292280000000  0.5101610000000 1.0
C      1  0.4980220000000  0.5849710000000  0.4875900000000 1.0
C      1  0.4875590000000  0.5591930000000  0.4122710000000 1.0
C      1  0.5072790000000  0.4391380000000  0.5672230000000 1.0
C      1  0.4793890000000  0.4292360000000  0.5612700000000 1.0
C      1  0.4754190000000  0.5099860000000  0.5763950000000 1.0
C      1  0.5017330000000  0.3999070000000  0.4940050000000 1.0
C      1  0.5205320000000  0.4887170000000  0.5413300000000 1.0
C      1  0.5466760000000  0.4548530000000  0.5178590000000 1.0
C      1  0.4452850000000  0.4349740000000  0.4936870000000 1.0
C      1  0.4489190000000  0.5085040000000  0.5632830000000 1.0
END
