TITL C-3866670-4165-715 0.720475389847768 125000 -565.399610622096 0 0 94 (C1) n - 1
REM
REM in /home/nfs/bkarasulu/CARBON/AIRSS/Generating-Clusters/LCBOP/Only-C1/SD-CG/FIRE-CG
REM
REM
REM
REM
REM
REM ./C.cell (11c1c37f851c82e70ff6c80c92926a4b)
REM AIRSS Version 0.9.1 bugfix July 2018 build 013d7b7c2542+ Fri, 06 Jul 2018 19:26:36 +0100
REM compiler GCC version 9.2.1 20190827 (Red Hat 9.2.1-1)
REM options -cpp -mtune=generic -march=x86-64 -g -O0 -fpre-include=/usr/include/finclude/math-vector-fortran.h
REM seed -1138112365 -1254207936 -1929288608 -591963804 812138142 -1303925416 -1676102638 -1805931792 -1863839138 685720049 -2093331797 1407513978 -1762336433 -1461943112 -884283650 1520184671 -382203310 443276981 -248466153 209757666 883489532 228781184 -474396370 176977071 -1177164675 -373546540 428264674 -982467266 -78715038 1732294695 1014699341 2108767517 -2017964965
REM
CELL 1.54180   50.00000   50.00000   50.00000   90.00000   90.00000   90.00000
LATT -1
SFAC C  
C      1  0.4456850000000  0.5468390000000  0.4140910000000 1.0
C      1  0.5919890000000  0.5270700000000  0.4820610000000 1.0
C      1  0.4961410000000  0.5401360000000  0.6139040000000 1.0
C      1  0.4666280000000  0.5840370000000  0.5483660000000 1.0
C      1  0.5269230000000  0.5558970000000  0.4454830000000 1.0
C      1  0.4852270000000  0.5030220000000  0.3449070000000 1.0
C      1  0.5315180000000  0.5127130000000  0.5519420000000 1.0
C      1  0.5453540000000  0.5390050000000  0.4352920000000 1.0
C      1  0.4321810000000  0.4587320000000  0.5363620000000 1.0
C      1  0.6863620000000  0.4794600000000  0.4381000000000 1.0
C      1  0.5782880000000  0.4827920000000  0.3757530000000 1.0
C      1  0.5453090000000  0.4245500000000  0.5247890000000 1.0
C      1  0.4528910000000  0.5145250000000  0.5345620000000 1.0
C      1  0.5428860000000  0.5805600000000  0.5430040000000 1.0
C      1  0.5277150000000  0.5636730000000  0.5606220000000 1.0
C      1  0.4418170000000  0.4693230000000  0.4471890000000 1.0
C      1  0.4518620000000  0.5111310000000  0.5081490000000 1.0
C      1  0.4802590000000  0.5017020000000  0.3193490000000 1.0
C      1  0.4286390000000  0.4423030000000  0.5991110000000 1.0
C      1  0.4688610000000  0.4275160000000  0.5218770000000 1.0
C      1  0.5108850000000  0.4314090000000  0.4857620000000 1.0
C      1  0.5409980000000  0.5744560000000  0.5147750000000 1.0
C      1  0.4863720000000  0.4917940000000  0.5595580000000 1.0
C      1  0.4364080000000  0.4167870000000  0.5987670000000 1.0
C      1  0.5537720000000  0.4667360000000  0.4349090000000 1.0
C      1  0.6618370000000  0.4800960000000  0.4280660000000 1.0
C      1  0.4599700000000  0.4520830000000  0.5345680000000 1.0
C      1  0.4077230000000  0.5258020000000  0.4866840000000 1.0
C      1  0.4462190000000  0.3975670000000  0.5830680000000 1.0
C      1  0.5321110000000  0.4977410000000  0.4913740000000 1.0
C      1  0.5390740000000  0.4483720000000  0.5701130000000 1.0
C      1  0.4657160000000  0.5884980000000  0.5206400000000 1.0
C      1  0.5463380000000  0.4320530000000  0.5503280000000 1.0
C      1  0.5272030000000  0.4712290000000  0.5771810000000 1.0
C      1  0.5006560000000  0.5071580000000  0.4227890000000 1.0
C      1  0.4648340000000  0.4572350000000  0.4409130000000 1.0
C      1  0.4887970000000  0.5921040000000  0.5644810000000 1.0
C      1  0.3729890000000  0.4791660000000  0.5241970000000 1.0
C      1  0.5219910000000  0.5388940000000  0.5474880000000 1.0
C      1  0.5988160000000  0.4833900000000  0.5558420000000 1.0
C      1  0.4686490000000  0.5145030000000  0.5582760000000 1.0
C      1  0.4594950000000  0.5126300000000  0.4825980000000 1.0
C      1  0.4953520000000  0.5058300000000  0.3968540000000 1.0
C      1  0.4634130000000  0.4036590000000  0.5355980000000 1.0
C      1  0.5613370000000  0.5588390000000  0.5027550000000 1.0
C      1  0.5655580000000  0.4894010000000  0.4219310000000 1.0
C      1  0.3933890000000  0.5213780000000  0.5107970000000 1.0
C      1  0.5766510000000  0.4932840000000  0.5463580000000 1.0
C      1  0.6371720000000  0.4810290000000  0.4184260000000 1.0
C      1  0.4544370000000  0.5335870000000  0.4347670000000 1.0
C      1  0.5107430000000  0.5047230000000  0.4473190000000 1.0
C      1  0.4234180000000  0.4768330000000  0.4671350000000 1.0
C      1  0.4904580000000  0.5500330000000  0.5885840000000 1.0
C      1  0.5075260000000  0.5669570000000  0.4606680000000 1.0
C      1  0.4892800000000  0.4473530000000  0.4452820000000 1.0
C      1  0.5073760000000  0.5431000000000  0.5232440000000 1.0
C      1  0.5143550000000  0.5659010000000  0.5077810000000 1.0
C      1  0.5054210000000  0.5719750000000  0.5763710000000 1.0
C      1  0.5079740000000  0.4962920000000  0.5056490000000 1.0
C      1  0.4967560000000  0.5210510000000  0.5108430000000 1.0
C      1  0.4903000000000  0.5043740000000  0.3708870000000 1.0
C      1  0.4117380000000  0.5026760000000  0.4701740000000 1.0
C      1  0.4541380000000  0.5608220000000  0.5593460000000 1.0
C      1  0.4692910000000  0.5397210000000  0.5718380000000 1.0
C      1  0.5687850000000  0.5321420000000  0.4967110000000 1.0
C      1  0.4240230000000  0.4639460000000  0.5842550000000 1.0
C      1  0.4449890000000  0.5654650000000  0.4840020000000 1.0
C      1  0.4135940000000  0.4534870000000  0.5149410000000 1.0
C      1  0.5336920000000  0.4248250000000  0.5008030000000 1.0
C      1  0.4984190000000  0.4736160000000  0.5179370000000 1.0
C      1  0.7104690000000  0.4788650000000  0.4480080000000 1.0
C      1  0.4808080000000  0.4709170000000  0.5398240000000 1.0
C      1  0.4218740000000  0.4743950000000  0.5584130000000 1.0
C      1  0.4558440000000  0.3926670000000  0.5586750000000 1.0
C      1  0.4964000000000  0.5719810000000  0.4862900000000 1.0
C      1  0.6121620000000  0.4827220000000  0.4098700000000 1.0
C      1  0.5531130000000  0.5101920000000  0.5065310000000 1.0
C      1  0.5022330000000  0.5291880000000  0.6367540000000 1.0
C      1  0.4609050000000  0.5215450000000  0.4575540000000 1.0
C      1  0.6143340000000  0.5222180000000  0.4695610000000 1.0
C      1  0.5338770000000  0.4645280000000  0.4548550000000 1.0
C      1  0.3856620000000  0.4554780000000  0.5200740000000 1.0
C      1  0.5147060000000  0.4938410000000  0.5659980000000 1.0
C      1  0.4858710000000  0.4278150000000  0.4991100000000 1.0
C      1  0.4062490000000  0.4972960000000  0.5521270000000 1.0
C      1  0.5277310000000  0.4905870000000  0.4646980000000 1.0
C      1  0.5579520000000  0.5162940000000  0.4279160000000 1.0
C      1  0.4208570000000  0.4585870000000  0.4884170000000 1.0
C      1  0.5130550000000  0.4452420000000  0.4605770000000 1.0
C      1  0.4229680000000  0.5497460000000  0.4832460000000 1.0
C      1  0.5854110000000  0.4849170000000  0.4020830000000 1.0
C      1  0.4688130000000  0.5768380000000  0.4947550000000 1.0
C      1  0.5537700000000  0.5047180000000  0.5351590000000 1.0
C      1  0.3879620000000  0.5024290000000  0.5309590000000 1.0
END
