TITL C-3866674-3872-223 -1.32969492437221e-05 125000 -125.09190779828 0 0 22 (C1) n - 1
REM
REM in /home/nfs/bkarasulu/CARBON/AIRSS/Generating-Clusters/LCBOP/Only-C1/SD-CG/HFTN-CG/FIRE-CG
REM
REM
REM
REM
REM
REM ./C.cell (11c1c37f851c82e70ff6c80c92926a4b)
REM AIRSS Version 0.9.1 bugfix July 2018 build 013d7b7c2542+ Fri, 06 Jul 2018 19:26:36 +0100
REM compiler GCC version 9.2.1 20190827 (Red Hat 9.2.1-1)
REM options -cpp -mtune=generic -march=x86-64 -g -O0 -fpre-include=/usr/include/finclude/math-vector-fortran.h
REM seed 1465165899 -1946530391 1120304157 -908996822 1308220151 -245449348 211973863 1576212835 -1336692123 952380895 1529009112 1601001599 1291114092 -1015507137 -580759886 -1176679019 1216310610 1065925498 396687441 -520189480 -465321275 1412281021 295489765 -814619685 1558122791 -1402806682 -2026907158 -743596739 -602071835 -994156760 145457784 -2052346445 -1549243522
REM
CELL 1.54180   50.00000   50.00000   50.00000   90.00000   90.00000   90.00000
LATT -1
SFAC C  
C      1  0.5087180000000  0.5223360000000  0.4736540000000 1.0
C      1  0.4707280000000  0.5455730000000  0.5224160000000 1.0
C      1  0.4545990000000  0.4936930000000  0.5744310000000 1.0
C      1  0.4990670000000  0.5482710000000  0.4777410000000 1.0
C      1  0.5133760000000  0.4947660000000  0.4740050000000 1.0
C      1  0.5028390000000  0.4745390000000  0.5184330000000 1.0
C      1  0.5337600000000  0.4837680000000  0.4572500000000 1.0
C      1  0.5054460000000  0.5688260000000  0.4600090000000 1.0
C      1  0.4757510000000  0.4642220000000  0.4791760000000 1.0
C      1  0.5554560000000  0.4708440000000  0.4695380000000 1.0
C      1  0.5510760000000  0.4560550000000  0.5163320000000 1.0
C      1  0.4828690000000  0.5530680000000  0.5000290000000 1.0
C      1  0.5114720000000  0.5879440000000  0.4433530000000 1.0
C      1  0.4651120000000  0.5273720000000  0.5409210000000 1.0
C      1  0.4555610000000  0.4516590000000  0.4685170000000 1.0
C      1  0.5630250000000  0.4596710000000  0.4926220000000 1.0
C      1  0.5319310000000  0.4855040000000  0.4300290000000 1.0
C      1  0.4973220000000  0.4778940000000  0.4905580000000 1.0
C      1  0.5269090000000  0.4622480000000  0.5259750000000 1.0
C      1  0.4848840000000  0.4838980000000  0.5376380000000 1.0
C      1  0.4420820000000  0.4862970000000  0.5960620000000 1.0
C      1  0.4680170000000  0.5015530000000  0.5513100000000 1.0
END
