TITL C-3866671-3735-361 0.230230901935607 125000 -477.212068593963 0 0 79 (C1) n - 1
REM
REM in /home/nfs/bkarasulu/CARBON/AIRSS/Generating-Clusters/LCBOP/Only-C1/SD-CG/FIRE-CG
REM
REM
REM
REM
REM
REM ./C.cell (11c1c37f851c82e70ff6c80c92926a4b)
REM AIRSS Version 0.9.1 bugfix July 2018 build 013d7b7c2542+ Fri, 06 Jul 2018 19:26:36 +0100
REM compiler GCC version 9.2.1 20190827 (Red Hat 9.2.1-1)
REM options -cpp -mtune=generic -march=x86-64 -g -O0 -fpre-include=/usr/include/finclude/math-vector-fortran.h
REM seed -1029837541 -609234838 -2009902820 -394427391 -1706402098 1148613206 407211814 -1418040091 1204372155 979576795 1346834285 1124076968 -1526255 1433628834 -764063050 309373600 -740396635 -2030842324 -179041326 -1745371693 2047104889 -66566290 997970159 -1631114480 244105915 -1543369119 1764042902 -1475099285 -698777150 -189406536 -1334697302 -1925321134 -254510844
REM
CELL 1.54180   50.00000   50.00000   50.00000   90.00000   90.00000   90.00000
LATT -1
SFAC C  
C      1  0.4941190000000  0.5138830000000  0.4004630000000 1.0
C      1  0.5326530000000  0.5320970000000  0.4636440000000 1.0
C      1  0.5150850000000  0.5309460000000  0.4400140000000 1.0
C      1  0.4830870000000  0.5497150000000  0.4695370000000 1.0
C      1  0.5408810000000  0.4336850000000  0.5088920000000 1.0
C      1  0.4636550000000  0.4853460000000  0.4678740000000 1.0
C      1  0.4676050000000  0.4691340000000  0.5598840000000 1.0
C      1  0.5151080000000  0.5098890000000  0.4200370000000 1.0
C      1  0.5634690000000  0.4939200000000  0.5472850000000 1.0
C      1  0.5073980000000  0.3994120000000  0.4657400000000 1.0
C      1  0.4887680000000  0.5446570000000  0.4428580000000 1.0
C      1  0.4430200000000  0.4550720000000  0.5523670000000 1.0
C      1  0.5619310000000  0.5210690000000  0.5370440000000 1.0
C      1  0.5391920000000  0.5376400000000  0.5396720000000 1.0
C      1  0.5493640000000  0.4779890000000  0.5667440000000 1.0
C      1  0.5507530000000  0.4526040000000  0.4621880000000 1.0
C      1  0.4944630000000  0.4337600000000  0.5305950000000 1.0
C      1  0.4145280000000  0.5071150000000  0.5029760000000 1.0
C      1  0.4636060000000  0.5371970000000  0.4303430000000 1.0
C      1  0.5192850000000  0.5303520000000  0.4895860000000 1.0
C      1  0.4633560000000  0.5655750000000  0.4819680000000 1.0
C      1  0.5424990000000  0.4869030000000  0.5923740000000 1.0
C      1  0.4825360000000  0.4039740000000  0.4745950000000 1.0
C      1  0.4670560000000  0.5399490000000  0.5915490000000 1.0
C      1  0.4397190000000  0.5377180000000  0.4486530000000 1.0
C      1  0.5195140000000  0.4823120000000  0.4277150000000 1.0
C      1  0.4955060000000  0.5896000000000  0.5425700000000 1.0
C      1  0.4688420000000  0.4188250000000  0.4921900000000 1.0
C      1  0.5098570000000  0.4735280000000  0.4713230000000 1.0
C      1  0.4804420000000  0.4541590000000  0.4084880000000 1.0
C      1  0.5371300000000  0.5550860000000  0.5605210000000 1.0
C      1  0.4730470000000  0.4382530000000  0.5120820000000 1.0
C      1  0.5453640000000  0.4308810000000  0.4803340000000 1.0
C      1  0.5049880000000  0.5042970000000  0.5717940000000 1.0
C      1  0.6232850000000  0.4770100000000  0.4383880000000 1.0
C      1  0.4853380000000  0.4725960000000  0.4558650000000 1.0
C      1  0.4405860000000  0.5099230000000  0.5427270000000 1.0
C      1  0.4006440000000  0.5056410000000  0.4549040000000 1.0
C      1  0.5518040000000  0.5697650000000  0.5028810000000 1.0
C      1  0.4779280000000  0.5137350000000  0.5049150000000 1.0
C      1  0.5175850000000  0.4210090000000  0.5198920000000 1.0
C      1  0.5001840000000  0.5870120000000  0.5148090000000 1.0
C      1  0.5334140000000  0.4574380000000  0.5527070000000 1.0
C      1  0.4576080000000  0.4978190000000  0.5631700000000 1.0
C      1  0.4980980000000  0.4524430000000  0.5524290000000 1.0
C      1  0.4761140000000  0.5842450000000  0.4990500000000 1.0
C      1  0.4757230000000  0.5638480000000  0.5834690000000 1.0
C      1  0.4690170000000  0.5236020000000  0.4059400000000 1.0
C      1  0.5275770000000  0.5824730000000  0.5061260000000 1.0
C      1  0.5193240000000  0.5006170000000  0.5942120000000 1.0
C      1  0.5195240000000  0.5340970000000  0.5191410000000 1.0
C      1  0.4929560000000  0.4684390000000  0.4284650000000 1.0
C      1  0.4168940000000  0.5223820000000  0.4415840000000 1.0
C      1  0.4912640000000  0.5286130000000  0.4850090000000 1.0
C      1  0.5141290000000  0.4764260000000  0.4985120000000 1.0
C      1  0.5681060000000  0.4767600000000  0.5228830000000 1.0
C      1  0.4397180000000  0.5484150000000  0.4774960000000 1.0
C      1  0.5122250000000  0.4826100000000  0.5243660000000 1.0
C      1  0.4407020000000  0.5351800000000  0.5281560000000 1.0
C      1  0.5503790000000  0.4536670000000  0.5268870000000 1.0
C      1  0.4293000000000  0.5334080000000  0.5009370000000 1.0
C      1  0.5323790000000  0.4719890000000  0.4527440000000 1.0
C      1  0.5946700000000  0.4873560000000  0.4812340000000 1.0
C      1  0.3996190000000  0.4986410000000  0.4808330000000 1.0
C      1  0.5669150000000  0.5461990000000  0.4938050000000 1.0
C      1  0.5324940000000  0.4084910000000  0.4685050000000 1.0
C      1  0.4219380000000  0.4926870000000  0.5275320000000 1.0
C      1  0.5023940000000  0.5004080000000  0.5443340000000 1.0
C      1  0.6095090000000  0.4822410000000  0.4598910000000 1.0
C      1  0.4225930000000  0.4659680000000  0.5373730000000 1.0
C      1  0.5739980000000  0.5231540000000  0.5103860000000 1.0
C      1  0.4648040000000  0.4895330000000  0.4960400000000 1.0
C      1  0.4936990000000  0.5218960000000  0.5281710000000 1.0
C      1  0.5791710000000  0.4949570000000  0.5029450000000 1.0
C      1  0.5596920000000  0.5392010000000  0.4669010000000 1.0
C      1  0.4636870000000  0.4647170000000  0.5093760000000 1.0
C      1  0.4613050000000  0.5144570000000  0.5857020000000 1.0
C      1  0.4681960000000  0.4411570000000  0.3895140000000 1.0
C      1  0.4856830000000  0.5812310000000  0.5658950000000 1.0
END
