TITL C-3866674-3872-266 -0.0171237376295782 125000 -340.615804823925 0 0 56 (C1) n - 1
REM
REM in /home/nfs/bkarasulu/CARBON/AIRSS/Generating-Clusters/LCBOP/Only-C1/SD-CG/HFTN-CG/FIRE-CG
REM
REM
REM
REM
REM
REM ./C.cell (11c1c37f851c82e70ff6c80c92926a4b)
REM AIRSS Version 0.9.1 bugfix July 2018 build 013d7b7c2542+ Fri, 06 Jul 2018 19:26:36 +0100
REM compiler GCC version 9.2.1 20190827 (Red Hat 9.2.1-1)
REM options -cpp -mtune=generic -march=x86-64 -g -O0 -fpre-include=/usr/include/finclude/math-vector-fortran.h
REM seed 147850028 1477495319 -1692459241 2130908667 616345747 728710254 -551077796 -87247099 955329646 1013885672 1263987152 69847374 1470623865 -316591083 -375539326 862986867 -20430241 -1264746038 -132206280 116748284 -1603409345 1911207471 -450867460 -1772936899 1124714369 1031097884 -1099222023 1349241232 2007467876 527864845 -1866370372 -1870508550 -144786389
REM
CELL 1.54180   50.00000   50.00000   50.00000   90.00000   90.00000   90.00000
LATT -1
SFAC C  
C      1  0.5686380000000  0.4621810000000  0.4865590000000 1.0
C      1  0.4578800000000  0.4296090000000  0.4503860000000 1.0
C      1  0.5372210000000  0.5375230000000  0.4865550000000 1.0
C      1  0.5432300000000  0.5081570000000  0.5556150000000 1.0
C      1  0.5653190000000  0.3995040000000  0.5128550000000 1.0
C      1  0.4974040000000  0.4468730000000  0.4177650000000 1.0
C      1  0.5449540000000  0.3830480000000  0.5079210000000 1.0
C      1  0.4745640000000  0.4384030000000  0.4941900000000 1.0
C      1  0.5500100000000  0.6746120000000  0.5462850000000 1.0
C      1  0.5464100000000  0.6491380000000  0.5420710000000 1.0
C      1  0.5077520000000  0.4586160000000  0.5337520000000 1.0
C      1  0.5273120000000  0.5113600000000  0.4873690000000 1.0
C      1  0.4224370000000  0.4922340000000  0.5117960000000 1.0
C      1  0.4841770000000  0.4654570000000  0.4928520000000 1.0
C      1  0.4957780000000  0.3946200000000  0.5054310000000 1.0
C      1  0.5308230000000  0.5786160000000  0.5537070000000 1.0
C      1  0.4729290000000  0.4822250000000  0.4736080000000 1.0
C      1  0.4628600000000  0.5685620000000  0.4835620000000 1.0
C      1  0.4297330000000  0.5164980000000  0.5241270000000 1.0
C      1  0.5428810000000  0.5844720000000  0.5080580000000 1.0
C      1  0.4979390000000  0.5394180000000  0.4357080000000 1.0
C      1  0.4527370000000  0.5310980000000  0.5155670000000 1.0
C      1  0.5389120000000  0.5960690000000  0.5332880000000 1.0
C      1  0.4771510000000  0.5294180000000  0.5295380000000 1.0
C      1  0.5145000000000  0.4927400000000  0.4434970000000 1.0
C      1  0.5230830000000  0.5269910000000  0.5500940000000 1.0
C      1  0.5750150000000  0.4241470000000  0.5155110000000 1.0
C      1  0.4710320000000  0.5058730000000  0.4589350000000 1.0
C      1  0.4939240000000  0.5126830000000  0.4432140000000 1.0
C      1  0.3997810000000  0.5365550000000  0.5649100000000 1.0
C      1  0.5729630000000  0.4518780000000  0.5123070000000 1.0
C      1  0.4283180000000  0.4468050000000  0.4864120000000 1.0
C      1  0.4930480000000  0.5643550000000  0.4443020000000 1.0
C      1  0.5119430000000  0.5023370000000  0.5096880000000 1.0
C      1  0.4141700000000  0.5266100000000  0.5450110000000 1.0
C      1  0.5427520000000  0.6232480000000  0.5377890000000 1.0
C      1  0.5422290000000  0.5628950000000  0.4925380000000 1.0
C      1  0.5025230000000  0.4757960000000  0.5119670000000 1.0
C      1  0.5600710000000  0.4885420000000  0.5491480000000 1.0
C      1  0.3856580000000  0.5463760000000  0.5844980000000 1.0
C      1  0.5707430000000  0.4691690000000  0.5343040000000 1.0
C      1  0.5037300000000  0.5204030000000  0.5302650000000 1.0
C      1  0.5250400000000  0.5532630000000  0.5594370000000 1.0
C      1  0.4525430000000  0.5248960000000  0.4678140000000 1.0
C      1  0.5065020000000  0.4355280000000  0.3945700000000 1.0
C      1  0.5104730000000  0.4694660000000  0.4283120000000 1.0
C      1  0.4750540000000  0.4358440000000  0.4308790000000 1.0
C      1  0.4794910000000  0.5766610000000  0.4639700000000 1.0
C      1  0.4518690000000  0.4341040000000  0.4774830000000 1.0
C      1  0.5327670000000  0.4936680000000  0.4654460000000 1.0
C      1  0.4870610000000  0.4202930000000  0.5121880000000 1.0
C      1  0.4530280000000  0.5428660000000  0.4896190000000 1.0
C      1  0.4199490000000  0.4687590000000  0.4993190000000 1.0
C      1  0.5186050000000  0.3807620000000  0.5043950000000 1.0
C      1  0.4991050000000  0.4329910000000  0.5346080000000 1.0
C      1  0.5539780000000  0.4757810000000  0.4690020000000 1.0
END
