TITL C-3866671-3735-494 0.00017341838686818 125000 -1165.02337588735 0 0 189 (C1) n - 1
REM
REM in /home/nfs/bkarasulu/CARBON/AIRSS/Generating-Clusters/LCBOP/Only-C1/SD-CG/FIRE-CG
REM
REM
REM
REM
REM
REM ./C.cell (11c1c37f851c82e70ff6c80c92926a4b)
REM AIRSS Version 0.9.1 bugfix July 2018 build 013d7b7c2542+ Fri, 06 Jul 2018 19:26:36 +0100
REM compiler GCC version 9.2.1 20190827 (Red Hat 9.2.1-1)
REM options -cpp -mtune=generic -march=x86-64 -g -O0 -fpre-include=/usr/include/finclude/math-vector-fortran.h
REM seed 1874762701 159894586 28283526 2017705932 2001249210 -1851785130 66836020 415726392 376430200 -2089479683 1861017471 845855183 -1769006608 -2014512743 -1226029680 -1720879021 -987531798 1445744786 -486270064 1244896749 -596528504 -528180282 1950359702 1177700549 103752806 14606526 25152017 1216247463 -294478624 4594389 -936930981 1231309734 23177972
REM
CELL 1.54180   50.00000   50.00000   50.00000   90.00000   90.00000   90.00000
LATT -1
SFAC C  
C      1  0.5477750000000  0.4205880000000  0.4031510000000 1.0
C      1  0.4573330000000  0.3866650000000  0.4486180000000 1.0
C      1  0.5110340000000  0.5132140000000  0.5726790000000 1.0
C      1  0.5108110000000  0.4939180000000  0.4871570000000 1.0
C      1  0.5595680000000  0.5450990000000  0.4216760000000 1.0
C      1  0.5850450000000  0.5336670000000  0.4306690000000 1.0
C      1  0.4120810000000  0.4237310000000  0.4574660000000 1.0
C      1  0.5057990000000  0.5673180000000  0.4762270000000 1.0
C      1  0.4637450000000  0.5444890000000  0.4745510000000 1.0
C      1  0.4928520000000  0.5075380000000  0.5282610000000 1.0
C      1  0.4296760000000  0.4507540000000  0.4989410000000 1.0
C      1  0.4975030000000  0.5351150000000  0.4363980000000 1.0
C      1  0.5470530000000  0.5443450000000  0.6012280000000 1.0
C      1  0.4096930000000  0.4528290000000  0.5893880000000 1.0
C      1  0.3853580000000  0.4818860000000  0.4471420000000 1.0
C      1  0.5946740000000  0.5441400000000  0.4585510000000 1.0
C      1  0.4348930000000  0.5868270000000  0.5628710000000 1.0
C      1  0.4349150000000  0.4806080000000  0.5404210000000 1.0
C      1  0.4029160000000  0.5307350000000  0.5528830000000 1.0
C      1  0.5370390000000  0.5978450000000  0.4583940000000 1.0
C      1  0.5803090000000  0.4576190000000  0.6093330000000 1.0
C      1  0.4719440000000  0.5987750000000  0.4332040000000 1.0
C      1  0.5659140000000  0.4909230000000  0.5395930000000 1.0
C      1  0.5254320000000  0.4622160000000  0.3812740000000 1.0
C      1  0.6188760000000  0.5207400000000  0.5208260000000 1.0
C      1  0.4118740000000  0.5596880000000  0.4948320000000 1.0
C      1  0.5833390000000  0.5765250000000  0.4985410000000 1.0
C      1  0.5728430000000  0.4437110000000  0.4329410000000 1.0
C      1  0.4686160000000  0.4660210000000  0.4627210000000 1.0
C      1  0.4990080000000  0.5978280000000  0.4244720000000 1.0
C      1  0.6710050000000  0.4887210000000  0.4979840000000 1.0
C      1  0.5716330000000  0.4428250000000  0.5384310000000 1.0
C      1  0.5210390000000  0.6093950000000  0.5023180000000 1.0
C      1  0.4568950000000  0.5636070000000  0.5308750000000 1.0
C      1  0.4599780000000  0.3869480000000  0.4776630000000 1.0
C      1  0.5627460000000  0.5886830000000  0.5138600000000 1.0
C      1  0.4369730000000  0.4801400000000  0.4911760000000 1.0
C      1  0.4314350000000  0.5142570000000  0.3961930000000 1.0
C      1  0.5000750000000  0.4627730000000  0.5741490000000 1.0
C      1  0.4931890000000  0.5877350000000  0.5345690000000 1.0
C      1  0.5189130000000  0.5926470000000  0.4796870000000 1.0
C      1  0.5616070000000  0.4589620000000  0.4541550000000 1.0
C      1  0.4511320000000  0.4201820000000  0.5706200000000 1.0
C      1  0.5365640000000  0.3876150000000  0.5251960000000 1.0
C      1  0.4139660000000  0.5822410000000  0.5128600000000 1.0
C      1  0.5559140000000  0.5216510000000  0.5097570000000 1.0
C      1  0.5838700000000  0.4506240000000  0.5122380000000 1.0
C      1  0.5440920000000  0.4507030000000  0.5445320000000 1.0
C      1  0.5870450000000  0.5058230000000  0.5819900000000 1.0
C      1  0.5528680000000  0.4013970000000  0.4513940000000 1.0
C      1  0.5440910000000  0.4939760000000  0.6215290000000 1.0
C      1  0.4871910000000  0.4840230000000  0.4745950000000 1.0
C      1  0.4251130000000  0.4235880000000  0.4835460000000 1.0
C      1  0.4833990000000  0.6320980000000  0.5288390000000 1.0
C      1  0.5244840000000  0.5796210000000  0.5713720000000 1.0
C      1  0.4541500000000  0.5032090000000  0.3830990000000 1.0
C      1  0.4034770000000  0.4582600000000  0.5144580000000 1.0
C      1  0.5781020000000  0.4816410000000  0.4684630000000 1.0
C      1  0.4511050000000  0.4929510000000  0.5625610000000 1.0
C      1  0.3995380000000  0.4554160000000  0.5644430000000 1.0
C      1  0.4946660000000  0.4968440000000  0.4303380000000 1.0
C      1  0.4717240000000  0.4215930000000  0.5274500000000 1.0
C      1  0.5089320000000  0.4866450000000  0.3814450000000 1.0
C      1  0.3828970000000  0.4739370000000  0.5010730000000 1.0
C      1  0.4807710000000  0.4627250000000  0.5146050000000 1.0
C      1  0.4105640000000  0.5571930000000  0.4645640000000 1.0
C      1  0.3748130000000  0.5200090000000  0.5130920000000 1.0
C      1  0.5432610000000  0.4973250000000  0.4402350000000 1.0
C      1  0.4054360000000  0.5301260000000  0.4493550000000 1.0
C      1  0.4890680000000  0.4208040000000  0.4712620000000 1.0
C      1  0.6587000000000  0.4736910000000  0.5426340000000 1.0
C      1  0.4421020000000  0.5282740000000  0.4843160000000 1.0
C      1  0.5198070000000  0.5205980000000  0.4786850000000 1.0
C      1  0.4963350000000  0.5310230000000  0.5892000000000 1.0
C      1  0.5247240000000  0.5081230000000  0.3921820000000 1.0
C      1  0.4814650000000  0.5617320000000  0.4893940000000 1.0
C      1  0.5018770000000  0.5485630000000  0.4095420000000 1.0
C      1  0.5397960000000  0.5298440000000  0.5333050000000 1.0
C      1  0.4771750000000  0.4766390000000  0.5605020000000 1.0
C      1  0.5435740000000  0.5533140000000  0.4446770000000 1.0
C      1  0.5474180000000  0.5220770000000  0.6167000000000 1.0
C      1  0.6093520000000  0.5205190000000  0.4705540000000 1.0
C      1  0.5196060000000  0.4821140000000  0.6129840000000 1.0
C      1  0.6352610000000  0.4844870000000  0.5496100000000 1.0
C      1  0.4797160000000  0.4924230000000  0.3787160000000 1.0
C      1  0.4331370000000  0.5796820000000  0.5343180000000 1.0
C      1  0.5218810000000  0.6096910000000  0.4372630000000 1.0
C      1  0.5387590000000  0.3856850000000  0.4968590000000 1.0
C      1  0.5077270000000  0.4219660000000  0.4495210000000 1.0
C      1  0.4683180000000  0.5128850000000  0.5144890000000 1.0
C      1  0.5020350000000  0.4174080000000  0.5918320000000 1.0
C      1  0.5014530000000  0.4602700000000  0.6210460000000 1.0
C      1  0.5143700000000  0.5186140000000  0.5435420000000 1.0
C      1  0.4702060000000  0.5388850000000  0.4472960000000 1.0
C      1  0.4638190000000  0.5452730000000  0.5513620000000 1.0
C      1  0.4465130000000  0.4920970000000  0.5159930000000 1.0
C      1  0.5187570000000  0.4155590000000  0.5682420000000 1.0
C      1  0.5737940000000  0.4995980000000  0.5136640000000 1.0
C      1  0.4361970000000  0.5023180000000  0.4742770000000 1.0
C      1  0.5084180000000  0.4682420000000  0.4333190000000 1.0
C      1  0.5152190000000  0.3851910000000  0.4791270000000 1.0
C      1  0.5880480000000  0.4437550000000  0.5877660000000 1.0
C      1  0.4982820000000  0.4403280000000  0.4293860000000 1.0
C      1  0.3729870000000  0.4578470000000  0.4581440000000 1.0
C      1  0.6016290000000  0.4962670000000  0.4549100000000 1.0
C      1  0.3644090000000  0.4600940000000  0.4848400000000 1.0
C      1  0.3894230000000  0.5067460000000  0.4631690000000 1.0
C      1  0.5215050000000  0.5355560000000  0.3919940000000 1.0
C      1  0.3860290000000  0.4333560000000  0.4530310000000 1.0
C      1  0.4489590000000  0.5218340000000  0.5520790000000 1.0
C      1  0.4778820000000  0.5951460000000  0.5898120000000 1.0
C      1  0.4604300000000  0.6012720000000  0.5680400000000 1.0
C      1  0.5374790000000  0.5970490000000  0.5228540000000 1.0
C      1  0.5477810000000  0.5214630000000  0.4834800000000 1.0
C      1  0.4110580000000  0.4652750000000  0.5408950000000 1.0
C      1  0.4536140000000  0.4088730000000  0.4305380000000 1.0
C      1  0.6008900000000  0.4320530000000  0.5006940000000 1.0
C      1  0.4789200000000  0.5714560000000  0.5156930000000 1.0
C      1  0.4256810000000  0.5773320000000  0.4500750000000 1.0
C      1  0.5614630000000  0.4171480000000  0.4291960000000 1.0
C      1  0.5030220000000  0.6302150000000  0.5097920000000 1.0
C      1  0.5811130000000  0.4766090000000  0.4979140000000 1.0
C      1  0.5242310000000  0.3991840000000  0.4536940000000 1.0
C      1  0.4695720000000  0.4399720000000  0.4711130000000 1.0
C      1  0.4274840000000  0.4187410000000  0.4342760000000 1.0
C      1  0.4763010000000  0.5357800000000  0.6063120000000 1.0
C      1  0.5723630000000  0.4597770000000  0.4075270000000 1.0
C      1  0.5222170000000  0.4435180000000  0.5608320000000 1.0
C      1  0.5145880000000  0.4873340000000  0.5850030000000 1.0
C      1  0.4299470000000  0.4675350000000  0.4284890000000 1.0
C      1  0.5341120000000  0.5786050000000  0.3953630000000 1.0
C      1  0.4502550000000  0.5317860000000  0.6117510000000 1.0
C      1  0.5041000000000  0.5879170000000  0.5894540000000 1.0
C      1  0.3841670000000  0.6266310000000  0.5063100000000 1.0
C      1  0.5803420000000  0.5676790000000  0.4710690000000 1.0
C      1  0.4252480000000  0.5276520000000  0.5347620000000 1.0
C      1  0.4547970000000  0.4736180000000  0.4392780000000 1.0
C      1  0.4670080000000  0.4964860000000  0.4291020000000 1.0
C      1  0.5350660000000  0.4699680000000  0.4457590000000 1.0
C      1  0.6262540000000  0.5156150000000  0.4931920000000 1.0
C      1  0.6161480000000  0.5481200000000  0.5264190000000 1.0
C      1  0.4294950000000  0.5189580000000  0.5966330000000 1.0
C      1  0.6517500000000  0.5046170000000  0.4884020000000 1.0
C      1  0.4253300000000  0.5365780000000  0.5064100000000 1.0
C      1  0.4358680000000  0.4624410000000  0.5957560000000 1.0
C      1  0.6744210000000  0.4751800000000  0.5209190000000 1.0
C      1  0.4876960000000  0.3940070000000  0.4829710000000 1.0
C      1  0.4531430000000  0.4080910000000  0.5441410000000 1.0
C      1  0.3984210000000  0.6050810000000  0.5096940000000 1.0
C      1  0.5560020000000  0.5761600000000  0.4572100000000 1.0
C      1  0.5432620000000  0.5584830000000  0.5766990000000 1.0
C      1  0.4763310000000  0.6096500000000  0.5449290000000 1.0
C      1  0.5610840000000  0.3927240000000  0.4783940000000 1.0
C      1  0.5525960000000  0.5460410000000  0.5529190000000 1.0
C      1  0.4533880000000  0.5209850000000  0.4341900000000 1.0
C      1  0.4384890000000  0.3990240000000  0.4945700000000 1.0
C      1  0.5869020000000  0.4374620000000  0.5616860000000 1.0
C      1  0.5460810000000  0.5520870000000  0.3968500000000 1.0
C      1  0.5167790000000  0.5435680000000  0.4577860000000 1.0
C      1  0.4879060000000  0.4802270000000  0.5350320000000 1.0
C      1  0.6140170000000  0.5013240000000  0.5419780000000 1.0
C      1  0.4134180000000  0.5385560000000  0.5794090000000 1.0
C      1  0.3786300000000  0.5274850000000  0.5389460000000 1.0
C      1  0.4266550000000  0.5234340000000  0.4244330000000 1.0
C      1  0.5661330000000  0.4762810000000  0.6223760000000 1.0
C      1  0.4882470000000  0.4445520000000  0.5977130000000 1.0
C      1  0.4368810000000  0.3944830000000  0.5237610000000 1.0
C      1  0.4585350000000  0.4446040000000  0.5149430000000 1.0
C      1  0.4573750000000  0.4420160000000  0.5906460000000 1.0
C      1  0.5065250000000  0.4496320000000  0.5088830000000 1.0
C      1  0.5869110000000  0.4844320000000  0.4086490000000 1.0
C      1  0.4473130000000  0.5907010000000  0.4408650000000 1.0
C      1  0.3837100000000  0.5022660000000  0.4927460000000 1.0
C      1  0.5204650000000  0.5871230000000  0.5435960000000 1.0
C      1  0.5885390000000  0.4981890000000  0.5558840000000 1.0
C      1  0.5941150000000  0.5050460000000  0.4272290000000 1.0
C      1  0.5284680000000  0.3960980000000  0.5498050000000 1.0
C      1  0.4046070000000  0.4759570000000  0.4274300000000 1.0
C      1  0.4216180000000  0.5671450000000  0.5798970000000 1.0
C      1  0.5580280000000  0.5044880000000  0.4636990000000 1.0
C      1  0.5423740000000  0.5020420000000  0.4130630000000 1.0
C      1  0.5068830000000  0.5775520000000  0.4065470000000 1.0
C      1  0.5484970000000  0.4482990000000  0.3923850000000 1.0
C      1  0.5413450000000  0.4759900000000  0.5316700000000 1.0
C      1  0.4740350000000  0.4266470000000  0.4195280000000 1.0
C      1  0.5241080000000  0.4739570000000  0.5069600000000 1.0
C      1  0.4379260000000  0.4911900000000  0.5891310000000 1.0
C      1  0.6058130000000  0.5689380000000  0.5134110000000 1.0
C      1  0.4999310000000  0.4235580000000  0.5196870000000 1.0
END
