TITL C-3866675-3766-312 1.97430552291256 125000 -391.452366101963 0 0 65 (C1) n - 1
REM
REM in /home/nfs/bkarasulu/CARBON/AIRSS/Generating-Clusters/LCBOP/Only-C1/SD-CG/FIRE-CG
REM
REM
REM
REM
REM
REM ./C.cell (11c1c37f851c82e70ff6c80c92926a4b)
REM AIRSS Version 0.9.1 bugfix July 2018 build 013d7b7c2542+ Fri, 06 Jul 2018 19:26:36 +0100
REM compiler GCC version 9.2.1 20190827 (Red Hat 9.2.1-1)
REM options -cpp -mtune=generic -march=x86-64 -g -O0 -fpre-include=/usr/include/finclude/math-vector-fortran.h
REM seed 1053519061 -166756932 2053234712 348541261 1834145623 397637902 -1641861239 1884752322 2077671797 -1176783695 -1263500249 1389847383 1641690622 -1931517133 286228511 -424708529 -1552063635 571959804 -1079087315 -1239413443 -223514331 -793819924 1268379272 1834535958 -173007530 17741754 -161126349 -732836769 -1213361535 564644314 -1857363206 216436341 -1105351991
REM
CELL 1.54180   50.00000   50.00000   50.00000   90.00000   90.00000   90.00000
LATT -1
SFAC C  
C      1  0.4668030000000  0.5334420000000  0.7183970000000 1.0
C      1  0.3996530000000  0.4525000000000  0.4767780000000 1.0
C      1  0.5336480000000  0.5016260000000  0.4422310000000 1.0
C      1  0.4732600000000  0.5185820000000  0.6391160000000 1.0
C      1  0.4721720000000  0.5340840000000  0.4694200000000 1.0
C      1  0.5654980000000  0.4115150000000  0.4343060000000 1.0
C      1  0.4392890000000  0.4965410000000  0.5532360000000 1.0
C      1  0.5175870000000  0.5116320000000  0.4626210000000 1.0
C      1  0.4500390000000  0.5107460000000  0.6246830000000 1.0
C      1  0.5086720000000  0.4976640000000  0.5138940000000 1.0
C      1  0.4715060000000  0.5237180000000  0.6665240000000 1.0
C      1  0.5159900000000  0.4918300000000  0.5882800000000 1.0
C      1  0.5483070000000  0.4293580000000  0.4472820000000 1.0
C      1  0.5692030000000  0.5722990000000  0.3607800000000 1.0
C      1  0.6033230000000  0.4596850000000  0.3685860000000 1.0
C      1  0.3978720000000  0.4779940000000  0.4895370000000 1.0
C      1  0.5975020000000  0.4153210000000  0.3944730000000 1.0
C      1  0.4805650000000  0.4940650000000  0.5162480000000 1.0
C      1  0.6040590000000  0.5056410000000  0.3474270000000 1.0
C      1  0.4980980000000  0.5207820000000  0.6261780000000 1.0
C      1  0.4506370000000  0.4935820000000  0.6013710000000 1.0
C      1  0.5628560000000  0.4885530000000  0.4057180000000 1.0
C      1  0.5243940000000  0.4972810000000  0.5370250000000 1.0
C      1  0.6044440000000  0.4348510000000  0.3778580000000 1.0
C      1  0.4244890000000  0.5218380000000  0.6305240000000 1.0
C      1  0.4065670000000  0.5019300000000  0.4779800000000 1.0
C      1  0.4615430000000  0.5155390000000  0.5134010000000 1.0
C      1  0.5466490000000  0.4555470000000  0.4374970000000 1.0
C      1  0.4213790000000  0.4584260000000  0.5285350000000 1.0
C      1  0.4270130000000  0.5190850000000  0.4791480000000 1.0
C      1  0.5610400000000  0.5985760000000  0.3591920000000 1.0
C      1  0.4317230000000  0.4987200000000  0.5801580000000 1.0
C      1  0.4531520000000  0.5247700000000  0.4877580000000 1.0
C      1  0.5376220000000  0.6739550000000  0.3546370000000 1.0
C      1  0.5332130000000  0.4215860000000  0.4694300000000 1.0
C      1  0.4221450000000  0.4335200000000  0.5146060000000 1.0
C      1  0.4643910000000  0.5383090000000  0.7443410000000 1.0
C      1  0.5453430000000  0.6491000000000  0.3561390000000 1.0
C      1  0.4457870000000  0.5189040000000  0.5368440000000 1.0
C      1  0.4009710000000  0.4756700000000  0.5179320000000 1.0
C      1  0.4692130000000  0.5285750000000  0.6924600000000 1.0
C      1  0.5953450000000  0.4860890000000  0.3667800000000 1.0
C      1  0.4038260000000  0.5213430000000  0.6129140000000 1.0
C      1  0.5881070000000  0.5582830000000  0.3437470000000 1.0
C      1  0.5609480000000  0.5520310000000  0.3798900000000 1.0
C      1  0.4990300000000  0.4292020000000  0.5084040000000 1.0
C      1  0.4070250000000  0.5099760000000  0.5884610000000 1.0
C      1  0.4958370000000  0.5287990000000  0.4582380000000 1.0
C      1  0.5156660000000  0.5116710000000  0.6081980000000 1.0
C      1  0.5278330000000  0.4952450000000  0.5632990000000 1.0
C      1  0.4620190000000  0.5430960000000  0.7698580000000 1.0
C      1  0.4702830000000  0.4739230000000  0.5980120000000 1.0
C      1  0.5916670000000  0.5310240000000  0.3514270000000 1.0
C      1  0.4439210000000  0.4715420000000  0.5396020000000 1.0
C      1  0.5166280000000  0.4214110000000  0.4901290000000 1.0
C      1  0.5737030000000  0.5267990000000  0.3753730000000 1.0
C      1  0.4116430000000  0.4313930000000  0.4894220000000 1.0
C      1  0.4694980000000  0.4694390000000  0.5265200000000 1.0
C      1  0.5832730000000  0.4066150000000  0.4151660000000 1.0
C      1  0.5531940000000  0.6238290000000  0.3576660000000 1.0
C      1  0.5201520000000  0.5019840000000  0.4888210000000 1.0
C      1  0.5477910000000  0.4819360000000  0.4282870000000 1.0
C      1  0.5762800000000  0.4996910000000  0.3842060000000 1.0
C      1  0.4825510000000  0.4453250000000  0.5215590000000 1.0
C      1  0.4961660000000  0.4720120000000  0.5914690000000 1.0
END
