TITL C-3866676-3738-440 0.897372841180754 125000 -399.86911690795 0 0 66 (C1) n - 1
REM
REM in /home/nfs/bkarasulu/CARBON/AIRSS/Generating-Clusters/LCBOP/Only-C1/SD-CG/FIRE-CG
REM
REM
REM
REM
REM
REM ./C.cell (11c1c37f851c82e70ff6c80c92926a4b)
REM AIRSS Version 0.9.1 bugfix July 2018 build 013d7b7c2542+ Fri, 06 Jul 2018 19:26:36 +0100
REM compiler GCC version 9.2.1 20190827 (Red Hat 9.2.1-1)
REM options -cpp -mtune=generic -march=x86-64 -g -O0 -fpre-include=/usr/include/finclude/math-vector-fortran.h
REM seed 1998907385 -1323370680 -2032913847 1272639331 1727365114 -1793545496 -1925661991 -769181011 229593900 119556564 -2132605136 1626105222 778052225 -1934715761 -373814615 -773047135 -1226127169 -112057489 1149380115 1373549183 191371925 803628266 973148518 310932585 -54370468 -667002136 433257376 -74281310 247643457 1660327713 -383054606 -2146712847 -1814104207
REM
CELL 1.54180   50.00000   50.00000   50.00000   90.00000   90.00000   90.00000
LATT -1
SFAC C  
C      1  0.4625950000000  0.4264010000000  0.4751870000000 1.0
C      1  0.5496320000000  0.5210360000000  0.4917010000000 1.0
C      1  0.5176470000000  0.4647180000000  0.4167380000000 1.0
C      1  0.5205820000000  0.6021230000000  0.5853690000000 1.0
C      1  0.5295010000000  0.5199030000000  0.5110520000000 1.0
C      1  0.6258540000000  0.5174750000000  0.5348100000000 1.0
C      1  0.3952880000000  0.5076220000000  0.5244190000000 1.0
C      1  0.3658550000000  0.6048850000000  0.4662900000000 1.0
C      1  0.6186460000000  0.4216600000000  0.5392160000000 1.0
C      1  0.4588600000000  0.5051810000000  0.4330710000000 1.0
C      1  0.4784160000000  0.5066640000000  0.4532240000000 1.0
C      1  0.5091610000000  0.5390160000000  0.5123380000000 1.0
C      1  0.4033160000000  0.4354920000000  0.5425830000000 1.0
C      1  0.5750510000000  0.4072480000000  0.5147850000000 1.0
C      1  0.6336410000000  0.4423700000000  0.5463710000000 1.0
C      1  0.5713410000000  0.5885410000000  0.5845270000000 1.0
C      1  0.6150340000000  0.5176150000000  0.5089950000000 1.0
C      1  0.4027930000000  0.5036260000000  0.4776170000000 1.0
C      1  0.4402620000000  0.4401210000000  0.4649150000000 1.0
C      1  0.4616900000000  0.5794500000000  0.5436950000000 1.0
C      1  0.5212650000000  0.4717560000000  0.5308270000000 1.0
C      1  0.5049190000000  0.5003620000000  0.4465480000000 1.0
C      1  0.5979650000000  0.4093330000000  0.5280270000000 1.0
C      1  0.4115750000000  0.5471400000000  0.4998120000000 1.0
C      1  0.4983790000000  0.4521110000000  0.4032400000000 1.0
C      1  0.4608340000000  0.5611940000000  0.5224740000000 1.0
C      1  0.4019950000000  0.5204600000000  0.5002540000000 1.0
C      1  0.4744890000000  0.5929980000000  0.5626210000000 1.0
C      1  0.4381930000000  0.4428240000000  0.4369690000000 1.0
C      1  0.4759970000000  0.4564730000000  0.5288690000000 1.0
C      1  0.4101990000000  0.4585080000000  0.5296930000000 1.0
C      1  0.5355410000000  0.4336950000000  0.4905020000000 1.0
C      1  0.4305240000000  0.4591960000000  0.5098010000000 1.0
C      1  0.6220280000000  0.5394940000000  0.5515760000000 1.0
C      1  0.5858990000000  0.4934350000000  0.4352960000000 1.0
C      1  0.5459040000000  0.4752150000000  0.4554770000000 1.0
C      1  0.5285810000000  0.4970990000000  0.5273310000000 1.0
C      1  0.6104480000000  0.5587480000000  0.5656740000000 1.0
C      1  0.4495010000000  0.4582580000000  0.4164070000000 1.0
C      1  0.4094210000000  0.4784030000000  0.4712900000000 1.0
C      1  0.5466570000000  0.5977580000000  0.5876480000000 1.0
C      1  0.4557000000000  0.4707670000000  0.5159980000000 1.0
C      1  0.6404130000000  0.4679780000000  0.5481830000000 1.0
C      1  0.5682130000000  0.4928640000000  0.4561950000000 1.0
C      1  0.3809040000000  0.5860720000000  0.4773430000000 1.0
C      1  0.5088130000000  0.4353980000000  0.5000050000000 1.0
C      1  0.4852970000000  0.5505820000000  0.5137780000000 1.0
C      1  0.3977510000000  0.4831890000000  0.5350970000000 1.0
C      1  0.4246500000000  0.4570410000000  0.4817750000000 1.0
C      1  0.3959190000000  0.5672430000000  0.4883700000000 1.0
C      1  0.5446160000000  0.4525460000000  0.4718480000000 1.0
C      1  0.5971060000000  0.5142160000000  0.4897450000000 1.0
C      1  0.4954310000000  0.6007180000000  0.5770030000000 1.0
C      1  0.4704810000000  0.5065240000000  0.4800270000000 1.0
C      1  0.5534810000000  0.4154430000000  0.5016830000000 1.0
C      1  0.3510530000000  0.6233880000000  0.4554190000000 1.0
C      1  0.5717890000000  0.5099930000000  0.4786310000000 1.0
C      1  0.4627890000000  0.4942960000000  0.5023500000000 1.0
C      1  0.4365670000000  0.5534960000000  0.5108670000000 1.0
C      1  0.4718540000000  0.4487190000000  0.4022700000000 1.0
C      1  0.5237290000000  0.4810420000000  0.4387540000000 1.0
C      1  0.4468090000000  0.4862750000000  0.4183920000000 1.0
C      1  0.5030270000000  0.4523090000000  0.5222880000000 1.0
C      1  0.5930490000000  0.5753210000000  0.5769190000000 1.0
C      1  0.4871380000000  0.4248550000000  0.4855220000000 1.0
C      1  0.6379440000000  0.4941180000000  0.5442970000000 1.0
END
