TITL C-3866672-3872-745 1108.67084962638 125000 -1060.06366207497 0 0 172 (C1) n - 1
REM
REM in /home/nfs/bkarasulu/CARBON/AIRSS/Generating-Clusters/LCBOP/Only-C1/SD-CG/FIRE-CG
REM
REM
REM
REM
REM
REM ./C.cell (11c1c37f851c82e70ff6c80c92926a4b)
REM AIRSS Version 0.9.1 bugfix July 2018 build 013d7b7c2542+ Fri, 06 Jul 2018 19:26:36 +0100
REM compiler GCC version 9.2.1 20190827 (Red Hat 9.2.1-1)
REM options -cpp -mtune=generic -march=x86-64 -g -O0 -fpre-include=/usr/include/finclude/math-vector-fortran.h
REM seed 1449496808 1667472801 942291999 1966678131 -1699322060 330108827 1250716105 208433216 1170224069 -580973326 -600456698 534729960 -681564095 -1113234527 -1237472459 2115432402 1999773903 -251501298 373689816 1308107403 1281418260 -1762743339 -127337148 -478111370 -1849461342 -507326787 -359350031 -1221572657 -2113901025 783061914 1406267723 -2083199484 713992777
REM
CELL 1.54180   50.00000   50.00000   50.00000   90.00000   90.00000   90.00000
LATT -1
SFAC C  
C      1  0.4391380000000  0.5869030000000  0.5870160000000 1.0
C      1  0.4998210000000  0.4377420000000  0.4435380000000 1.0
C      1  0.5209170000000  0.5756660000000  0.4064640000000 1.0
C      1  0.4692740000000  0.4001910000000  0.4238010000000 1.0
C      1  0.5457700000000  0.4480170000000  0.4905530000000 1.0
C      1  0.5346910000000  0.4996750000000  0.5231840000000 1.0
C      1  0.4929150000000  0.6113710000000  0.4747970000000 1.0
C      1  0.5812660000000  0.4884730000000  0.5659540000000 1.0
C      1  0.5474600000000  0.4435080000000  0.5182860000000 1.0
C      1  0.5423440000000  0.6111390000000  0.5237330000000 1.0
C      1  0.5335850000000  0.5526940000000  0.5472670000000 1.0
C      1  0.4191880000000  0.5122560000000  0.4805940000000 1.0
C      1  0.4201140000000  0.5742280000000  0.4583220000000 1.0
C      1  0.4930880000000  0.4835370000000  0.4608640000000 1.0
C      1  0.5648510000000  0.6134610000000  0.5412010000000 1.0
C      1  0.4033060000000  0.5454580000000  0.5855510000000 1.0
C      1  0.4817010000000  0.4899770000000  0.6072880000000 1.0
C      1  0.5445480000000  0.5640020000000  0.4180530000000 1.0
C      1  0.3897620000000  0.4975590000000  0.5954700000000 1.0
C      1  0.4254840000000  0.5245760000000  0.5363060000000 1.0
C      1  0.4917340000000  0.5406970000000  0.3956780000000 1.0
C      1  0.4884500000000  0.4112140000000  0.4058280000000 1.0
C      1  0.4318130000000  0.4958250000000  0.5390040000000 1.0
C      1  0.4486310000000  0.4004530000000  0.5418340000000 1.0
C      1  0.4449910000000  0.5390670000000  0.4277120000000 1.0
C      1  0.3974230000000  0.5224480000000  0.5265010000000 1.0
C      1  0.4778150000000  0.4485280000000  0.5170680000000 1.0
C      1  0.5002170000000  0.4482010000000  0.5955710000000 1.0
C      1  0.4131320000000  0.5059230000000  0.4535920000000 1.0
C      1  0.5689750000000  0.4654650000000  0.3909950000000 1.0
C      1  0.5010640000000  0.4343280000000  0.5127400000000 1.0
C      1  0.5291080000000  0.3722710000000  0.5184410000000 1.0
C      1  0.5415510000000  0.4706240000000  0.3978890000000 1.0
C      1  0.4722990000000  0.4957100000000  0.5793670000000 1.0
C      1  0.5619570000000  0.4975200000000  0.5162310000000 1.0
C      1  0.4543790000000  0.4879820000000  0.5252040000000 1.0
C      1  0.3902790000000  0.4731590000000  0.5796770000000 1.0
C      1  0.5951470000000  0.4335140000000  0.5168730000000 1.0
C      1  0.4469270000000  0.4844790000000  0.4207120000000 1.0
C      1  0.4735240000000  0.4062110000000  0.5556790000000 1.0
C      1  0.5817600000000  0.5292770000000  0.4278380000000 1.0
C      1  0.4536560000000  0.5316710000000  0.3670450000000 1.0
C      1  0.5156240000000  0.6065950000000  0.5369590000000 1.0
C      1  0.4452360000000  0.5459410000000  0.5371710000000 1.0
C      1  0.4091880000000  0.4779610000000  0.5361210000000 1.0
C      1  0.6263800000000  0.5900840000000  0.5650720000000 1.0
C      1  0.4796390000000  0.5580840000000  0.4653940000000 1.0
C      1  0.4227740000000  0.5637950000000  0.5874530000000 1.0
C      1  0.5447310000000  0.6065620000000  0.4940190000000 1.0
C      1  0.4970550000000  0.5954460000000  0.5188090000000 1.0
C      1  0.4123040000000  0.4293410000000  0.5613740000000 1.0
C      1  0.3924330000000  0.5736260000000  0.4988040000000 1.0
C      1  0.4015880000000  0.4755810000000  0.5086540000000 1.0
C      1  0.4383460000000  0.5398570000000  0.3476110000000 1.0
C      1  0.5724590000000  0.4393970000000  0.5327750000000 1.0
C      1  0.5542050000000  0.5027910000000  0.4486630000000 1.0
C      1  0.4821280000000  0.4601260000000  0.4487190000000 1.0
C      1  0.4632960000000  0.5053930000000  0.5051480000000 1.0
C      1  0.5892410000000  0.5461140000000  0.4520350000000 1.0
C      1  0.5124020000000  0.4991780000000  0.5049260000000 1.0
C      1  0.4841770000000  0.5735430000000  0.4404560000000 1.0
C      1  0.4640350000000  0.5236260000000  0.4431650000000 1.0
C      1  0.4963870000000  0.5332540000000  0.5952760000000 1.0
C      1  0.4272380000000  0.6112430000000  0.5915080000000 1.0
C      1  0.5298490000000  0.5664240000000  0.6127620000000 1.0
C      1  0.5119540000000  0.5504900000000  0.5299190000000 1.0
C      1  0.4612050000000  0.5365860000000  0.4689630000000 1.0
C      1  0.4915910000000  0.4012340000000  0.3800470000000 1.0
C      1  0.5168630000000  0.5339390000000  0.3826520000000 1.0
C      1  0.5032930000000  0.3747980000000  0.5314740000000 1.0
C      1  0.4412320000000  0.4203340000000  0.4925390000000 1.0
C      1  0.3890970000000  0.5220580000000  0.5790840000000 1.0
C      1  0.5290990000000  0.5011740000000  0.5506330000000 1.0
C      1  0.4695540000000  0.5235400000000  0.3887260000000 1.0
C      1  0.5115460000000  0.4193490000000  0.4626920000000 1.0
C      1  0.5391640000000  0.4105590000000  0.4625150000000 1.0
C      1  0.4969530000000  0.3905700000000  0.3563950000000 1.0
C      1  0.4623480000000  0.4988570000000  0.4015100000000 1.0
C      1  0.5557770000000  0.4323630000000  0.4683300000000 1.0
C      1  0.5791210000000  0.5722980000000  0.4629950000000 1.0
C      1  0.6494810000000  0.5954380000000  0.5758820000000 1.0
C      1  0.5004550000000  0.3971990000000  0.5500790000000 1.0
C      1  0.5869480000000  0.5010720000000  0.5074180000000 1.0
C      1  0.4252170000000  0.4182300000000  0.5383780000000 1.0
C      1  0.4946020000000  0.5644180000000  0.4138230000000 1.0
C      1  0.6016490000000  0.5844270000000  0.5538070000000 1.0
C      1  0.4700360000000  0.5371030000000  0.5500290000000 1.0
C      1  0.6051220000000  0.5314140000000  0.4707980000000 1.0
C      1  0.5540150000000  0.5771490000000  0.6054700000000 1.0
C      1  0.4452830000000  0.4030090000000  0.4708610000000 1.0
C      1  0.5232240000000  0.4139290000000  0.5498080000000 1.0
C      1  0.5799990000000  0.5535010000000  0.5177030000000 1.0
C      1  0.4669840000000  0.5864260000000  0.5820890000000 1.0
C      1  0.5312710000000  0.4822760000000  0.5731060000000 1.0
C      1  0.4979160000000  0.5617470000000  0.4858050000000 1.0
C      1  0.5324200000000  0.5048870000000  0.4321930000000 1.0
C      1  0.4468230000000  0.5198530000000  0.4868750000000 1.0
C      1  0.4391020000000  0.5709130000000  0.5210520000000 1.0
C      1  0.4124550000000  0.4504140000000  0.4686370000000 1.0
C      1  0.5229340000000  0.4344920000000  0.5298340000000 1.0
C      1  0.5279370000000  0.5416860000000  0.4602790000000 1.0
C      1  0.5058200000000  0.5696390000000  0.5108950000000 1.0
C      1  0.5652990000000  0.5910060000000  0.4788360000000 1.0
C      1  0.5598990000000  0.4719480000000  0.5704120000000 1.0
C      1  0.4393600000000  0.5874830000000  0.4745080000000 1.0
C      1  0.4753130000000  0.5248950000000  0.5754170000000 1.0
C      1  0.4853520000000  0.4624300000000  0.6138050000000 1.0
C      1  0.4830120000000  0.4755570000000  0.5607000000000 1.0
C      1  0.5011570000000  0.4194160000000  0.4888020000000 1.0
C      1  0.5029860000000  0.3795090000000  0.3335710000000 1.0
C      1  0.5046760000000  0.4326210000000  0.4157890000000 1.0
C      1  0.4912890000000  0.5323990000000  0.5320110000000 1.0
C      1  0.5884830000000  0.4805670000000  0.4049760000000 1.0
C      1  0.4190430000000  0.4267910000000  0.5107550000000 1.0
C      1  0.4779180000000  0.3650630000000  0.5226640000000 1.0
C      1  0.5145310000000  0.5928160000000  0.5629640000000 1.0
C      1  0.4281130000000  0.5589390000000  0.4357850000000 1.0
C      1  0.5544510000000  0.3880380000000  0.5259430000000 1.0
C      1  0.5589830000000  0.5457360000000  0.5032060000000 1.0
C      1  0.5395800000000  0.4722020000000  0.4789180000000 1.0
C      1  0.5593290000000  0.5401700000000  0.4088390000000 1.0
C      1  0.5840990000000  0.4362850000000  0.4687460000000 1.0
C      1  0.5374210000000  0.5751560000000  0.5629930000000 1.0
C      1  0.5069260000000  0.4631410000000  0.5718660000000 1.0
C      1  0.4894320000000  0.5136520000000  0.5112660000000 1.0
C      1  0.6037340000000  0.5136290000000  0.4907770000000 1.0
C      1  0.5139760000000  0.4837960000000  0.4812920000000 1.0
C      1  0.4104220000000  0.5751390000000  0.5189730000000 1.0
C      1  0.4591370000000  0.4416450000000  0.4975090000000 1.0
C      1  0.5136840000000  0.5218480000000  0.4444600000000 1.0
C      1  0.5635750000000  0.4449370000000  0.5803580000000 1.0
C      1  0.5614570000000  0.4821130000000  0.4645890000000 1.0
C      1  0.5227290000000  0.4497030000000  0.4021050000000 1.0
C      1  0.4553770000000  0.3972700000000  0.4466110000000 1.0
C      1  0.4528150000000  0.5881990000000  0.5000060000000 1.0
C      1  0.5758480000000  0.4472390000000  0.3718710000000 1.0
C      1  0.5298060000000  0.4923150000000  0.6027970000000 1.0
C      1  0.3953660000000  0.5715420000000  0.4719170000000 1.0
C      1  0.5312630000000  0.3689730000000  0.4897420000000 1.0
C      1  0.5489520000000  0.3880760000000  0.4777680000000 1.0
C      1  0.5054650000000  0.5602830000000  0.5988080000000 1.0
C      1  0.4011810000000  0.4470020000000  0.5788120000000 1.0
C      1  0.5677920000000  0.4263770000000  0.5587520000000 1.0
C      1  0.4328730000000  0.4506900000000  0.4510450000000 1.0
C      1  0.4063680000000  0.4501580000000  0.4966690000000 1.0
C      1  0.4856580000000  0.6012400000000  0.4489130000000 1.0
C      1  0.5564430000000  0.4483920000000  0.6082990000000 1.0
C      1  0.4777830000000  0.6037860000000  0.4994770000000 1.0
C      1  0.4003500000000  0.5046340000000  0.5012870000000 1.0
C      1  0.5695620000000  0.3961380000000  0.4987990000000 1.0
C      1  0.5901730000000  0.4187140000000  0.4926980000000 1.0
C      1  0.5362520000000  0.4974770000000  0.4052810000000 1.0
C      1  0.5918730000000  0.4945020000000  0.4286270000000 1.0
C      1  0.3875500000000  0.4840520000000  0.5531040000000 1.0
C      1  0.5977990000000  0.5651130000000  0.5337600000000 1.0
C      1  0.5777270000000  0.5977070000000  0.5615660000000 1.0
C      1  0.5385330000000  0.5630960000000  0.4456220000000 1.0
C      1  0.5506380000000  0.4040360000000  0.5509120000000 1.0
C      1  0.3831900000000  0.5133970000000  0.5511780000000 1.0
C      1  0.5412850000000  0.5227690000000  0.3925050000000 1.0
C      1  0.5407580000000  0.5382880000000  0.4851060000000 1.0
C      1  0.5851520000000  0.4701200000000  0.4560090000000 1.0
C      1  0.4886630000000  0.5088900000000  0.4471470000000 1.0
C      1  0.5213050000000  0.6153080000000  0.4792870000000 1.0
C      1  0.4947840000000  0.5820050000000  0.5816650000000 1.0
C      1  0.4551710000000  0.4627070000000  0.4380590000000 1.0
C      1  0.5057940000000  0.5079030000000  0.6085480000000 1.0
C      1  0.4721240000000  0.4689180000000  0.5355100000000 1.0
C      1  0.5595460000000  0.5834500000000  0.5783520000000 1.0
C      1  0.4225140000000  0.4962880000000  0.4301810000000 1.0
C      1  0.5444170000000  0.4716710000000  0.6178830000000 1.0
C      1  0.4532210000000  0.3763100000000  0.5267010000000 1.0
END
