TITL C-3866675-3766-664 -6.87618255621006e-05 125000 -999.330856779369 0 0 161 (C1) n - 1
REM
REM in /home/nfs/bkarasulu/CARBON/AIRSS/Generating-Clusters/LCBOP/Only-C1/SD-CG/FIRE-CG
REM
REM
REM
REM
REM
REM ./C.cell (11c1c37f851c82e70ff6c80c92926a4b)
REM AIRSS Version 0.9.1 bugfix July 2018 build 013d7b7c2542+ Fri, 06 Jul 2018 19:26:36 +0100
REM compiler GCC version 9.2.1 20190827 (Red Hat 9.2.1-1)
REM options -cpp -mtune=generic -march=x86-64 -g -O0 -fpre-include=/usr/include/finclude/math-vector-fortran.h
REM seed 639793040 891396594 -1974173216 -1692668236 655466541 -1604960145 1187469752 867269400 1958703743 1747103113 494376059 -1172617440 -1938461729 2048678452 -750623630 195855191 237654459 -885545247 -1968443785 106827940 -931197004 -1984719067 -1743824969 31559599 278806713 -1941411302 -1695065826 -1716001033 49876455 1183923757 -1199324485 -1086479735 -1877741199
REM
CELL 1.54180   50.00000   50.00000   50.00000   90.00000   90.00000   90.00000
LATT -1
SFAC C  
C      1  0.4261730000000  0.4451030000000  0.4866690000000 1.0
C      1  0.4088640000000  0.4262640000000  0.5310160000000 1.0
C      1  0.5061770000000  0.4411430000000  0.5248010000000 1.0
C      1  0.4398980000000  0.4886280000000  0.5729540000000 1.0
C      1  0.4836820000000  0.4874850000000  0.4408540000000 1.0
C      1  0.5432510000000  0.5089270000000  0.5237020000000 1.0
C      1  0.5350810000000  0.5270140000000  0.6275020000000 1.0
C      1  0.3836060000000  0.4893280000000  0.4218130000000 1.0
C      1  0.4497610000000  0.5111140000000  0.4087880000000 1.0
C      1  0.5875940000000  0.5195260000000  0.5727760000000 1.0
C      1  0.5560590000000  0.5829000000000  0.5938290000000 1.0
C      1  0.4864470000000  0.4586980000000  0.4418370000000 1.0
C      1  0.4044930000000  0.5902990000000  0.5115700000000 1.0
C      1  0.5046360000000  0.4724370000000  0.5851460000000 1.0
C      1  0.5111790000000  0.4426170000000  0.4412530000000 1.0
C      1  0.4034940000000  0.4930040000000  0.4027210000000 1.0
C      1  0.4658330000000  0.5786710000000  0.5600330000000 1.0
C      1  0.3588920000000  0.4745790000000  0.4226080000000 1.0
C      1  0.5763410000000  0.4568600000000  0.5038980000000 1.0
C      1  0.5301330000000  0.5110650000000  0.5845710000000 1.0
C      1  0.5248170000000  0.4303380000000  0.5815140000000 1.0
C      1  0.4916460000000  0.4779820000000  0.5600020000000 1.0
C      1  0.4378940000000  0.4762190000000  0.5243820000000 1.0
C      1  0.5471870000000  0.5255060000000  0.6014870000000 1.0
C      1  0.5484800000000  0.5246320000000  0.4268650000000 1.0
C      1  0.4355360000000  0.4958850000000  0.5444460000000 1.0
C      1  0.3689540000000  0.4832140000000  0.4673430000000 1.0
C      1  0.4398380000000  0.4605780000000  0.5781450000000 1.0
C      1  0.5975250000000  0.5078810000000  0.4238380000000 1.0
C      1  0.6174750000000  0.4763500000000  0.4858050000000 1.0
C      1  0.4762630000000  0.4298500000000  0.5608160000000 1.0
C      1  0.5382240000000  0.5369360000000  0.5295380000000 1.0
C      1  0.5053390000000  0.4154760000000  0.4347630000000 1.0
C      1  0.4929560000000  0.4653650000000  0.6087080000000 1.0
C      1  0.5249590000000  0.4570870000000  0.5106390000000 1.0
C      1  0.5379830000000  0.5117990000000  0.4717290000000 1.0
C      1  0.4826440000000  0.6178210000000  0.4621760000000 1.0
C      1  0.5652720000000  0.5630370000000  0.5763140000000 1.0
C      1  0.5984590000000  0.5045070000000  0.5531910000000 1.0
C      1  0.5806460000000  0.5645100000000  0.4809930000000 1.0
C      1  0.5088680000000  0.5446850000000  0.4467070000000 1.0
C      1  0.5561210000000  0.5711450000000  0.4991480000000 1.0
C      1  0.6077080000000  0.6026120000000  0.5315450000000 1.0
C      1  0.5696160000000  0.5705160000000  0.5489980000000 1.0
C      1  0.4313690000000  0.4188830000000  0.5479630000000 1.0
C      1  0.5576890000000  0.6219270000000  0.4657530000000 1.0
C      1  0.4449380000000  0.4482310000000  0.4198040000000 1.0
C      1  0.4890920000000  0.4811710000000  0.4866380000000 1.0
C      1  0.5301290000000  0.5265790000000  0.4488860000000 1.0
C      1  0.4853450000000  0.5723720000000  0.4762980000000 1.0
C      1  0.5512280000000  0.4831810000000  0.5381080000000 1.0
C      1  0.5391980000000  0.4479390000000  0.4488790000000 1.0
C      1  0.4840290000000  0.4547170000000  0.5426570000000 1.0
C      1  0.5732370000000  0.5180970000000  0.4185950000000 1.0
C      1  0.5100470000000  0.5202080000000  0.6366520000000 1.0
C      1  0.4395070000000  0.5360180000000  0.4189690000000 1.0
C      1  0.4893990000000  0.5373090000000  0.5913240000000 1.0
C      1  0.5410650000000  0.3761940000000  0.5577360000000 1.0
C      1  0.4465440000000  0.4351040000000  0.5668490000000 1.0
C      1  0.4416570000000  0.5353750000000  0.5680110000000 1.0
C      1  0.4936130000000  0.5583490000000  0.3529290000000 1.0
C      1  0.5100620000000  0.5432010000000  0.5282230000000 1.0
C      1  0.6155310000000  0.5974760000000  0.5064670000000 1.0
C      1  0.5590570000000  0.4264630000000  0.4587960000000 1.0
C      1  0.4308190000000  0.5856630000000  0.5109580000000 1.0
C      1  0.5609400000000  0.4956930000000  0.4644360000000 1.0
C      1  0.4387610000000  0.5244520000000  0.5407760000000 1.0
C      1  0.5311560000000  0.4832800000000  0.5830090000000 1.0
C      1  0.5304160000000  0.5032570000000  0.4975780000000 1.0
C      1  0.4516340000000  0.4440570000000  0.3470730000000 1.0
C      1  0.4720370000000  0.5918160000000  0.4599230000000 1.0
C      1  0.5998380000000  0.4733420000000  0.5079850000000 1.0
C      1  0.5095120000000  0.3936080000000  0.5038360000000 1.0
C      1  0.4419570000000  0.4032380000000  0.5033050000000 1.0
C      1  0.4719920000000  0.4621460000000  0.4965860000000 1.0
C      1  0.4785760000000  0.4041850000000  0.5418200000000 1.0
C      1  0.5353430000000  0.3935550000000  0.4937510000000 1.0
C      1  0.4504780000000  0.5668950000000  0.5176260000000 1.0
C      1  0.4468320000000  0.4348380000000  0.4672800000000 1.0
C      1  0.5880590000000  0.5914350000000  0.5456580000000 1.0
C      1  0.4479870000000  0.5135080000000  0.5876790000000 1.0
C      1  0.3914480000000  0.4671600000000  0.5121310000000 1.0
C      1  0.4578470000000  0.5819010000000  0.4375590000000 1.0
C      1  0.3966960000000  0.5285350000000  0.4999240000000 1.0
C      1  0.5763480000000  0.5711700000000  0.4519820000000 1.0
C      1  0.5148600000000  0.3707350000000  0.5593220000000 1.0
C      1  0.4409480000000  0.4636920000000  0.3966010000000 1.0
C      1  0.5396310000000  0.6198290000000  0.6203570000000 1.0
C      1  0.4515060000000  0.5614120000000  0.4212950000000 1.0
C      1  0.5776650000000  0.4182080000000  0.4372100000000 1.0
C      1  0.5523470000000  0.4617120000000  0.5181890000000 1.0
C      1  0.4731370000000  0.5749710000000  0.5331020000000 1.0
C      1  0.4697340000000  0.5209600000000  0.6054900000000 1.0
C      1  0.4802470000000  0.4987600000000  0.4667820000000 1.0
C      1  0.4597230000000  0.4458140000000  0.4438380000000 1.0
C      1  0.4187090000000  0.4213470000000  0.5036820000000 1.0
C      1  0.4985460000000  0.5682770000000  0.5222090000000 1.0
C      1  0.4934750000000  0.5058180000000  0.5539250000000 1.0
C      1  0.4462580000000  0.4534560000000  0.3712520000000 1.0
C      1  0.4447740000000  0.5271030000000  0.4896980000000 1.0
C      1  0.4899050000000  0.3800470000000  0.5552350000000 1.0
C      1  0.5690940000000  0.5365290000000  0.5863240000000 1.0
C      1  0.4695360000000  0.5244920000000  0.4734230000000 1.0
C      1  0.6032280000000  0.4180480000000  0.4296010000000 1.0
C      1  0.6263650000000  0.4303900000000  0.4346550000000 1.0
C      1  0.5082130000000  0.5669130000000  0.4026550000000 1.0
C      1  0.4982980000000  0.4253750000000  0.5808370000000 1.0
C      1  0.5603500000000  0.3947320000000  0.5555900000000 1.0
C      1  0.4314220000000  0.4905080000000  0.3999050000000 1.0
C      1  0.4191720000000  0.4682110000000  0.5037250000000 1.0
C      1  0.5057150000000  0.5214500000000  0.5750020000000 1.0
C      1  0.3828980000000  0.5743970000000  0.5125870000000 1.0
C      1  0.4546300000000  0.4082640000000  0.4777650000000 1.0
C      1  0.3885720000000  0.4967120000000  0.4500320000000 1.0
C      1  0.5831920000000  0.5102450000000  0.4739180000000 1.0
C      1  0.5354490000000  0.5963430000000  0.6071610000000 1.0
C      1  0.5085290000000  0.6239100000000  0.4670860000000 1.0
C      1  0.4753140000000  0.3917840000000  0.4681630000000 1.0
C      1  0.5102890000000  0.5841440000000  0.6060810000000 1.0
C      1  0.5015190000000  0.5631480000000  0.3773010000000 1.0
C      1  0.5472640000000  0.4029220000000  0.4720130000000 1.0
C      1  0.4626840000000  0.4626090000000  0.5228390000000 1.0
C      1  0.5000770000000  0.4131340000000  0.5219730000000 1.0
C      1  0.3725240000000  0.4772510000000  0.4942830000000 1.0
C      1  0.4503270000000  0.4024990000000  0.5310550000000 1.0
C      1  0.5876050000000  0.5352870000000  0.4825000000000 1.0
C      1  0.4168610000000  0.5326830000000  0.4351720000000 1.0
C      1  0.5649060000000  0.4211740000000  0.5583750000000 1.0
C      1  0.5748170000000  0.4395720000000  0.4817320000000 1.0
C      1  0.6242660000000  0.4759400000000  0.4582380000000 1.0
C      1  0.5528010000000  0.4731390000000  0.4497580000000 1.0
C      1  0.4569220000000  0.4348610000000  0.3232590000000 1.0
C      1  0.4928870000000  0.5207560000000  0.5305590000000 1.0
C      1  0.5773520000000  0.6390090000000  0.4652010000000 1.0
C      1  0.6029200000000  0.4888080000000  0.5317170000000 1.0
C      1  0.5145480000000  0.5673900000000  0.4297890000000 1.0
C      1  0.4746590000000  0.5017860000000  0.4184610000000 1.0
C      1  0.4953370000000  0.5633370000000  0.5992340000000 1.0
C      1  0.5479110000000  0.4701930000000  0.5643870000000 1.0
C      1  0.5330070000000  0.6059650000000  0.4662830000000 1.0
C      1  0.3503340000000  0.4711920000000  0.4487100000000 1.0
C      1  0.4906010000000  0.3795410000000  0.4883950000000 1.0
C      1  0.3807530000000  0.5478770000000  0.5091840000000 1.0
C      1  0.4481390000000  0.5624180000000  0.5725990000000 1.0
C      1  0.5145490000000  0.4800130000000  0.4971900000000 1.0
C      1  0.6349310000000  0.4522880000000  0.4473490000000 1.0
C      1  0.4868480000000  0.5462310000000  0.4652470000000 1.0
C      1  0.4837300000000  0.5151440000000  0.6301510000000 1.0
C      1  0.5282930000000  0.5892190000000  0.4412090000000 1.0
C      1  0.4173710000000  0.5218730000000  0.4817290000000 1.0
C      1  0.5479620000000  0.4412790000000  0.5684670000000 1.0
C      1  0.5559920000000  0.5591880000000  0.5262040000000 1.0
C      1  0.4080750000000  0.5161480000000  0.4558140000000 1.0
C      1  0.6044840000000  0.5811540000000  0.4885210000000 1.0
C      1  0.4883550000000  0.3967390000000  0.4437770000000 1.0
C      1  0.3888200000000  0.4463950000000  0.5316650000000 1.0
C      1  0.5051790000000  0.5780740000000  0.4965250000000 1.0
C      1  0.5820140000000  0.5777910000000  0.4273860000000 1.0
C      1  0.5323460000000  0.5854360000000  0.4892690000000 1.0
C      1  0.4456120000000  0.5385930000000  0.5164130000000 1.0
C      1  0.6152640000000  0.4952350000000  0.4395220000000 1.0
END
