TITL C-3866670-4165-656 -1.15536092177853e-06 125000 -548.859449967088 0 0 90 (C1) n - 1
REM
REM in /home/nfs/bkarasulu/CARBON/AIRSS/Generating-Clusters/LCBOP/Only-C1/SD-CG/FIRE-CG
REM
REM
REM
REM
REM
REM ./C.cell (11c1c37f851c82e70ff6c80c92926a4b)
REM AIRSS Version 0.9.1 bugfix July 2018 build 013d7b7c2542+ Fri, 06 Jul 2018 19:26:36 +0100
REM compiler GCC version 9.2.1 20190827 (Red Hat 9.2.1-1)
REM options -cpp -mtune=generic -march=x86-64 -g -O0 -fpre-include=/usr/include/finclude/math-vector-fortran.h
REM seed 441035796 -1486055476 523352530 618894214 2107779114 1057482697 -1114141509 -1825291921 -1362006625 -2020868500 1605737779 121341993 -180676493 1952904213 1072932683 1956010882 1839854287 1657989591 1582653430 -741026933 707309264 25809620 1358326905 1185766893 1097701779 -1804469694 -1550355304 -347095635 -620450993 -327849173 -1165154581 -1003222368 -2029513563
REM
CELL 1.54180   50.00000   50.00000   50.00000   90.00000   90.00000   90.00000
LATT -1
SFAC C  
C      1  0.4682740000000  0.5003930000000  0.4297280000000 1.0
C      1  0.5295860000000  0.3917630000000  0.5441800000000 1.0
C      1  0.4560640000000  0.4419650000000  0.4452680000000 1.0
C      1  0.5481040000000  0.4713010000000  0.4613460000000 1.0
C      1  0.5478800000000  0.4535880000000  0.4837200000000 1.0
C      1  0.4546220000000  0.5497060000000  0.5699390000000 1.0
C      1  0.4559200000000  0.4729270000000  0.5121770000000 1.0
C      1  0.4025060000000  0.5270470000000  0.4871700000000 1.0
C      1  0.5114410000000  0.5584520000000  0.4543820000000 1.0
C      1  0.5223260000000  0.5140260000000  0.4916790000000 1.0
C      1  0.4680660000000  0.5532910000000  0.4696850000000 1.0
C      1  0.5068000000000  0.3953450000000  0.5572600000000 1.0
C      1  0.5423660000000  0.4957250000000  0.5633370000000 1.0
C      1  0.4855250000000  0.5495850000000  0.4914430000000 1.0
C      1  0.4874830000000  0.5314070000000  0.5135590000000 1.0
C      1  0.5991340000000  0.5458690000000  0.5239950000000 1.0
C      1  0.4580220000000  0.5275400000000  0.4256190000000 1.0
C      1  0.4124430000000  0.4741010000000  0.4889100000000 1.0
C      1  0.4308250000000  0.5159250000000  0.5443240000000 1.0
C      1  0.4379640000000  0.4592100000000  0.4928070000000 1.0
C      1  0.5235050000000  0.5218930000000  0.6023710000000 1.0
C      1  0.4874490000000  0.5842620000000  0.5209040000000 1.0
C      1  0.4777480000000  0.3988810000000  0.4398670000000 1.0
C      1  0.5791400000000  0.5566640000000  0.5382160000000 1.0
C      1  0.4366670000000  0.5277860000000  0.4459580000000 1.0
C      1  0.4177900000000  0.5455660000000  0.5065810000000 1.0
C      1  0.5363010000000  0.5194680000000  0.5762860000000 1.0
C      1  0.3934930000000  0.4810940000000  0.5347400000000 1.0
C      1  0.4594870000000  0.5810800000000  0.5178780000000 1.0
C      1  0.4729030000000  0.5509970000000  0.4213680000000 1.0
C      1  0.5122570000000  0.4572340000000  0.4084950000000 1.0
C      1  0.5506190000000  0.3999170000000  0.5276650000000 1.0
C      1  0.5303340000000  0.5643890000000  0.5885810000000 1.0
C      1  0.5936400000000  0.4861270000000  0.5330480000000 1.0
C      1  0.4415920000000  0.4852860000000  0.4315210000000 1.0
C      1  0.4737060000000  0.4339360000000  0.5647160000000 1.0
C      1  0.4230430000000  0.5021020000000  0.4474920000000 1.0
C      1  0.4092940000000  0.4995160000000  0.4733520000000 1.0
C      1  0.5870090000000  0.4825790000000  0.4853340000000 1.0
C      1  0.4770150000000  0.4257530000000  0.4350780000000 1.0
C      1  0.4759040000000  0.4699970000000  0.5320890000000 1.0
C      1  0.3937170000000  0.4706410000000  0.5099860000000 1.0
C      1  0.5106780000000  0.5114940000000  0.4637960000000 1.0
C      1  0.5017110000000  0.4817680000000  0.5251580000000 1.0
C      1  0.4474010000000  0.5349590000000  0.4710880000000 1.0
C      1  0.5759680000000  0.4443060000000  0.5207330000000 1.0
C      1  0.5370560000000  0.5031700000000  0.4106760000000 1.0
C      1  0.5347730000000  0.5566530000000  0.5196400000000 1.0
C      1  0.4970240000000  0.4385200000000  0.4198330000000 1.0
C      1  0.4624500000000  0.4794620000000  0.5774020000000 1.0
C      1  0.5332430000000  0.4455290000000  0.5080970000000 1.0
C      1  0.4768810000000  0.5626110000000  0.3971470000000 1.0
C      1  0.5687060000000  0.3817040000000  0.5182370000000 1.0
C      1  0.4644410000000  0.4941140000000  0.4942880000000 1.0
C      1  0.4342370000000  0.5705750000000  0.5109170000000 1.0
C      1  0.5980510000000  0.4979220000000  0.5072550000000 1.0
C      1  0.6060860000000  0.5247730000000  0.5088350000000 1.0
C      1  0.5202520000000  0.5486300000000  0.6090670000000 1.0
C      1  0.4088520000000  0.4986260000000  0.5478920000000 1.0
C      1  0.4875660000000  0.4958850000000  0.4522650000000 1.0
C      1  0.4864570000000  0.4106920000000  0.5646420000000 1.0
C      1  0.5411510000000  0.5360470000000  0.4992200000000 1.0
C      1  0.4575480000000  0.4549150000000  0.4703330000000 1.0
C      1  0.5225880000000  0.5323050000000  0.4471100000000 1.0
C      1  0.4745300000000  0.4794840000000  0.4715910000000 1.0
C      1  0.4530510000000  0.5042120000000  0.5863270000000 1.0
C      1  0.4499800000000  0.5093330000000  0.6130030000000 1.0
C      1  0.4497580000000  0.5174450000000  0.4944090000000 1.0
C      1  0.5678660000000  0.5147990000000  0.4472960000000 1.0
C      1  0.5526330000000  0.4269610000000  0.5208410000000 1.0
C      1  0.5740950000000  0.4666680000000  0.5388500000000 1.0
C      1  0.5512670000000  0.5558660000000  0.5427020000000 1.0
C      1  0.4407610000000  0.4575820000000  0.4273460000000 1.0
C      1  0.5256820000000  0.4664900000000  0.5267110000000 1.0
C      1  0.5995270000000  0.5520300000000  0.4516820000000 1.0
C      1  0.4703840000000  0.4608230000000  0.5582280000000 1.0
C      1  0.5038630000000  0.5078310000000  0.5132430000000 1.0
C      1  0.5768290000000  0.4558600000000  0.4934930000000 1.0
C      1  0.5149170000000  0.5760730000000  0.5104860000000 1.0
C      1  0.4356780000000  0.5252930000000  0.5181750000000 1.0
C      1  0.5784030000000  0.5374790000000  0.4606030000000 1.0
C      1  0.4831360000000  0.5608070000000  0.4457400000000 1.0
C      1  0.5636110000000  0.5429730000000  0.4836300000000 1.0
C      1  0.5406610000000  0.5475540000000  0.5672300000000 1.0
C      1  0.5703190000000  0.4902230000000  0.4616370000000 1.0
C      1  0.4463870000000  0.5238130000000  0.5667410000000 1.0
C      1  0.5439970000000  0.5203800000000  0.4318390000000 1.0
C      1  0.5255990000000  0.4799230000000  0.4041000000000 1.0
C      1  0.5089440000000  0.5657200000000  0.4837330000000 1.0
C      1  0.5470370000000  0.4753810000000  0.5446750000000 1.0
END
