TITL C-3866674-3872-590 8260.4509447977 125000 -1190.6160072616 0 0 195 (C1) n - 1
REM
REM in /home/nfs/bkarasulu/CARBON/AIRSS/Generating-Clusters/LCBOP/Only-C1/SD-CG/FIRE-CG
REM
REM
REM
REM
REM
REM ./C.cell (11c1c37f851c82e70ff6c80c92926a4b)
REM AIRSS Version 0.9.1 bugfix July 2018 build 013d7b7c2542+ Fri, 06 Jul 2018 19:26:36 +0100
REM compiler GCC version 9.2.1 20190827 (Red Hat 9.2.1-1)
REM options -cpp -mtune=generic -march=x86-64 -g -O0 -fpre-include=/usr/include/finclude/math-vector-fortran.h
REM seed 1161549798 -475503031 2145821556 2103765572 699815825 1781371235 557650184 1378541931 651574565 659340419 -1934551019 1309224084 -1871996630 1337003827 -613357638 -1508224204 1474309390 1039335055 -727273227 -538266704 184808768 -1067426728 1755143675 129550175 -607257067 -1486419853 779122368 -1007611358 -366840185 -330343670 421772630 -50977854 2029958934
REM
CELL 1.54180   50.00000   50.00000   50.00000   90.00000   90.00000   90.00000
LATT -1
SFAC C  
C      1  0.4031300000000  0.4350430000000  0.4803020000000 1.0
C      1  0.3888380000000  0.4830950000000  0.5642900000000 1.0
C      1  0.5628000000000  0.4494200000000  0.3624930000000 1.0
C      1  0.5134070000000  0.3986860000000  0.4509750000000 1.0
C      1  0.6049000000000  0.4991660000000  0.4389470000000 1.0
C      1  0.5150630000000  0.5019370000000  0.5340810000000 1.0
C      1  0.4480900000000  0.4958770000000  0.4436520000000 1.0
C      1  0.3411660000000  0.4661770000000  0.4150160000000 1.0
C      1  0.4157470000000  0.4452130000000  0.6371720000000 1.0
C      1  0.5384560000000  0.4409990000000  0.4771080000000 1.0
C      1  0.5272370000000  0.5866120000000  0.5910710000000 1.0
C      1  0.6917830000000  0.4546740000000  0.5058420000000 1.0
C      1  0.5269610000000  0.4608950000000  0.5935850000000 1.0
C      1  0.4633570000000  0.4560260000000  0.4694560000000 1.0
C      1  0.4662260000000  0.3911190000000  0.4790310000000 1.0
C      1  0.5160400000000  0.4762060000000  0.5194660000000 1.0
C      1  0.5321700000000  0.5278250000000  0.4945790000000 1.0
C      1  0.4540490000000  0.5053890000000  0.6477160000000 1.0
C      1  0.5137030000000  0.6156910000000  0.5180690000000 1.0
C      1  0.6476280000000  0.4737820000000  0.5023760000000 1.0
C      1  0.5183280000000  0.5352600000000  0.3951310000000 1.0
C      1  0.3709380000000  0.4988540000000  0.4964590000000 1.0
C      1  0.4559260000000  0.5888870000000  0.5554890000000 1.0
C      1  0.4723630000000  0.5932160000000  0.5326850000000 1.0
C      1  0.4799790000000  0.5086520000000  0.6069040000000 1.0
C      1  0.5379580000000  0.4324290000000  0.5247430000000 1.0
C      1  0.4168320000000  0.4648370000000  0.5218170000000 1.0
C      1  0.5413440000000  0.6114730000000  0.5289550000000 1.0
C      1  0.6019000000000  0.4718590000000  0.4488460000000 1.0
C      1  0.5117980000000  0.5467550000000  0.4886410000000 1.0
C      1  0.4361220000000  0.5366800000000  0.5446480000000 1.0
C      1  0.6410740000000  0.5097520000000  0.4716930000000 1.0
C      1  0.4204790000000  0.4511780000000  0.6122510000000 1.0
C      1  0.5331680000000  0.3846790000000  0.5247580000000 1.0
C      1  0.4624470000000  0.5476280000000  0.5350770000000 1.0
C      1  0.5407440000000  0.4087660000000  0.5399800000000 1.0
C      1  0.4172190000000  0.4800810000000  0.3992230000000 1.0
C      1  0.5027730000000  0.5025810000000  0.4770080000000 1.0
C      1  0.4175000000000  0.4199730000000  0.5269140000000 1.0
C      1  0.5684110000000  0.5547910000000  0.5345380000000 1.0
C      1  0.4536110000000  0.5171200000000  0.6213670000000 1.0
C      1  0.5567230000000  0.4122860000000  0.4308130000000 1.0
C      1  0.5241230000000  0.4828100000000  0.4411320000000 1.0
C      1  0.3649000000000  0.4615810000000  0.4258340000000 1.0
C      1  0.5230630000000  0.5705130000000  0.4807290000000 1.0
C      1  0.4418400000000  0.6055880000000  0.4496960000000 1.0
C      1  0.4283480000000  0.5852030000000  0.5469660000000 1.0
C      1  0.4751170000000  0.3721220000000  0.4982540000000 1.0
C      1  0.4133860000000  0.5948430000000  0.5217190000000 1.0
C      1  0.4545160000000  0.5735410000000  0.4071450000000 1.0
C      1  0.5366290000000  0.4108400000000  0.5691910000000 1.0
C      1  0.4173580000000  0.5583210000000  0.5516210000000 1.0
C      1  0.3902040000000  0.4599830000000  0.4377330000000 1.0
C      1  0.5648570000000  0.4305340000000  0.4729980000000 1.0
C      1  0.4951610000000  0.4295870000000  0.5054920000000 1.0
C      1  0.3810700000000  0.5070100000000  0.5543710000000 1.0
C      1  0.4240070000000  0.5370330000000  0.4802570000000 1.0
C      1  0.6131560000000  0.5450040000000  0.4583920000000 1.0
C      1  0.5598180000000  0.5998920000000  0.5100650000000 1.0
C      1  0.5298450000000  0.3857400000000  0.4710170000000 1.0
C      1  0.4729250000000  0.4945970000000  0.5105620000000 1.0
C      1  0.5345070000000  0.5951400000000  0.5635640000000 1.0
C      1  0.4522980000000  0.4986370000000  0.4918380000000 1.0
C      1  0.5369260000000  0.4350770000000  0.5849340000000 1.0
C      1  0.5834580000000  0.4541950000000  0.4062660000000 1.0
C      1  0.4814120000000  0.4502930000000  0.4909130000000 1.0
C      1  0.5407870000000  0.6160490000000  0.4608730000000 1.0
C      1  0.6689620000000  0.4636380000000  0.5180610000000 1.0
C      1  0.3613390000000  0.5471680000000  0.4948610000000 1.0
C      1  0.4192530000000  0.4183230000000  0.4971850000000 1.0
C      1  0.4354620000000  0.5295990000000  0.3957850000000 1.0
C      1  0.5143730000000  0.5284210000000  0.5723960000000 1.0
C      1  0.5925080000000  0.4676170000000  0.5431560000000 1.0
C      1  0.4930360000000  0.5785530000000  0.4425350000000 1.0
C      1  0.5450920000000  0.6075290000000  0.4331280000000 1.0
C      1  0.5059660000000  0.5544260000000  0.4365920000000 1.0
C      1  0.4262580000000  0.4584820000000  0.5859430000000 1.0
C      1  0.4966180000000  0.4956440000000  0.6327090000000 1.0
C      1  0.3712330000000  0.5720440000000  0.4993670000000 1.0
C      1  0.5438820000000  0.5752230000000  0.6104930000000 1.0
C      1  0.5367620000000  0.5099900000000  0.4022920000000 1.0
C      1  0.4462030000000  0.5908520000000  0.4268710000000 1.0
C      1  0.5188380000000  0.5004260000000  0.5640630000000 1.0
C      1  0.4990750000000  0.5980520000000  0.5354380000000 1.0
C      1  0.6330230000000  0.5172010000000  0.5195600000000 1.0
C      1  0.3894150000000  0.5772650000000  0.5202610000000 1.0
C      1  0.4537060000000  0.4832830000000  0.4681870000000 1.0
C      1  0.5110570000000  0.5053570000000  0.4519310000000 1.0
C      1  0.5014260000000  0.5351790000000  0.5985810000000 1.0
C      1  0.4387950000000  0.5591670000000  0.4780590000000 1.0
C      1  0.5115520000000  0.3691890000000  0.5361140000000 1.0
C      1  0.5981920000000  0.5726270000000  0.5002900000000 1.0
C      1  0.6143590000000  0.4615020000000  0.5570430000000 1.0
C      1  0.2945710000000  0.4787710000000  0.3941750000000 1.0
C      1  0.5760030000000  0.5771780000000  0.5176290000000 1.0
C      1  0.3176300000000  0.4722740000000  0.4044570000000 1.0
C      1  0.5550570000000  0.5260140000000  0.4773560000000 1.0
C      1  0.4555790000000  0.4622030000000  0.5494850000000 1.0
C      1  0.5355770000000  0.4565610000000  0.4024430000000 1.0
C      1  0.3681720000000  0.5237070000000  0.5094190000000 1.0
C      1  0.6434750000000  0.5016280000000  0.4985660000000 1.0
C      1  0.5884840000000  0.4510870000000  0.4339000000000 1.0
C      1  0.5364910000000  0.4790170000000  0.6136730000000 1.0
C      1  0.5732530000000  0.4298160000000  0.4459170000000 1.0
C      1  0.5154520000000  0.5512950000000  0.5505360000000 1.0
C      1  0.5280090000000  0.4131450000000  0.4292320000000 1.0
C      1  0.4704320000000  0.6129480000000  0.4903020000000 1.0
C      1  0.4663110000000  0.4946570000000  0.4216940000000 1.0
C      1  0.5608340000000  0.4532110000000  0.3894270000000 1.0
C      1  0.5428060000000  0.5507120000000  0.6219450000000 1.0
C      1  0.4437950000000  0.6146050000000  0.4773820000000 1.0
C      1  0.5115890000000  0.3687580000000  0.5643840000000 1.0
C      1  0.5297350000000  0.4612140000000  0.4589930000000 1.0
C      1  0.5824740000000  0.4757040000000  0.5198950000000 1.0
C      1  0.4715170000000  0.5803740000000  0.5796090000000 1.0
C      1  0.6883720000000  0.4649250000000  0.5625990000000 1.0
C      1  0.5259780000000  0.4553420000000  0.5357630000000 1.0
C      1  0.5725530000000  0.5049050000000  0.4820620000000 1.0
C      1  0.3916200000000  0.4573880000000  0.4666510000000 1.0
C      1  0.5237000000000  0.5010960000000  0.6263460000000 1.0
C      1  0.5610460000000  0.5206320000000  0.4158130000000 1.0
C      1  0.5905500000000  0.5385860000000  0.5420030000000 1.0
C      1  0.5300510000000  0.4829950000000  0.4129460000000 1.0
C      1  0.4395650000000  0.4085220000000  0.5407610000000 1.0
C      1  0.4702160000000  0.5050730000000  0.5602300000000 1.0
C      1  0.4267690000000  0.5141470000000  0.4407170000000 1.0
C      1  0.4964710000000  0.6045900000000  0.4481330000000 1.0
C      1  0.4840850000000  0.5471370000000  0.4890840000000 1.0
C      1  0.4134680000000  0.4608270000000  0.4206660000000 1.0
C      1  0.4062070000000  0.4444290000000  0.5392010000000 1.0
C      1  0.5860700000000  0.4830550000000  0.4931740000000 1.0
C      1  0.4753750000000  0.4500790000000  0.3937480000000 1.0
C      1  0.5193860000000  0.4330220000000  0.4098930000000 1.0
C      1  0.6408660000000  0.4596370000000  0.5576760000000 1.0
C      1  0.4344560000000  0.4436870000000  0.4292070000000 1.0
C      1  0.4428450000000  0.4692040000000  0.5270420000000 1.0
C      1  0.4532500000000  0.4657380000000  0.5780940000000 1.0
C      1  0.3912240000000  0.5549890000000  0.5398830000000 1.0
C      1  0.4350460000000  0.5349540000000  0.6129370000000 1.0
C      1  0.4853190000000  0.3978320000000  0.4581210000000 1.0
C      1  0.6055770000000  0.4134060000000  0.4993970000000 1.0
C      1  0.4885330000000  0.5470760000000  0.5371480000000 1.0
C      1  0.5338170000000  0.5212310000000  0.5215350000000 1.0
C      1  0.5858870000000  0.5085910000000  0.4202600000000 1.0
C      1  0.5420200000000  0.5437600000000  0.5372630000000 1.0
C      1  0.4530420000000  0.4403320000000  0.4484470000000 1.0
C      1  0.5373150000000  0.3816250000000  0.4966730000000 1.0
C      1  0.5125420000000  0.6190560000000  0.4668310000000 1.0
C      1  0.6265860000000  0.4297510000000  0.4965860000000 1.0
C      1  0.5293640000000  0.5576970000000  0.4174240000000 1.0
C      1  0.5382250000000  0.5869370000000  0.4162480000000 1.0
C      1  0.4663760000000  0.5889230000000  0.5058030000000 1.0
C      1  0.4910670000000  0.4732230000000  0.5049420000000 1.0
C      1  0.4228160000000  0.6093370000000  0.4980800000000 1.0
C      1  0.5558470000000  0.6003170000000  0.4805590000000 1.0
C      1  0.4822620000000  0.5172270000000  0.4180320000000 1.0
C      1  0.4942140000000  0.4316660000000  0.3977230000000 1.0
C      1  0.5497290000000  0.5730330000000  0.4713560000000 1.0
C      1  0.4839840000000  0.5056680000000  0.5347210000000 1.0
C      1  0.4993340000000  0.6213660000000  0.4923430000000 1.0
C      1  0.6139340000000  0.5274450000000  0.5352220000000 1.0
C      1  0.4305380000000  0.5156530000000  0.4970510000000 1.0
C      1  0.6280060000000  0.4570330000000  0.4903460000000 1.0
C      1  0.4591820000000  0.5478540000000  0.3934420000000 1.0
C      1  0.6087230000000  0.5631200000000  0.4776230000000 1.0
C      1  0.5802260000000  0.4165660000000  0.4916530000000 1.0
C      1  0.5156820000000  0.5808190000000  0.5495850000000 1.0
C      1  0.3798260000000  0.4781450000000  0.4820440000000 1.0
C      1  0.5250970000000  0.5291500000000  0.6183680000000 1.0
C      1  0.4767330000000  0.4860250000000  0.5836110000000 1.0
C      1  0.4628860000000  0.5653450000000  0.4907870000000 1.0
C      1  0.5537860000000  0.5439650000000  0.4308330000000 1.0
C      1  0.5238680000000  0.3875760000000  0.5796580000000 1.0
C      1  0.5240540000000  0.4301710000000  0.4993350000000 1.0
C      1  0.4780020000000  0.4934640000000  0.6536820000000 1.0
C      1  0.4410310000000  0.4037090000000  0.4849180000000 1.0
C      1  0.5048290000000  0.4732230000000  0.5755160000000 1.0
C      1  0.5580390000000  0.5484010000000  0.4590640000000 1.0
C      1  0.4658620000000  0.4133350000000  0.5436100000000 1.0
C      1  0.6055130000000  0.4692280000000  0.4771650000000 1.0
C      1  0.4222870000000  0.5324840000000  0.4213540000000 1.0
C      1  0.4956830000000  0.5698430000000  0.5928070000000 1.0
C      1  0.4988710000000  0.5265810000000  0.4386220000000 1.0
C      1  0.4681720000000  0.4736910000000  0.4034850000000 1.0
C      1  0.4243630000000  0.5196360000000  0.5237450000000 1.0
C      1  0.6663850000000  0.4625900000000  0.5464770000000 1.0
C      1  0.5024590000000  0.4494520000000  0.5527000000000 1.0
C      1  0.4046910000000  0.4589180000000  0.5654440000000 1.0
C      1  0.3785030000000  0.5288930000000  0.5362060000000 1.0
C      1  0.4897350000000  0.3639990000000  0.5191680000000 1.0
C      1  0.4459260000000  0.5187640000000  0.5653360000000 1.0
C      1  0.4877770000000  0.4291570000000  0.5352770000000 1.0
C      1  0.4864870000000  0.5342850000000  0.3947450000000 1.0
C      1  0.6209730000000  0.5182440000000  0.4538090000000 1.0
C      1  0.4271150000000  0.5028890000000  0.3871440000000 1.0
END
