TITL C-3866669-3764-504 159.761504736071 125000 -1196.77486764569 0 0 196 (C1) n - 1
REM
REM in /home/nfs/bkarasulu/CARBON/AIRSS/Generating-Clusters/LCBOP/Only-C1/SD-CG/FIRE-CG
REM
REM
REM
REM
REM
REM ./C.cell (11c1c37f851c82e70ff6c80c92926a4b)
REM AIRSS Version 0.9.1 bugfix July 2018 build 013d7b7c2542+ Fri, 06 Jul 2018 19:26:36 +0100
REM compiler GCC version 9.2.1 20190827 (Red Hat 9.2.1-1)
REM options -cpp -mtune=generic -march=x86-64 -g -O0 -fpre-include=/usr/include/finclude/math-vector-fortran.h
REM seed -2060096953 246204457 257714807 1249226575 -850202296 1381473834 -1188705839 1397385806 568223549 -1773524929 705632772 1467706973 -290480683 -500968676 900971452 1230812339 -1598540506 2090760292 -116557451 1984271625 14636984 -1228503398 571049891 1689105818 -540140416 -753624159 -442537077 1801023147 -1090657622 918273575 1685952842 -991304462 895065980
REM
CELL 1.54180   50.00000   50.00000   50.00000   90.00000   90.00000   90.00000
LATT -1
SFAC C  
C      1  0.5054550000000  0.4843370000000  0.4556140000000 1.0
C      1  0.4730940000000  0.3984690000000  0.4467070000000 1.0
C      1  0.4511030000000  0.5059740000000  0.5669490000000 1.0
C      1  0.5223960000000  0.4040890000000  0.4383360000000 1.0
C      1  0.4735120000000  0.5410090000000  0.5012540000000 1.0
C      1  0.5135560000000  0.4865070000000  0.5409910000000 1.0
C      1  0.5794330000000  0.4083470000000  0.4737950000000 1.0
C      1  0.4576830000000  0.5231760000000  0.3919920000000 1.0
C      1  0.4602410000000  0.5518640000000  0.3984430000000 1.0
C      1  0.5340790000000  0.5823020000000  0.4138160000000 1.0
C      1  0.5695130000000  0.5098430000000  0.5302220000000 1.0
C      1  0.5580730000000  0.5688790000000  0.4227740000000 1.0
C      1  0.5513820000000  0.5681480000000  0.4831840000000 1.0
C      1  0.4392400000000  0.5587000000000  0.4186520000000 1.0
C      1  0.4869680000000  0.5333110000000  0.4385360000000 1.0
C      1  0.4959800000000  0.6239290000000  0.5116290000000 1.0
C      1  0.4932650000000  0.5852630000000  0.5770740000000 1.0
C      1  0.6060360000000  0.5649170000000  0.4835740000000 1.0
C      1  0.3667080000000  0.5111190000000  0.4667700000000 1.0
C      1  0.5169170000000  0.5445830000000  0.5220620000000 1.0
C      1  0.4486930000000  0.5957550000000  0.5688020000000 1.0
C      1  0.5010810000000  0.5972410000000  0.5518460000000 1.0
C      1  0.5317330000000  0.5219190000000  0.4537330000000 1.0
C      1  0.6038320000000  0.4557160000000  0.4719530000000 1.0
C      1  0.4477300000000  0.3839840000000  0.5184790000000 1.0
C      1  0.6286190000000  0.5234830000000  0.4966780000000 1.0
C      1  0.4982440000000  0.6265860000000  0.4616670000000 1.0
C      1  0.4550070000000  0.4281350000000  0.3903120000000 1.0
C      1  0.4813490000000  0.5058330000000  0.3900720000000 1.0
C      1  0.4811410000000  0.4920690000000  0.4152310000000 1.0
C      1  0.3746900000000  0.4365150000000  0.4738300000000 1.0
C      1  0.4431330000000  0.5787770000000  0.4385770000000 1.0
C      1  0.5476990000000  0.4692200000000  0.3902150000000 1.0
C      1  0.5670910000000  0.6030580000000  0.5844440000000 1.0
C      1  0.4228790000000  0.5948270000000  0.4495850000000 1.0
C      1  0.5144820000000  0.4546000000000  0.6213050000000 1.0
C      1  0.3922230000000  0.4814150000000  0.5072820000000 1.0
C      1  0.5418700000000  0.5473830000000  0.5404070000000 1.0
C      1  0.5482150000000  0.5091870000000  0.4111670000000 1.0
C      1  0.4928540000000  0.4858220000000  0.4997810000000 1.0
C      1  0.6174350000000  0.4041650000000  0.5779480000000 1.0
C      1  0.4609480000000  0.4733760000000  0.4221300000000 1.0
C      1  0.4110940000000  0.4465170000000  0.3997850000000 1.0
C      1  0.4339440000000  0.4847250000000  0.4166310000000 1.0
C      1  0.6068720000000  0.4269160000000  0.5708780000000 1.0
C      1  0.5253750000000  0.4283960000000  0.6269030000000 1.0
C      1  0.4924560000000  0.4685030000000  0.6094590000000 1.0
C      1  0.4371830000000  0.5927650000000  0.5219740000000 1.0
C      1  0.5081540000000  0.4007240000000  0.4990120000000 1.0
C      1  0.5659980000000  0.4912760000000  0.3975600000000 1.0
C      1  0.5108900000000  0.5688790000000  0.5911900000000 1.0
C      1  0.5508170000000  0.4248660000000  0.6158960000000 1.0
C      1  0.4912630000000  0.5291440000000  0.5723680000000 1.0
C      1  0.4901770000000  0.5617030000000  0.4463870000000 1.0
C      1  0.4098570000000  0.4137260000000  0.5122300000000 1.0
C      1  0.5027830000000  0.3975900000000  0.5705210000000 1.0
C      1  0.5144930000000  0.5261990000000  0.4754460000000 1.0
C      1  0.5507570000000  0.5249400000000  0.6223580000000 1.0
C      1  0.4671400000000  0.5780200000000  0.4541180000000 1.0
C      1  0.4806440000000  0.5020680000000  0.5760750000000 1.0
C      1  0.4683260000000  0.5912430000000  0.4830030000000 1.0
C      1  0.6114940000000  0.4732940000000  0.5159550000000 1.0
C      1  0.4170150000000  0.4709570000000  0.5027470000000 1.0
C      1  0.5304530000000  0.4292060000000  0.4491830000000 1.0
C      1  0.6112560000000  0.4784760000000  0.4877460000000 1.0
C      1  0.4740040000000  0.4512950000000  0.4361540000000 1.0
C      1  0.4893380000000  0.3586970000000  0.4905580000000 1.0
C      1  0.5852340000000  0.6113120000000  0.5661400000000 1.0
C      1  0.5148260000000  0.6236300000000  0.4408890000000 1.0
C      1  0.5790000000000  0.5600780000000  0.4379650000000 1.0
C      1  0.4956300000000  0.4998040000000  0.5244300000000 1.0
C      1  0.4654250000000  0.5794380000000  0.5853080000000 1.0
C      1  0.4710210000000  0.4238280000000  0.6032690000000 1.0
C      1  0.5561110000000  0.5434060000000  0.4969110000000 1.0
C      1  0.4303600000000  0.4707210000000  0.4772560000000 1.0
C      1  0.4033290000000  0.4821040000000  0.5680970000000 1.0
C      1  0.4232120000000  0.5342330000000  0.4262920000000 1.0
C      1  0.5524660000000  0.4768160000000  0.4522420000000 1.0
C      1  0.4514880000000  0.3824600000000  0.4556710000000 1.0
C      1  0.3898760000000  0.4676410000000  0.4363180000000 1.0
C      1  0.4133980000000  0.4348360000000  0.5632400000000 1.0
C      1  0.3610070000000  0.4849060000000  0.4690830000000 1.0
C      1  0.5905000000000  0.5881550000000  0.4946720000000 1.0
C      1  0.4182830000000  0.4163020000000  0.5414620000000 1.0
C      1  0.4322690000000  0.5211220000000  0.4774620000000 1.0
C      1  0.5012390000000  0.4848990000000  0.5869360000000 1.0
C      1  0.5469310000000  0.4503390000000  0.4380030000000 1.0
C      1  0.4092270000000  0.4697320000000  0.4159320000000 1.0
C      1  0.4343280000000  0.5126240000000  0.4087160000000 1.0
C      1  0.5980580000000  0.5463010000000  0.5666060000000 1.0
C      1  0.4146870000000  0.5291580000000  0.4546360000000 1.0
C      1  0.3562810000000  0.4181430000000  0.4645230000000 1.0
C      1  0.4815790000000  0.5699080000000  0.5007710000000 1.0
C      1  0.4402850000000  0.3966630000000  0.5433010000000 1.0
C      1  0.5514270000000  0.4048100000000  0.5134610000000 1.0
C      1  0.3993240000000  0.6212050000000  0.4829460000000 1.0
C      1  0.5095500000000  0.4382670000000  0.4665900000000 1.0
C      1  0.4960930000000  0.5046360000000  0.4361360000000 1.0
C      1  0.5701100000000  0.5266670000000  0.6035110000000 1.0
C      1  0.5090830000000  0.5018300000000  0.3814750000000 1.0
C      1  0.5129260000000  0.5721460000000  0.4581630000000 1.0
C      1  0.3960020000000  0.4571380000000  0.5606240000000 1.0
C      1  0.4871340000000  0.4073670000000  0.5897450000000 1.0
C      1  0.5020590000000  0.4271480000000  0.4915660000000 1.0
C      1  0.4701930000000  0.5289230000000  0.6186650000000 1.0
C      1  0.6151480000000  0.5057890000000  0.4787700000000 1.0
C      1  0.5571770000000  0.4842760000000  0.5715300000000 1.0
C      1  0.4262290000000  0.4949320000000  0.5736120000000 1.0
C      1  0.5161570000000  0.3936850000000  0.5478220000000 1.0
C      1  0.5088900000000  0.3786760000000  0.4783230000000 1.0
C      1  0.3868800000000  0.5273350000000  0.4599000000000 1.0
C      1  0.5199310000000  0.4741080000000  0.3795380000000 1.0
C      1  0.5942960000000  0.4507300000000  0.5631520000000 1.0
C      1  0.5380890000000  0.4677170000000  0.6090110000000 1.0
C      1  0.4585520000000  0.5006900000000  0.6201860000000 1.0
C      1  0.4859490000000  0.5241060000000  0.4804970000000 1.0
C      1  0.5968340000000  0.5491840000000  0.4584040000000 1.0
C      1  0.5250130000000  0.5242190000000  0.6312900000000 1.0
C      1  0.5533000000000  0.5801420000000  0.5817460000000 1.0
C      1  0.5480760000000  0.4759500000000  0.4848520000000 1.0
C      1  0.5913920000000  0.5942130000000  0.5443660000000 1.0
C      1  0.5772170000000  0.5981970000000  0.5199060000000 1.0
C      1  0.4432070000000  0.5355160000000  0.5012630000000 1.0
C      1  0.5461460000000  0.5610620000000  0.5642790000000 1.0
C      1  0.4275070000000  0.3936850000000  0.4995100000000 1.0
C      1  0.5260050000000  0.6304330000000  0.5132920000000 1.0
C      1  0.4311750000000  0.3852540000000  0.4730770000000 1.0
C      1  0.5116230000000  0.5710850000000  0.3996320000000 1.0
C      1  0.5602310000000  0.4485790000000  0.6023750000000 1.0
C      1  0.5360340000000  0.6550160000000  0.5070030000000 1.0
C      1  0.4915820000000  0.4413760000000  0.5127590000000 1.0
C      1  0.4282950000000  0.4483200000000  0.4585840000000 1.0
C      1  0.4333620000000  0.4670190000000  0.5248920000000 1.0
C      1  0.5279700000000  0.5192200000000  0.3941630000000 1.0
C      1  0.4605860000000  0.5288480000000  0.4463880000000 1.0
C      1  0.5218520000000  0.5900910000000  0.5321810000000 1.0
C      1  0.4318890000000  0.4292270000000  0.4075990000000 1.0
C      1  0.4522300000000  0.4455920000000  0.6031030000000 1.0
C      1  0.5561600000000  0.4327100000000  0.5141960000000 1.0
C      1  0.5295040000000  0.5316430000000  0.4978580000000 1.0
C      1  0.4494620000000  0.5299960000000  0.5494790000000 1.0
C      1  0.4360390000000  0.4294960000000  0.4370460000000 1.0
C      1  0.5312880000000  0.4847560000000  0.5860200000000 1.0
C      1  0.5367110000000  0.4764900000000  0.5320670000000 1.0
C      1  0.4201310000000  0.6051120000000  0.4757600000000 1.0
C      1  0.5501890000000  0.4487810000000  0.4097930000000 1.0
C      1  0.5054970000000  0.5416270000000  0.5927360000000 1.0
C      1  0.4908970000000  0.3321670000000  0.4840940000000 1.0
C      1  0.5399610000000  0.3739650000000  0.4776100000000 1.0
C      1  0.4818220000000  0.6128270000000  0.5358620000000 1.0
C      1  0.5252440000000  0.3973250000000  0.5218000000000 1.0
C      1  0.4950030000000  0.4580160000000  0.4526930000000 1.0
C      1  0.5722670000000  0.4600030000000  0.5786150000000 1.0
C      1  0.5245720000000  0.5754700000000  0.4830700000000 1.0
C      1  0.6028770000000  0.5065410000000  0.4300710000000 1.0
C      1  0.4772140000000  0.5383320000000  0.5498350000000 1.0
C      1  0.6041610000000  0.4639780000000  0.5400500000000 1.0
C      1  0.4732520000000  0.4977360000000  0.4830770000000 1.0
C      1  0.5465430000000  0.5031750000000  0.4391650000000 1.0
C      1  0.5106930000000  0.5726660000000  0.5098990000000 1.0
C      1  0.5611550000000  0.4483280000000  0.4911180000000 1.0
C      1  0.6016260000000  0.5687450000000  0.5521010000000 1.0
C      1  0.4855380000000  0.5648920000000  0.3948600000000 1.0
C      1  0.5169070000000  0.4821910000000  0.4835550000000 1.0
C      1  0.5642990000000  0.5370450000000  0.5236910000000 1.0
C      1  0.6249190000000  0.5502040000000  0.4989120000000 1.0
C      1  0.5601380000000  0.3921590000000  0.4883470000000 1.0
C      1  0.5291800000000  0.6082890000000  0.4242990000000 1.0
C      1  0.4300630000000  0.4386350000000  0.5865170000000 1.0
C      1  0.4407500000000  0.5977050000000  0.4940350000000 1.0
C      1  0.5004150000000  0.5304380000000  0.6188170000000 1.0
C      1  0.5815890000000  0.5257800000000  0.5772410000000 1.0
C      1  0.5552340000000  0.4895900000000  0.5146320000000 1.0
C      1  0.5686920000000  0.5886330000000  0.4764250000000 1.0
C      1  0.4459460000000  0.4949860000000  0.4755210000000 1.0
C      1  0.4784130000000  0.4379880000000  0.3807150000000 1.0
C      1  0.4645010000000  0.4247030000000  0.4393280000000 1.0
C      1  0.4907560000000  0.5303290000000  0.5254640000000 1.0
C      1  0.4541800000000  0.6048310000000  0.5417200000000 1.0
C      1  0.4541990000000  0.4585290000000  0.5386880000000 1.0
C      1  0.5429200000000  0.6078740000000  0.5227970000000 1.0
C      1  0.4772810000000  0.4464330000000  0.5343710000000 1.0
C      1  0.4601120000000  0.5555190000000  0.6042050000000 1.0
C      1  0.5004970000000  0.3900770000000  0.4510830000000 1.0
C      1  0.4695370000000  0.3687480000000  0.5089130000000 1.0
C      1  0.4336800000000  0.5416450000000  0.5280490000000 1.0
C      1  0.3751350000000  0.4620980000000  0.4600020000000 1.0
C      1  0.5921950000000  0.4941810000000  0.4082600000000 1.0
C      1  0.3910850000000  0.4278130000000  0.4959060000000 1.0
C      1  0.5007320000000  0.4528570000000  0.3768750000000 1.0
C      1  0.5711990000000  0.5056670000000  0.5591920000000 1.0
C      1  0.4861250000000  0.6164480000000  0.4850820000000 1.0
C      1  0.4243860000000  0.5684230000000  0.5298900000000 1.0
C      1  0.4638220000000  0.4714040000000  0.6137790000000 1.0
C      1  0.6044980000000  0.5200030000000  0.4553770000000 1.0
C      1  0.5826700000000  0.4370740000000  0.4754570000000 1.0
END
