TITL C-3866676-3738-521 0.000630510492710268 125000 -370.298695170873 0 0 62 (C1) n - 1
REM
REM in /home/nfs/bkarasulu/CARBON/AIRSS/Generating-Clusters/LCBOP/Only-C1/SD-CG/FIRE-CG
REM
REM
REM
REM
REM
REM ./C.cell (11c1c37f851c82e70ff6c80c92926a4b)
REM AIRSS Version 0.9.1 bugfix July 2018 build 013d7b7c2542+ Fri, 06 Jul 2018 19:26:36 +0100
REM compiler GCC version 9.2.1 20190827 (Red Hat 9.2.1-1)
REM options -cpp -mtune=generic -march=x86-64 -g -O0 -fpre-include=/usr/include/finclude/math-vector-fortran.h
REM seed 1670379817 -1511427074 1203865891 -106673118 1143165554 628657923 -444669720 -1675789635 -917777419 -2022358637 1496509586 1085525387 -1384351459 -1849699614 -440963683 -1501374655 2092953525 1319479083 1134748513 -791968731 -1158002807 -1726800995 -535687821 467258649 844997887 -1807725095 1663689158 1883292488 628055245 1835136804 -1679079581 -2110871356 -207569745
REM
CELL 1.54180   50.00000   50.00000   50.00000   90.00000   90.00000   90.00000
LATT -1
SFAC C  
C      1  0.5410750000000  0.4255140000000  0.5752820000000 1.0
C      1  0.5611960000000  0.4797430000000  0.4315300000000 1.0
C      1  0.5479410000000  0.4462250000000  0.4712350000000 1.0
C      1  0.5752530000000  0.5000690000000  0.5709390000000 1.0
C      1  0.4164250000000  0.4693990000000  0.4904930000000 1.0
C      1  0.5055970000000  0.4524000000000  0.5563480000000 1.0
C      1  0.5379100000000  0.5058490000000  0.5401840000000 1.0
C      1  0.4838740000000  0.5716640000000  0.5035010000000 1.0
C      1  0.4707150000000  0.4934510000000  0.4403020000000 1.0
C      1  0.4428900000000  0.5816570000000  0.5846600000000 1.0
C      1  0.4576560000000  0.4512610000000  0.4669880000000 1.0
C      1  0.4789940000000  0.5727740000000  0.4757230000000 1.0
C      1  0.5100950000000  0.4773600000000  0.4196460000000 1.0
C      1  0.5549220000000  0.4622880000000  0.5471830000000 1.0
C      1  0.4807740000000  0.5246670000000  0.5626540000000 1.0
C      1  0.5109470000000  0.5001020000000  0.5360530000000 1.0
C      1  0.4699250000000  0.4369440000000  0.4882950000000 1.0
C      1  0.5778080000000  0.5619490000000  0.4571090000000 1.0
C      1  0.5568900000000  0.4900720000000  0.5535020000000 1.0
C      1  0.5512980000000  0.5707260000000  0.4538060000000 1.0
C      1  0.5250440000000  0.5751260000000  0.4530350000000 1.0
C      1  0.4819380000000  0.5607270000000  0.5279810000000 1.0
C      1  0.5242260000000  0.4507150000000  0.4826420000000 1.0
C      1  0.4728820000000  0.4688730000000  0.5901000000000 1.0
C      1  0.5713460000000  0.4616460000000  0.4751760000000 1.0
C      1  0.4738340000000  0.5504550000000  0.5531640000000 1.0
C      1  0.5718950000000  0.4542020000000  0.5261190000000 1.0
C      1  0.4782270000000  0.4328010000000  0.5135710000000 1.0
C      1  0.5836020000000  0.5347870000000  0.4614990000000 1.0
C      1  0.4579480000000  0.5666940000000  0.5695420000000 1.0
C      1  0.4085520000000  0.4805300000000  0.5378230000000 1.0
C      1  0.4943210000000  0.5003340000000  0.5590720000000 1.0
C      1  0.4235510000000  0.4823940000000  0.5143790000000 1.0
C      1  0.4080060000000  0.4759860000000  0.5640510000000 1.0
C      1  0.4793050000000  0.5139940000000  0.4819970000000 1.0
C      1  0.4468670000000  0.4680280000000  0.5957780000000 1.0
C      1  0.5846270000000  0.5081760000000  0.4622740000000 1.0
C      1  0.5813520000000  0.4593520000000  0.5014350000000 1.0
C      1  0.4222450000000  0.4709910000000  0.5860140000000 1.0
C      1  0.4904750000000  0.4378920000000  0.5369820000000 1.0
C      1  0.5378950000000  0.4779510000000  0.4186270000000 1.0
C      1  0.4303730000000  0.4573800000000  0.4709820000000 1.0
C      1  0.4746800000000  0.4979280000000  0.5043410000000 1.0
C      1  0.4976810000000  0.5285440000000  0.4190990000000 1.0
C      1  0.4931780000000  0.5007320000000  0.4222280000000 1.0
C      1  0.4532710000000  0.5620380000000  0.4663690000000 1.0
C      1  0.5311430000000  0.5272740000000  0.4845730000000 1.0
C      1  0.4979100000000  0.5686720000000  0.4534190000000 1.0
C      1  0.5338750000000  0.4468100000000  0.5594120000000 1.0
C      1  0.4992010000000  0.4873000000000  0.5139480000000 1.0
C      1  0.4638180000000  0.5144070000000  0.4582280000000 1.0
C      1  0.4493400000000  0.4936090000000  0.5149420000000 1.0
C      1  0.5120950000000  0.4677210000000  0.4989910000000 1.0
C      1  0.4948220000000  0.4555730000000  0.4313100000000 1.0
C      1  0.5982750000000  0.5801180000000  0.4560420000000 1.0
C      1  0.4920940000000  0.4740820000000  0.5704930000000 1.0
C      1  0.4862380000000  0.5492810000000  0.4346500000000 1.0
C      1  0.4283500000000  0.5701220000000  0.4732100000000 1.0
C      1  0.5750210000000  0.4825880000000  0.4560810000000 1.0
C      1  0.4717640000000  0.4646360000000  0.4463820000000 1.0
C      1  0.5055690000000  0.5243430000000  0.4805720000000 1.0
C      1  0.4609790000000  0.5410770000000  0.4480310000000 1.0
END
