TITL C-3866676-3738-137 -2.98063850767364e-07 125000 -673.382742566193 0 0 111 (C1) n - 1
REM
REM in /home/nfs/bkarasulu/CARBON/AIRSS/Generating-Clusters/LCBOP/Only-C1/SD-CG/HFTN-CG/FIRE-CG
REM
REM
REM
REM
REM
REM ./C.cell (11c1c37f851c82e70ff6c80c92926a4b)
REM AIRSS Version 0.9.1 bugfix July 2018 build 013d7b7c2542+ Fri, 06 Jul 2018 19:26:36 +0100
REM compiler GCC version 9.2.1 20190827 (Red Hat 9.2.1-1)
REM options -cpp -mtune=generic -march=x86-64 -g -O0 -fpre-include=/usr/include/finclude/math-vector-fortran.h
REM seed -331912933 828821322 -1024626380 621771344 1649624181 1457645484 821436975 2063625300 252463206 -1996287316 1763963861 1269568612 -919348565 1516050801 2070126313 -1677415631 -992699447 1295295358 238220492 -298971960 1147066726 2072784723 1879787686 -608920393 -271977824 1169988447 318177592 1276295507 1001223874 494129874 798573859 1858694427 1776996183
REM
CELL 1.54180   50.00000   50.00000   50.00000   90.00000   90.00000   90.00000
LATT -1
SFAC C  
C      1  0.5595910000000  0.5686750000000  0.4393960000000 1.0
C      1  0.4606020000000  0.4699690000000  0.4751530000000 1.0
C      1  0.4379330000000  0.5707160000000  0.4923320000000 1.0
C      1  0.5995900000000  0.4906930000000  0.4701040000000 1.0
C      1  0.5142450000000  0.4393420000000  0.5182450000000 1.0
C      1  0.5672430000000  0.4307180000000  0.5508250000000 1.0
C      1  0.5721620000000  0.4268840000000  0.4981150000000 1.0
C      1  0.4716140000000  0.5344980000000  0.5193960000000 1.0
C      1  0.5175990000000  0.4663590000000  0.5245810000000 1.0
C      1  0.4350620000000  0.4522730000000  0.4328250000000 1.0
C      1  0.5236630000000  0.5708120000000  0.5506390000000 1.0
C      1  0.6010530000000  0.5185200000000  0.4790880000000 1.0
C      1  0.4872770000000  0.5837580000000  0.4492290000000 1.0
C      1  0.5029490000000  0.5355230000000  0.4545230000000 1.0
C      1  0.4397310000000  0.4506710000000  0.5493280000000 1.0
C      1  0.4404550000000  0.4151540000000  0.5175370000000 1.0
C      1  0.4349070000000  0.5656440000000  0.5203890000000 1.0
C      1  0.4199410000000  0.4702360000000  0.4504530000000 1.0
C      1  0.4911160000000  0.4500360000000  0.5918530000000 1.0
C      1  0.5552180000000  0.5013300000000  0.5103010000000 1.0
C      1  0.5027590000000  0.6017050000000  0.4652560000000 1.0
C      1  0.4460920000000  0.4227980000000  0.5460900000000 1.0
C      1  0.4953110000000  0.4817190000000  0.5337720000000 1.0
C      1  0.5889690000000  0.5328110000000  0.4559070000000 1.0
C      1  0.5146900000000  0.5317040000000  0.5839360000000 1.0
C      1  0.4483630000000  0.4647830000000  0.5256310000000 1.0
C      1  0.5424630000000  0.5509460000000  0.4226520000000 1.0
C      1  0.5001610000000  0.5600970000000  0.4401980000000 1.0
C      1  0.4741230000000  0.4878810000000  0.4102750000000 1.0
C      1  0.5184330000000  0.4585300000000  0.5968200000000 1.0
C      1  0.5580800000000  0.4363830000000  0.4480360000000 1.0
C      1  0.5715580000000  0.5798100000000  0.5491410000000 1.0
C      1  0.4615190000000  0.4147800000000  0.5681850000000 1.0
C      1  0.5824730000000  0.4880860000000  0.4485100000000 1.0
C      1  0.5535120000000  0.5712620000000  0.4880800000000 1.0
C      1  0.5412460000000  0.4493760000000  0.4316080000000 1.0
C      1  0.4974020000000  0.4478590000000  0.4522880000000 1.0
C      1  0.5181160000000  0.5590310000000  0.5764540000000 1.0
C      1  0.5171120000000  0.5231750000000  0.5082110000000 1.0
C      1  0.4996410000000  0.6001660000000  0.5173130000000 1.0
C      1  0.5717220000000  0.5136060000000  0.4407570000000 1.0
C      1  0.5017560000000  0.5773370000000  0.5334950000000 1.0
C      1  0.5676230000000  0.4292410000000  0.4719320000000 1.0
C      1  0.5061160000000  0.4126610000000  0.5208390000000 1.0
C      1  0.3957450000000  0.4748730000000  0.4645470000000 1.0
C      1  0.5423170000000  0.4787280000000  0.5178860000000 1.0
C      1  0.5859610000000  0.5587200000000  0.4451910000000 1.0
C      1  0.4200600000000  0.4325150000000  0.5063320000000 1.0
C      1  0.5930880000000  0.5207100000000  0.5322750000000 1.0
C      1  0.5129430000000  0.4004010000000  0.5453100000000 1.0
C      1  0.5056440000000  0.4849950000000  0.4782160000000 1.0
C      1  0.4435320000000  0.4279270000000  0.4464590000000 1.0
C      1  0.4954080000000  0.5353360000000  0.3996030000000 1.0
C      1  0.4409700000000  0.5489370000000  0.4735400000000 1.0
C      1  0.5229920000000  0.5160290000000  0.5596910000000 1.0
C      1  0.4395580000000  0.5514730000000  0.5436150000000 1.0
C      1  0.4859590000000  0.4238220000000  0.5798950000000 1.0
C      1  0.5200870000000  0.4886380000000  0.4534650000000 1.0
C      1  0.4462870000000  0.5929810000000  0.4753100000000 1.0
C      1  0.4843480000000  0.5563890000000  0.5274070000000 1.0
C      1  0.5828530000000  0.4204900000000  0.5949770000000 1.0
C      1  0.4994510000000  0.5336360000000  0.3718150000000 1.0
C      1  0.5161470000000  0.4644510000000  0.4345890000000 1.0
C      1  0.5246720000000  0.4866330000000  0.6012760000000 1.0
C      1  0.5035520000000  0.5311820000000  0.3461980000000 1.0
C      1  0.4711570000000  0.5122830000000  0.5658390000000 1.0
C      1  0.4874340000000  0.4632990000000  0.4743140000000 1.0
C      1  0.5445830000000  0.5279540000000  0.5097050000000 1.0
C      1  0.5230990000000  0.5155170000000  0.4460460000000 1.0
C      1  0.5045280000000  0.5088880000000  0.6006190000000 1.0
C      1  0.4687930000000  0.4830240000000  0.5229930000000 1.0
C      1  0.5465620000000  0.5237980000000  0.4326140000000 1.0
C      1  0.4206570000000  0.5089620000000  0.5530090000000 1.0
C      1  0.5749050000000  0.5149420000000  0.5515410000000 1.0
C      1  0.5402160000000  0.4418390000000  0.5903110000000 1.0
C      1  0.5634610000000  0.4310000000000  0.5787200000000 1.0
C      1  0.4963890000000  0.6080610000000  0.4919300000000 1.0
C      1  0.4617720000000  0.5096430000000  0.5165940000000 1.0
C      1  0.4856800000000  0.4030730000000  0.5040860000000 1.0
C      1  0.4858230000000  0.5270390000000  0.4751230000000 1.0
C      1  0.4732070000000  0.5184970000000  0.4114950000000 1.0
C      1  0.5301410000000  0.6027350000000  0.4589420000000 1.0
C      1  0.5501700000000  0.4943160000000  0.5899100000000 1.0
C      1  0.4726940000000  0.4718320000000  0.5950050000000 1.0
C      1  0.4587690000000  0.5835450000000  0.4499750000000 1.0
C      1  0.4071550000000  0.4859290000000  0.5431390000000 1.0
C      1  0.6019190000000  0.5238490000000  0.5068380000000 1.0
C      1  0.4579480000000  0.5263020000000  0.4749010000000 1.0
C      1  0.5131940000000  0.5537070000000  0.4150810000000 1.0
C      1  0.5488400000000  0.5822580000000  0.4621740000000 1.0
C      1  0.4774870000000  0.5001000000000  0.5922470000000 1.0
C      1  0.3895820000000  0.4834900000000  0.4899300000000 1.0
C      1  0.4516010000000  0.4140830000000  0.4687540000000 1.0
C      1  0.5002670000000  0.4756970000000  0.4117130000000 1.0
C      1  0.4532440000000  0.5296240000000  0.4303380000000 1.0
C      1  0.4590510000000  0.4078660000000  0.4962990000000 1.0
C      1  0.4253020000000  0.4603510000000  0.5088200000000 1.0
C      1  0.4416250000000  0.4851550000000  0.4612140000000 1.0
C      1  0.5507240000000  0.5077600000000  0.5644680000000 1.0
C      1  0.5513900000000  0.5556570000000  0.5117290000000 1.0
C      1  0.5004320000000  0.5093620000000  0.4912560000000 1.0
C      1  0.5493280000000  0.5687100000000  0.5375480000000 1.0
C      1  0.4154250000000  0.4624640000000  0.5584950000000 1.0
C      1  0.5075350000000  0.4077470000000  0.5707230000000 1.0
C      1  0.4041150000000  0.4794360000000  0.5140290000000 1.0
C      1  0.5721400000000  0.4276440000000  0.5247870000000 1.0
C      1  0.4523310000000  0.4682860000000  0.4146160000000 1.0
C      1  0.4975160000000  0.5048670000000  0.5507710000000 1.0
C      1  0.4466250000000  0.5571060000000  0.4444350000000 1.0
C      1  0.4481600000000  0.5105430000000  0.4529600000000 1.0
C      1  0.4442560000000  0.5253380000000  0.5566670000000 1.0
END
