TITL C-3866673-4222-521 -2.9231235103817e-06 125000 -486.432709123657 0 0 80 (C1) n - 1
REM
REM in /home/nfs/bkarasulu/CARBON/AIRSS/Generating-Clusters/LCBOP/Only-C1/SD-CG/FIRE-CG
REM
REM
REM
REM
REM
REM ./C.cell (11c1c37f851c82e70ff6c80c92926a4b)
REM AIRSS Version 0.9.1 bugfix July 2018 build 013d7b7c2542+ Fri, 06 Jul 2018 19:26:36 +0100
REM compiler GCC version 9.2.1 20190827 (Red Hat 9.2.1-1)
REM options -cpp -mtune=generic -march=x86-64 -g -O0 -fpre-include=/usr/include/finclude/math-vector-fortran.h
REM seed -2100520095 71230054 114302515 -310382616 -461574953 699072119 1444393728 1298117400 -331697344 1744831631 -91360541 -1239875334 -1992139645 424185860 1555254145 -1298880803 -1807941356 -458887429 1478793582 86536672 2094496329 1994831271 -706329644 -806951944 -823203046 1689810167 1666419078 522223680 963869522 -1770220817 920395179 814240880 1132777942
REM
CELL 1.54180   50.00000   50.00000   50.00000   90.00000   90.00000   90.00000
LATT -1
SFAC C  
C      1  0.5004030000000  0.5928420000000  0.4836710000000 1.0
C      1  0.4795490000000  0.5493400000000  0.4847320000000 1.0
C      1  0.5439300000000  0.4603400000000  0.4407050000000 1.0
C      1  0.4771750000000  0.5242570000000  0.5260230000000 1.0
C      1  0.5322230000000  0.4796920000000  0.4233050000000 1.0
C      1  0.5718760000000  0.5408290000000  0.4824560000000 1.0
C      1  0.4717130000000  0.4382310000000  0.4204220000000 1.0
C      1  0.5321670000000  0.4034530000000  0.4864060000000 1.0
C      1  0.5267890000000  0.5543970000000  0.4761700000000 1.0
C      1  0.4662520000000  0.4092060000000  0.5394990000000 1.0
C      1  0.4898690000000  0.5005650000000  0.4086680000000 1.0
C      1  0.4473350000000  0.5718450000000  0.5642530000000 1.0
C      1  0.5585410000000  0.4410050000000  0.5186310000000 1.0
C      1  0.4414380000000  0.5441130000000  0.5653470000000 1.0
C      1  0.5693830000000  0.5449300000000  0.5104360000000 1.0
C      1  0.4862870000000  0.4399860000000  0.4812620000000 1.0
C      1  0.4934690000000  0.4797690000000  0.5354790000000 1.0
C      1  0.4500010000000  0.5282470000000  0.4289720000000 1.0
C      1  0.5033060000000  0.5368630000000  0.4760500000000 1.0
C      1  0.4367350000000  0.4564040000000  0.4490280000000 1.0
C      1  0.5492110000000  0.5392670000000  0.4660810000000 1.0
C      1  0.4781030000000  0.5775000000000  0.4806040000000 1.0
C      1  0.4680610000000  0.4260090000000  0.4669660000000 1.0
C      1  0.6054530000000  0.5889840000000  0.5396460000000 1.0
C      1  0.5373540000000  0.5160620000000  0.4534510000000 1.0
C      1  0.5246250000000  0.5792790000000  0.4899000000000 1.0
C      1  0.5058190000000  0.4773070000000  0.4119200000000 1.0
C      1  0.5784340000000  0.5829940000000  0.5412980000000 1.0
C      1  0.4355640000000  0.5375580000000  0.4989050000000 1.0
C      1  0.5807220000000  0.4583580000000  0.4750160000000 1.0
C      1  0.5608920000000  0.5227050000000  0.5255240000000 1.0
C      1  0.4708300000000  0.4971900000000  0.5333880000000 1.0
C      1  0.4700140000000  0.5173610000000  0.4149380000000 1.0
C      1  0.5192460000000  0.4400830000000  0.5484930000000 1.0
C      1  0.4336820000000  0.5310970000000  0.4500480000000 1.0
C      1  0.5564790000000  0.5195880000000  0.4085610000000 1.0
C      1  0.5280480000000  0.4394540000000  0.5744500000000 1.0
C      1  0.5055200000000  0.4587110000000  0.4715880000000 1.0
C      1  0.4678680000000  0.3603970000000  0.5364160000000 1.0
C      1  0.4439570000000  0.4961320000000  0.5431430000000 1.0
C      1  0.6309060000000  0.5942140000000  0.5376460000000 1.0
C      1  0.4419630000000  0.4790620000000  0.4648430000000 1.0
C      1  0.4930200000000  0.5907880000000  0.5405380000000 1.0
C      1  0.5268570000000  0.4458930000000  0.4578140000000 1.0
C      1  0.5190930000000  0.4913200000000  0.5312150000000 1.0
C      1  0.5704770000000  0.4618400000000  0.4503760000000 1.0
C      1  0.4636060000000  0.5370220000000  0.5043770000000 1.0
C      1  0.4919360000000  0.4527530000000  0.4103650000000 1.0
C      1  0.5070460000000  0.5424230000000  0.5672110000000 1.0
C      1  0.5624550000000  0.5880460000000  0.5641270000000 1.0
C      1  0.5325340000000  0.4192350000000  0.4648250000000 1.0
C      1  0.4689770000000  0.5828530000000  0.5495690000000 1.0
C      1  0.4374600000000  0.5179870000000  0.5602810000000 1.0
C      1  0.4687120000000  0.4878730000000  0.4663010000000 1.0
C      1  0.5350410000000  0.4283930000000  0.5277730000000 1.0
C      1  0.4236770000000  0.4943530000000  0.4799940000000 1.0
C      1  0.5063790000000  0.3882080000000  0.5247150000000 1.0
C      1  0.4179500000000  0.5533180000000  0.5125430000000 1.0
C      1  0.5749800000000  0.4509950000000  0.5000980000000 1.0
C      1  0.5112250000000  0.5104540000000  0.4662450000000 1.0
C      1  0.5212060000000  0.5884050000000  0.5389980000000 1.0
C      1  0.4243070000000  0.4839310000000  0.5273110000000 1.0
C      1  0.5368170000000  0.5820490000000  0.5153800000000 1.0
C      1  0.4105610000000  0.4833420000000  0.5027000000000 1.0
C      1  0.4715680000000  0.4352840000000  0.5420820000000 1.0
C      1  0.4798770000000  0.3853260000000  0.5336250000000 1.0
C      1  0.3855000000000  0.4726690000000  0.5006990000000 1.0
C      1  0.4967230000000  0.4860430000000  0.4686590000000 1.0
C      1  0.4271680000000  0.5224830000000  0.4762170000000 1.0
C      1  0.4311250000000  0.5890570000000  0.5782240000000 1.0
C      1  0.5257920000000  0.4051350000000  0.5137480000000 1.0
C      1  0.5634460000000  0.5711810000000  0.5200190000000 1.0
C      1  0.4556060000000  0.4360070000000  0.4435170000000 1.0
C      1  0.4566210000000  0.3370240000000  0.5389490000000 1.0
C      1  0.4941750000000  0.5367050000000  0.5444990000000 1.0
C      1  0.4938400000000  0.4522620000000  0.5423650000000 1.0
C      1  0.5423630000000  0.5042570000000  0.5307330000000 1.0
C      1  0.5348020000000  0.5825340000000  0.5639800000000 1.0
C      1  0.5426680000000  0.5059080000000  0.4276470000000 1.0
C      1  0.5232190000000  0.5610190000000  0.5779450000000 1.0
END
