TITL C-3866673-4222-425 0.400310619680374 125000 -500.81819995166 0 0 84 (C1) n - 1
REM
REM in /home/nfs/bkarasulu/CARBON/AIRSS/Generating-Clusters/LCBOP/Only-C1/SD-CG/FIRE-CG
REM
REM
REM
REM
REM
REM ./C.cell (11c1c37f851c82e70ff6c80c92926a4b)
REM AIRSS Version 0.9.1 bugfix July 2018 build 013d7b7c2542+ Fri, 06 Jul 2018 19:26:36 +0100
REM compiler GCC version 9.2.1 20190827 (Red Hat 9.2.1-1)
REM options -cpp -mtune=generic -march=x86-64 -g -O0 -fpre-include=/usr/include/finclude/math-vector-fortran.h
REM seed -1673560252 -1643367558 626999301 587577428 -809592101 -656488116 1967014865 1490601525 59771386 1485034587 513715507 -1652443657 -699904839 -1175768047 -558525591 -395248531 -950948281 1086413392 -1618512047 1244277287 677362980 -1256725726 392868796 -1646157021 -2106273343 -761902952 996486443 -2045637489 -1574153947 -796434786 739534418 561296569 -1274424822
REM
CELL 1.54180   50.00000   50.00000   50.00000   90.00000   90.00000   90.00000
LATT -1
SFAC C  
C      1  0.5165340000000  0.5035140000000  0.5374250000000 1.0
C      1  0.5648330000000  0.4404310000000  0.5785540000000 1.0
C      1  0.5798200000000  0.4734270000000  0.5089090000000 1.0
C      1  0.4555930000000  0.5044300000000  0.5104690000000 1.0
C      1  0.4006810000000  0.4972680000000  0.5341590000000 1.0
C      1  0.3963710000000  0.5503550000000  0.4517260000000 1.0
C      1  0.5985800000000  0.5250410000000  0.4570800000000 1.0
C      1  0.4402790000000  0.5001270000000  0.4861100000000 1.0
C      1  0.5587400000000  0.4548290000000  0.5051030000000 1.0
C      1  0.4134650000000  0.4418850000000  0.5670790000000 1.0
C      1  0.4507360000000  0.4895300000000  0.5342550000000 1.0
C      1  0.5120820000000  0.5693670000000  0.5141160000000 1.0
C      1  0.5318950000000  0.5207480000000  0.4770580000000 1.0
C      1  0.4021140000000  0.4369690000000  0.4957700000000 1.0
C      1  0.4151760000000  0.4416860000000  0.4714640000000 1.0
C      1  0.4172670000000  0.4360330000000  0.5194920000000 1.0
C      1  0.6389300000000  0.4639970000000  0.4812890000000 1.0
C      1  0.3758520000000  0.4847850000000  0.5291270000000 1.0
C      1  0.6238930000000  0.5220730000000  0.4466050000000 1.0
C      1  0.5234180000000  0.4859340000000  0.5147530000000 1.0
C      1  0.6039050000000  0.4564950000000  0.4492420000000 1.0
C      1  0.4047750000000  0.5251760000000  0.4582490000000 1.0
C      1  0.4981850000000  0.5806190000000  0.4916200000000 1.0
C      1  0.5120040000000  0.5442920000000  0.4094330000000 1.0
C      1  0.5796880000000  0.5564290000000  0.5035710000000 1.0
C      1  0.4070720000000  0.4777610000000  0.4398440000000 1.0
C      1  0.4947830000000  0.5039300000000  0.5557030000000 1.0
C      1  0.5799020000000  0.5407090000000  0.4417490000000 1.0
C      1  0.4487190000000  0.5772470000000  0.5047230000000 1.0
C      1  0.4655020000000  0.4500940000000  0.5850950000000 1.0
C      1  0.3652770000000  0.4652160000000  0.5141330000000 1.0
C      1  0.5361360000000  0.5268020000000  0.5372160000000 1.0
C      1  0.5768350000000  0.4639480000000  0.5748350000000 1.0
C      1  0.4622620000000  0.5155820000000  0.6098550000000 1.0
C      1  0.5706730000000  0.4309740000000  0.3822360000000 1.0
C      1  0.4944120000000  0.4921950000000  0.4522270000000 1.0
C      1  0.5957960000000  0.4846620000000  0.4878610000000 1.0
C      1  0.4715050000000  0.5883670000000  0.4960890000000 1.0
C      1  0.5319910000000  0.4586020000000  0.5148270000000 1.0
C      1  0.6132850000000  0.4682820000000  0.4727920000000 1.0
C      1  0.4771250000000  0.4269180000000  0.5794260000000 1.0
C      1  0.4713680000000  0.4794750000000  0.4556910000000 1.0
C      1  0.5207840000000  0.4383570000000  0.5304160000000 1.0
C      1  0.4972290000000  0.5223270000000  0.5771940000000 1.0
C      1  0.5398820000000  0.5483780000000  0.4755040000000 1.0
C      1  0.4621850000000  0.5319050000000  0.5147360000000 1.0
C      1  0.5216280000000  0.4240040000000  0.5545620000000 1.0
C      1  0.5745260000000  0.4912950000000  0.5311280000000 1.0
C      1  0.5570970000000  0.5302520000000  0.4272150000000 1.0
C      1  0.5309610000000  0.5654880000000  0.4517430000000 1.0
C      1  0.5933000000000  0.4471050000000  0.4268630000000 1.0
C      1  0.5566000000000  0.5642000000000  0.4924120000000 1.0
C      1  0.4243610000000  0.4639940000000  0.4573040000000 1.0
C      1  0.4237760000000  0.4802090000000  0.5384360000000 1.0
C      1  0.3752650000000  0.4451230000000  0.4992650000000 1.0
C      1  0.5081910000000  0.5798040000000  0.4647130000000 1.0
C      1  0.5248000000000  0.5524220000000  0.5309920000000 1.0
C      1  0.4196460000000  0.5203200000000  0.4819460000000 1.0
C      1  0.4481060000000  0.4930510000000  0.6006330000000 1.0
C      1  0.4837930000000  0.5279920000000  0.5996850000000 1.0
C      1  0.4413280000000  0.5511450000000  0.5109630000000 1.0
C      1  0.5793380000000  0.4840460000000  0.5575000000000 1.0
C      1  0.5597150000000  0.5153580000000  0.5200640000000 1.0
C      1  0.5453030000000  0.4246580000000  0.5695970000000 1.0
C      1  0.4169110000000  0.5372120000000  0.5054060000000 1.0
C      1  0.5133300000000  0.5093090000000  0.4594830000000 1.0
C      1  0.5933050000000  0.5131620000000  0.4829570000000 1.0
C      1  0.4698740000000  0.4890560000000  0.5556090000000 1.0
C      1  0.4906840000000  0.5408510000000  0.3940900000000 1.0
C      1  0.5820120000000  0.4387340000000  0.4043900000000 1.0
C      1  0.5823770000000  0.5286690000000  0.5048140000000 1.0
C      1  0.4033610000000  0.5244920000000  0.5267690000000 1.0
C      1  0.5405270000000  0.5037500000000  0.4978610000000 1.0
C      1  0.5324450000000  0.5458940000000  0.4282970000000 1.0
C      1  0.3992310000000  0.5033710000000  0.4413780000000 1.0
C      1  0.4459990000000  0.4796820000000  0.4672700000000 1.0
C      1  0.5557330000000  0.5827370000000  0.4460430000000 1.0
C      1  0.5587570000000  0.5070070000000  0.4128640000000 1.0
C      1  0.4691250000000  0.5367450000000  0.3800190000000 1.0
C      1  0.4232740000000  0.4868740000000  0.6101350000000 1.0
C      1  0.5795090000000  0.5693400000000  0.4430100000000 1.0
C      1  0.4194080000000  0.4521810000000  0.5424720000000 1.0
C      1  0.4610370000000  0.4772860000000  0.5805320000000 1.0
C      1  0.4978290000000  0.4160090000000  0.5667700000000 1.0
END
