TITL C-3866671-3735-240 0.000545746213617339 125000 -744.599302935051 0 0 123 (C1) n - 1
REM
REM in /home/nfs/bkarasulu/CARBON/AIRSS/Generating-Clusters/LCBOP/Only-C1/SD-CG/HFTN-CG/FIRE-CG
REM
REM
REM
REM
REM
REM ./C.cell (11c1c37f851c82e70ff6c80c92926a4b)
REM AIRSS Version 0.9.1 bugfix July 2018 build 013d7b7c2542+ Fri, 06 Jul 2018 19:26:36 +0100
REM compiler GCC version 9.2.1 20190827 (Red Hat 9.2.1-1)
REM options -cpp -mtune=generic -march=x86-64 -g -O0 -fpre-include=/usr/include/finclude/math-vector-fortran.h
REM seed 33932914 -1521362839 -766437164 -607618395 -579718552 1583736121 1148813747 1721111915 -2001842813 -42333694 1785457933 -1185701792 -1395815559 2038416741 631568557 1755650912 -662030782 -396222953 -885462931 -445083854 -767120747 -1399233569 1086263035 1516813565 1790351190 -1086365838 -854727443 1868763889 -1909316504 -707205456 -1779518931 -379714651 -1231915992
REM
CELL 1.54180   50.00000   50.00000   50.00000   90.00000   90.00000   90.00000
LATT -1
SFAC C  
C      1  0.4842590000000  0.4494050000000  0.5353700000000 1.0
C      1  0.4675850000000  0.5408060000000  0.4387240000000 1.0
C      1  0.3991930000000  0.4882950000000  0.4677820000000 1.0
C      1  0.4683780000000  0.5643820000000  0.4535470000000 1.0
C      1  0.5192360000000  0.5344010000000  0.5508110000000 1.0
C      1  0.5619120000000  0.5060220000000  0.4403190000000 1.0
C      1  0.3970020000000  0.4670110000000  0.5388260000000 1.0
C      1  0.4139310000000  0.5534480000000  0.4102170000000 1.0
C      1  0.5851550000000  0.4929040000000  0.4904190000000 1.0
C      1  0.4619620000000  0.4572600000000  0.3793080000000 1.0
C      1  0.4314670000000  0.5539030000000  0.5811580000000 1.0
C      1  0.6111890000000  0.5983040000000  0.4711740000000 1.0
C      1  0.5515750000000  0.4655660000000  0.4169590000000 1.0
C      1  0.4894640000000  0.4356190000000  0.5603980000000 1.0
C      1  0.4854730000000  0.4749970000000  0.6049930000000 1.0
C      1  0.4470950000000  0.5746130000000  0.4691640000000 1.0
C      1  0.4448420000000  0.4075520000000  0.5284800000000 1.0
C      1  0.5392330000000  0.4122630000000  0.5221090000000 1.0
C      1  0.5318860000000  0.5012990000000  0.6009840000000 1.0
C      1  0.5093260000000  0.5780650000000  0.4320340000000 1.0
C      1  0.4976300000000  0.4918270000000  0.5494820000000 1.0
C      1  0.4596970000000  0.4744150000000  0.5914590000000 1.0
C      1  0.4549170000000  0.6082060000000  0.5359010000000 1.0
C      1  0.5969370000000  0.4323560000000  0.5477460000000 1.0
C      1  0.5318470000000  0.4522570000000  0.4828880000000 1.0
C      1  0.5704990000000  0.5045320000000  0.5672920000000 1.0
C      1  0.5438920000000  0.5181280000000  0.4933510000000 1.0
C      1  0.4709940000000  0.4158110000000  0.5671400000000 1.0
C      1  0.4300450000000  0.4389940000000  0.5679040000000 1.0
C      1  0.4281450000000  0.4963120000000  0.4244040000000 1.0
C      1  0.4068120000000  0.4490510000000  0.5559330000000 1.0
C      1  0.4549670000000  0.4972860000000  0.5737260000000 1.0
C      1  0.4689080000000  0.5226270000000  0.4173110000000 1.0
C      1  0.4878980000000  0.5205490000000  0.6044230000000 1.0
C      1  0.6159170000000  0.5816300000000  0.4914690000000 1.0
C      1  0.4913830000000  0.5746810000000  0.5268760000000 1.0
C      1  0.4338970000000  0.6123440000000  0.5518700000000 1.0
C      1  0.4270680000000  0.5340410000000  0.3944940000000 1.0
C      1  0.5107930000000  0.4121440000000  0.5159950000000 1.0
C      1  0.4587910000000  0.5492600000000  0.5772810000000 1.0
C      1  0.6043710000000  0.5618630000000  0.5050520000000 1.0
C      1  0.5834130000000  0.5461830000000  0.5093740000000 1.0
C      1  0.5938050000000  0.6426200000000  0.4160540000000 1.0
C      1  0.5301430000000  0.5505480000000  0.4671240000000 1.0
C      1  0.4316020000000  0.4972570000000  0.5249770000000 1.0
C      1  0.5906460000000  0.6032640000000  0.4527210000000 1.0
C      1  0.5325580000000  0.4827280000000  0.5213510000000 1.0
C      1  0.4629280000000  0.4008570000000  0.5069990000000 1.0
C      1  0.5682990000000  0.5863910000000  0.4542760000000 1.0
C      1  0.5528350000000  0.5659150000000  0.4612240000000 1.0
C      1  0.5372380000000  0.4911470000000  0.4252230000000 1.0
C      1  0.4941250000000  0.5752620000000  0.4562450000000 1.0
C      1  0.4758190000000  0.5714960000000  0.5729380000000 1.0
C      1  0.5490930000000  0.4390280000000  0.5252520000000 1.0
C      1  0.5877780000000  0.4915140000000  0.5181210000000 1.0
C      1  0.5340170000000  0.4438730000000  0.4557460000000 1.0
C      1  0.3957070000000  0.4876670000000  0.4942140000000 1.0
C      1  0.4603550000000  0.4516180000000  0.4047040000000 1.0
C      1  0.5551570000000  0.4478210000000  0.5517580000000 1.0
C      1  0.5039140000000  0.4556920000000  0.4906530000000 1.0
C      1  0.5626740000000  0.3969760000000  0.5299370000000 1.0
C      1  0.4977350000000  0.4386970000000  0.5126510000000 1.0
C      1  0.4734350000000  0.4892940000000  0.5042610000000 1.0
C      1  0.5923630000000  0.6236760000000  0.4338940000000 1.0
C      1  0.5390880000000  0.5385640000000  0.4131800000000 1.0
C      1  0.5212360000000  0.3745010000000  0.4565200000000 1.0
C      1  0.4426890000000  0.5147610000000  0.4088720000000 1.0
C      1  0.5438750000000  0.5351560000000  0.5359750000000 1.0
C      1  0.5585270000000  0.5342910000000  0.5117830000000 1.0
C      1  0.5236330000000  0.5066210000000  0.5100340000000 1.0
C      1  0.4674620000000  0.5895630000000  0.5190370000000 1.0
C      1  0.5416760000000  0.3583320000000  0.4560120000000 1.0
C      1  0.5084720000000  0.4987150000000  0.4653430000000 1.0
C      1  0.4725370000000  0.5229250000000  0.5783960000000 1.0
C      1  0.4482910000000  0.5022790000000  0.5020060000000 1.0
C      1  0.5215500000000  0.5579130000000  0.5673690000000 1.0
C      1  0.4113390000000  0.5671030000000  0.4330450000000 1.0
C      1  0.5082050000000  0.5647770000000  0.4790040000000 1.0
C      1  0.4408210000000  0.4524110000000  0.5916250000000 1.0
C      1  0.5425660000000  0.5475810000000  0.5856540000000 1.0
C      1  0.5225850000000  0.4796020000000  0.5477060000000 1.0
C      1  0.5507820000000  0.5180580000000  0.5860370000000 1.0
C      1  0.4759060000000  0.4785100000000  0.5336980000000 1.0
C      1  0.4251360000000  0.5335200000000  0.3672860000000 1.0
C      1  0.4115950000000  0.4898020000000  0.4442570000000 1.0
C      1  0.5029720000000  0.5278980000000  0.5108160000000 1.0
C      1  0.4319710000000  0.4434600000000  0.6161650000000 1.0
C      1  0.5834010000000  0.4857660000000  0.5470400000000 1.0
C      1  0.5042260000000  0.4970760000000  0.6073720000000 1.0
C      1  0.4148220000000  0.5747350000000  0.5783400000000 1.0
C      1  0.4060770000000  0.4859010000000  0.5202590000000 1.0
C      1  0.5282240000000  0.5219940000000  0.4695120000000 1.0
C      1  0.4898290000000  0.3928690000000  0.5142830000000 1.0
C      1  0.4852710000000  0.4366690000000  0.4446780000000 1.0
C      1  0.5232390000000  0.5144020000000  0.4097080000000 1.0
C      1  0.4374860000000  0.4366000000000  0.4459720000000 1.0
C      1  0.5862640000000  0.4081760000000  0.5393500000000 1.0
C      1  0.4834080000000  0.4130790000000  0.4619180000000 1.0
C      1  0.4608120000000  0.4431160000000  0.4311410000000 1.0
C      1  0.4369940000000  0.4218820000000  0.4687750000000 1.0
C      1  0.5134740000000  0.4820870000000  0.4422210000000 1.0
C      1  0.5083640000000  0.4533120000000  0.4438540000000 1.0
C      1  0.5645450000000  0.5311420000000  0.4250420000000 1.0
C      1  0.4604100000000  0.4104590000000  0.4799200000000 1.0
C      1  0.5129010000000  0.4418000000000  0.5744630000000 1.0
C      1  0.5539580000000  0.4453670000000  0.4356150000000 1.0
C      1  0.4453120000000  0.4179530000000  0.5552910000000 1.0
C      1  0.5822220000000  0.4569220000000  0.5532220000000 1.0
C      1  0.5443160000000  0.4600170000000  0.5072760000000 1.0
C      1  0.5257680000000  0.5633990000000  0.4162040000000 1.0
C      1  0.4533380000000  0.5829460000000  0.4952790000000 1.0
C      1  0.5884610000000  0.5430620000000  0.4196690000000 1.0
C      1  0.4932850000000  0.4823640000000  0.4855440000000 1.0
C      1  0.4221730000000  0.5750440000000  0.4562360000000 1.0
C      1  0.4988570000000  0.5736640000000  0.5563070000000 1.0
C      1  0.5763260000000  0.4975710000000  0.4644450000000 1.0
C      1  0.4946180000000  0.5154520000000  0.4072260000000 1.0
C      1  0.5014740000000  0.3920410000000  0.4584450000000 1.0
C      1  0.4165550000000  0.5991700000000  0.5674380000000 1.0
C      1  0.5325770000000  0.4587520000000  0.5638910000000 1.0
C      1  0.4499980000000  0.4899110000000  0.5462860000000 1.0
C      1  0.4960990000000  0.5185260000000  0.5575520000000 1.0
C      1  0.5007930000000  0.5564760000000  0.5059290000000 1.0
END
