TITL C-3866672-3872-127 0.0836130913553041 125000 -568.70090894612 0 0 93 (C1) n - 1
REM
REM in /home/nfs/bkarasulu/CARBON/AIRSS/Generating-Clusters/LCBOP/Only-C1/SD-CG/HFTN-CG/FIRE-CG
REM
REM
REM
REM
REM
REM ./C.cell (11c1c37f851c82e70ff6c80c92926a4b)
REM AIRSS Version 0.9.1 bugfix July 2018 build 013d7b7c2542+ Fri, 06 Jul 2018 19:26:36 +0100
REM compiler GCC version 9.2.1 20190827 (Red Hat 9.2.1-1)
REM options -cpp -mtune=generic -march=x86-64 -g -O0 -fpre-include=/usr/include/finclude/math-vector-fortran.h
REM seed -2143225303 437511993 -107996189 985496282 1956673394 968135474 -487128639 1811479212 -308096370 -301111233 -1537921447 -1422064056 -729358244 -999176065 -542578955 1282432008 1403291727 688438087 1040989109 901240509 1233352989 1137122317 383709364 893007744 698831287 -71601787 1842777046 -220718785 -1782517847 -428222896 -324032336 -1660956056 28385942
REM
CELL 1.54180   50.00000   50.00000   50.00000   90.00000   90.00000   90.00000
LATT -1
SFAC C  
C      1  0.4714100000000  0.5700090000000  0.5442030000000 1.0
C      1  0.4840020000000  0.4438640000000  0.5179130000000 1.0
C      1  0.4553620000000  0.5111260000000  0.4152270000000 1.0
C      1  0.5160190000000  0.4813110000000  0.5830680000000 1.0
C      1  0.5132730000000  0.5072580000000  0.4878270000000 1.0
C      1  0.4737380000000  0.5051200000000  0.4662420000000 1.0
C      1  0.6387680000000  0.4752740000000  0.5138650000000 1.0
C      1  0.4666610000000  0.4707770000000  0.3918220000000 1.0
C      1  0.5126210000000  0.3858580000000  0.5650320000000 1.0
C      1  0.5695100000000  0.4584400000000  0.5255060000000 1.0
C      1  0.4988480000000  0.3786600000000  0.5419680000000 1.0
C      1  0.5003180000000  0.4508540000000  0.4749340000000 1.0
C      1  0.4489080000000  0.5661520000000  0.5612030000000 1.0
C      1  0.5212050000000  0.5236100000000  0.5324290000000 1.0
C      1  0.6651680000000  0.4753260000000  0.5162330000000 1.0
C      1  0.4528000000000  0.5110990000000  0.5222290000000 1.0
C      1  0.6911330000000  0.4753790000000  0.5185630000000 1.0
C      1  0.4633850000000  0.4937970000000  0.5890110000000 1.0
C      1  0.5065350000000  0.4542850000000  0.5031770000000 1.0
C      1  0.4763710000000  0.3967740000000  0.5384080000000 1.0
C      1  0.5633790000000  0.5429660000000  0.4780920000000 1.0
C      1  0.4762820000000  0.4171050000000  0.5190960000000 1.0
C      1  0.5062400000000  0.4554740000000  0.4163710000000 1.0
C      1  0.5848100000000  0.5499750000000  0.4954250000000 1.0
C      1  0.4996280000000  0.4091920000000  0.5768630000000 1.0
C      1  0.4605810000000  0.4354490000000  0.4258280000000 1.0
C      1  0.5844330000000  0.4764010000000  0.5093190000000 1.0
C      1  0.4673280000000  0.5314360000000  0.4573890000000 1.0
C      1  0.5367600000000  0.6112570000000  0.5203500000000 1.0
C      1  0.5185110000000  0.4353010000000  0.4319520000000 1.0
C      1  0.5736270000000  0.4954860000000  0.4913140000000 1.0
C      1  0.4964160000000  0.5600150000000  0.5534820000000 1.0
C      1  0.4650290000000  0.4992170000000  0.3913850000000 1.0
C      1  0.4550900000000  0.5445880000000  0.4802840000000 1.0
C      1  0.5873150000000  0.5549840000000  0.5217330000000 1.0
C      1  0.4721930000000  0.4072970000000  0.5657980000000 1.0
C      1  0.4745380000000  0.4583030000000  0.4624130000000 1.0
C      1  0.4434040000000  0.4927540000000  0.4342410000000 1.0
C      1  0.5259330000000  0.5705890000000  0.4948540000000 1.0
C      1  0.5115180000000  0.4348770000000  0.5752790000000 1.0
C      1  0.5599970000000  0.4991260000000  0.5739050000000 1.0
C      1  0.4512040000000  0.4236590000000  0.5735460000000 1.0
C      1  0.4300000000000  0.4447760000000  0.4687050000000 1.0
C      1  0.5102050000000  0.5100880000000  0.3763270000000 1.0
C      1  0.4748270000000  0.5578920000000  0.4974200000000 1.0
C      1  0.5244260000000  0.4958560000000  0.3941120000000 1.0
C      1  0.4866880000000  0.4987670000000  0.4897590000000 1.0
C      1  0.5348970000000  0.5841420000000  0.5183000000000 1.0
C      1  0.4636930000000  0.4834040000000  0.4526330000000 1.0
C      1  0.5390580000000  0.5813200000000  0.4511770000000 1.0
C      1  0.5142600000000  0.5283610000000  0.5058200000000 1.0
C      1  0.4697870000000  0.5585830000000  0.4163520000000 1.0
C      1  0.5440690000000  0.5642980000000  0.4731650000000 1.0
C      1  0.4728050000000  0.4930660000000  0.5143830000000 1.0
C      1  0.5215140000000  0.5481690000000  0.5475410000000 1.0
C      1  0.5035160000000  0.5529480000000  0.4970180000000 1.0
C      1  0.5328530000000  0.5044640000000  0.4676190000000 1.0
C      1  0.4139410000000  0.5217130000000  0.4628810000000 1.0
C      1  0.6123850000000  0.4753530000000  0.5115140000000 1.0
C      1  0.5365080000000  0.4369130000000  0.5612470000000 1.0
C      1  0.4292670000000  0.5297420000000  0.4856190000000 1.0
C      1  0.5198720000000  0.4811250000000  0.4176590000000 1.0
C      1  0.5174250000000  0.4351480000000  0.4588630000000 1.0
C      1  0.4700960000000  0.4671020000000  0.5251150000000 1.0
C      1  0.5698320000000  0.5605090000000  0.5414710000000 1.0
C      1  0.4288040000000  0.5845950000000  0.5625580000000 1.0
C      1  0.4698720000000  0.4672670000000  0.5818600000000 1.0
C      1  0.5003860000000  0.6128090000000  0.4635060000000 1.0
C      1  0.4291260000000  0.5099810000000  0.5067130000000 1.0
C      1  0.4547930000000  0.5188340000000  0.5864460000000 1.0
C      1  0.4195280000000  0.4634130000000  0.4857650000000 1.0
C      1  0.4834000000000  0.5125400000000  0.3747100000000 1.0
C      1  0.5423630000000  0.5664330000000  0.5398170000000 1.0
C      1  0.5584360000000  0.5142480000000  0.4760740000000 1.0
C      1  0.4179180000000  0.4826460000000  0.5072150000000 1.0
C      1  0.4835410000000  0.6148780000000  0.4843340000000 1.0
C      1  0.4481210000000  0.4514440000000  0.5717600000000 1.0
C      1  0.4482880000000  0.5427230000000  0.5767390000000 1.0
C      1  0.4979140000000  0.4596070000000  0.5818090000000 1.0
C      1  0.5556820000000  0.4443980000000  0.5438750000000 1.0
C      1  0.5216640000000  0.4740240000000  0.5192850000000 1.0
C      1  0.4538650000000  0.4396700000000  0.4536900000000 1.0
C      1  0.4645670000000  0.5349740000000  0.4289360000000 1.0
C      1  0.4713200000000  0.6041900000000  0.5058890000000 1.0
C      1  0.5278810000000  0.4925550000000  0.4424940000000 1.0
C      1  0.4186910000000  0.5020940000000  0.4447160000000 1.0
C      1  0.5264680000000  0.4960580000000  0.5386020000000 1.0
C      1  0.4782180000000  0.4515330000000  0.4091010000000 1.0
C      1  0.4157100000000  0.4715870000000  0.5335470000000 1.0
C      1  0.5203090000000  0.6008650000000  0.4499270000000 1.0
C      1  0.4686670000000  0.5781900000000  0.5167140000000 1.0
C      1  0.4272900000000  0.4622710000000  0.5559310000000 1.0
C      1  0.5350010000000  0.4920160000000  0.5655090000000 1.0
END
