TITL C-3866672-3872-451 -7.61884179848386e-07 125000 -1074.41325674209 0 0 176 (C1) n - 1
REM
REM in /home/nfs/bkarasulu/CARBON/AIRSS/Generating-Clusters/LCBOP/Only-C1/SD-CG/FIRE-CG
REM
REM
REM
REM
REM
REM ./C.cell (11c1c37f851c82e70ff6c80c92926a4b)
REM AIRSS Version 0.9.1 bugfix July 2018 build 013d7b7c2542+ Fri, 06 Jul 2018 19:26:36 +0100
REM compiler GCC version 9.2.1 20190827 (Red Hat 9.2.1-1)
REM options -cpp -mtune=generic -march=x86-64 -g -O0 -fpre-include=/usr/include/finclude/math-vector-fortran.h
REM seed 1337598283 -2105738970 131965241 165884124 -1383520584 -1729725121 1006044783 2065809520 1050798191 -940729238 681837094 1747419958 -1829498437 1508371324 -948754052 -1851883863 767705516 -339414722 115631966 -1290375052 -1892283105 55153018 -1359920418 -636952926 -477810662 -1029272186 -1605206067 -204446835 1086601195 -1597480687 58832964 802004839 -870669265
REM
CELL 1.54180   50.00000   50.00000   50.00000   90.00000   90.00000   90.00000
LATT -1
SFAC C  
C      1  0.3991570000000  0.5404850000000  0.4716870000000 1.0
C      1  0.4550050000000  0.5176520000000  0.6179390000000 1.0
C      1  0.5805590000000  0.5419050000000  0.5628040000000 1.0
C      1  0.4710460000000  0.5966250000000  0.5518840000000 1.0
C      1  0.5822650000000  0.5282420000000  0.4861000000000 1.0
C      1  0.3988420000000  0.4870400000000  0.4181750000000 1.0
C      1  0.5010430000000  0.5018680000000  0.6161590000000 1.0
C      1  0.4675730000000  0.4994240000000  0.5504540000000 1.0
C      1  0.4284800000000  0.5707850000000  0.5629240000000 1.0
C      1  0.5913430000000  0.5219360000000  0.5485590000000 1.0
C      1  0.5007970000000  0.5132320000000  0.5894420000000 1.0
C      1  0.5398660000000  0.4335360000000  0.5399190000000 1.0
C      1  0.4619880000000  0.5976300000000  0.4980440000000 1.0
C      1  0.5550730000000  0.5529270000000  0.4403660000000 1.0
C      1  0.4701850000000  0.5024280000000  0.4234480000000 1.0
C      1  0.5643330000000  0.4650660000000  0.6018240000000 1.0
C      1  0.4808280000000  0.6180610000000  0.5354790000000 1.0
C      1  0.5038790000000  0.5670580000000  0.4008880000000 1.0
C      1  0.5179630000000  0.3817880000000  0.5026080000000 1.0
C      1  0.4936750000000  0.3979980000000  0.5022040000000 1.0
C      1  0.5225820000000  0.5717220000000  0.4809550000000 1.0
C      1  0.5537140000000  0.4262210000000  0.4677170000000 1.0
C      1  0.5228120000000  0.3714700000000  0.5283760000000 1.0
C      1  0.5235010000000  0.4673090000000  0.5035960000000 1.0
C      1  0.5518920000000  0.6054330000000  0.5081230000000 1.0
C      1  0.5628430000000  0.4367200000000  0.5582760000000 1.0
C      1  0.4502500000000  0.5864340000000  0.4427470000000 1.0
C      1  0.4802720000000  0.5127480000000  0.6319720000000 1.0
C      1  0.4382760000000  0.4642130000000  0.5004330000000 1.0
C      1  0.4786680000000  0.5471020000000  0.5618840000000 1.0
C      1  0.3985480000000  0.4658940000000  0.5360130000000 1.0
C      1  0.6439850000000  0.4434410000000  0.4867770000000 1.0
C      1  0.4900370000000  0.5084150000000  0.5028840000000 1.0
C      1  0.5288320000000  0.6187870000000  0.4976490000000 1.0
C      1  0.6191220000000  0.5590210000000  0.5039690000000 1.0
C      1  0.4224410000000  0.4240870000000  0.4412220000000 1.0
C      1  0.3942150000000  0.5142660000000  0.4654930000000 1.0
C      1  0.4333620000000  0.5817590000000  0.4197100000000 1.0
C      1  0.5021290000000  0.6193340000000  0.4873070000000 1.0
C      1  0.4513020000000  0.5450020000000  0.6075740000000 1.0
C      1  0.4503560000000  0.3910280000000  0.4677480000000 1.0
C      1  0.6028930000000  0.5484110000000  0.4832120000000 1.0
C      1  0.4207310000000  0.4852520000000  0.4920060000000 1.0
C      1  0.4394460000000  0.3981750000000  0.4408590000000 1.0
C      1  0.4164670000000  0.5582810000000  0.5390810000000 1.0
C      1  0.5106600000000  0.4329760000000  0.5397200000000 1.0
C      1  0.4417370000000  0.4450520000000  0.5480540000000 1.0
C      1  0.5348350000000  0.4451040000000  0.4549410000000 1.0
C      1  0.4177420000000  0.5310140000000  0.4202450000000 1.0
C      1  0.4387100000000  0.4162840000000  0.5109240000000 1.0
C      1  0.4636290000000  0.4844630000000  0.4659130000000 1.0
C      1  0.5223790000000  0.5199260000000  0.5335660000000 1.0
C      1  0.4441860000000  0.5940960000000  0.5597930000000 1.0
C      1  0.4813830000000  0.6166140000000  0.5070870000000 1.0
C      1  0.5611220000000  0.5511040000000  0.5812080000000 1.0
C      1  0.5935610000000  0.4584340000000  0.4353280000000 1.0
C      1  0.4732640000000  0.5625700000000  0.6134280000000 1.0
C      1  0.5721790000000  0.4835020000000  0.5204220000000 1.0
C      1  0.5745470000000  0.5122960000000  0.4640830000000 1.0
C      1  0.4294140000000  0.4508080000000  0.4306250000000 1.0
C      1  0.5406090000000  0.4762610000000  0.3811700000000 1.0
C      1  0.5055220000000  0.5308410000000  0.4437600000000 1.0
C      1  0.5203820000000  0.4797610000000  0.6178790000000 1.0
C      1  0.5474390000000  0.5714450000000  0.4626980000000 1.0
C      1  0.5092750000000  0.4378220000000  0.4652840000000 1.0
C      1  0.5478140000000  0.5593550000000  0.4140510000000 1.0
C      1  0.5954510000000  0.5692500000000  0.4647190000000 1.0
C      1  0.4760430000000  0.4369660000000  0.4109770000000 1.0
C      1  0.4929460000000  0.6113680000000  0.4603560000000 1.0
C      1  0.4403020000000  0.4426730000000  0.5199940000000 1.0
C      1  0.5019380000000  0.5695820000000  0.5040280000000 1.0
C      1  0.5135070000000  0.5220880000000  0.5078800000000 1.0
C      1  0.6179300000000  0.5852580000000  0.5112920000000 1.0
C      1  0.5891860000000  0.4999720000000  0.5333300000000 1.0
C      1  0.5724120000000  0.4971790000000  0.4047200000000 1.0
C      1  0.4548920000000  0.4562140000000  0.4142340000000 1.0
C      1  0.4554430000000  0.5410850000000  0.4485980000000 1.0
C      1  0.5000070000000  0.3942180000000  0.5710740000000 1.0
C      1  0.4373830000000  0.6074990000000  0.4913850000000 1.0
C      1  0.5792470000000  0.3904130000000  0.4880480000000 1.0
C      1  0.5486490000000  0.5030170000000  0.3881460000000 1.0
C      1  0.5346730000000  0.4962080000000  0.5409500000000 1.0
C      1  0.3856750000000  0.4911210000000  0.5317560000000 1.0
C      1  0.6006520000000  0.6049200000000  0.5039700000000 1.0
C      1  0.4348320000000  0.5213420000000  0.4415410000000 1.0
C      1  0.4631270000000  0.4691710000000  0.6014820000000 1.0
C      1  0.5291270000000  0.4369980000000  0.4052750000000 1.0
C      1  0.4868570000000  0.4562400000000  0.5914100000000 1.0
C      1  0.5588470000000  0.5371940000000  0.4995340000000 1.0
C      1  0.5492720000000  0.4852760000000  0.6160830000000 1.0
C      1  0.5271590000000  0.5508120000000  0.3971950000000 1.0
C      1  0.4212500000000  0.5157570000000  0.5647800000000 1.0
C      1  0.5415330000000  0.4964000000000  0.5673400000000 1.0
C      1  0.5391600000000  0.5689550000000  0.5734700000000 1.0
C      1  0.6170090000000  0.4436100000000  0.4864350000000 1.0
C      1  0.4224920000000  0.5093830000000  0.5070490000000 1.0
C      1  0.4976110000000  0.5723760000000  0.6079150000000 1.0
C      1  0.5069010000000  0.4455340000000  0.4932070000000 1.0
C      1  0.5558870000000  0.3980370000000  0.4740940000000 1.0
C      1  0.3855840000000  0.5199450000000  0.3851940000000 1.0
C      1  0.5520740000000  0.4340670000000  0.5140120000000 1.0
C      1  0.4073600000000  0.5316250000000  0.5453870000000 1.0
C      1  0.5299790000000  0.5251600000000  0.3835720000000 1.0
C      1  0.5588610000000  0.5121410000000  0.6178750000000 1.0
C      1  0.4070830000000  0.4877950000000  0.4662820000000 1.0
C      1  0.4854750000000  0.5718070000000  0.5505340000000 1.0
C      1  0.5610700000000  0.5364370000000  0.6059880000000 1.0
C      1  0.3924750000000  0.4461460000000  0.5150400000000 1.0
C      1  0.5117780000000  0.4549190000000  0.6051970000000 1.0
C      1  0.5630610000000  0.4424070000000  0.4897270000000 1.0
C      1  0.5122990000000  0.3762170000000  0.5528380000000 1.0
C      1  0.5292390000000  0.4337740000000  0.5953610000000 1.0
C      1  0.4504480000000  0.4970270000000  0.4444580000000 1.0
C      1  0.5130910000000  0.3891450000000  0.4555230000000 1.0
C      1  0.4001860000000  0.5129020000000  0.4071290000000 1.0
C      1  0.4523770000000  0.5513670000000  0.5088660000000 1.0
C      1  0.5023970000000  0.4327520000000  0.4063910000000 1.0
C      1  0.4249220000000  0.5622050000000  0.5097920000000 1.0
C      1  0.4690340000000  0.5091990000000  0.5216680000000 1.0
C      1  0.5520690000000  0.5830870000000  0.5266510000000 1.0
C      1  0.4794940000000  0.5289220000000  0.4338940000000 1.0
C      1  0.5079260000000  0.5719190000000  0.5331860000000 1.0
C      1  0.4330960000000  0.5558010000000  0.5877080000000 1.0
C      1  0.5005440000000  0.4132960000000  0.4538450000000 1.0
C      1  0.4722610000000  0.5703880000000  0.5004840000000 1.0
C      1  0.5625610000000  0.5590580000000  0.5164090000000 1.0
C      1  0.5714710000000  0.5289750000000  0.4413470000000 1.0
C      1  0.5888680000000  0.4349860000000  0.5421750000000 1.0
C      1  0.5437200000000  0.4800480000000  0.5199220000000 1.0
C      1  0.5328410000000  0.5772840000000  0.5461260000000 1.0
C      1  0.5331710000000  0.5284340000000  0.4890560000000 1.0
C      1  0.4111480000000  0.4731160000000  0.4399930000000 1.0
C      1  0.4840110000000  0.4748140000000  0.5489420000000 1.0
C      1  0.5834840000000  0.5187360000000  0.4182800000000 1.0
C      1  0.4473540000000  0.5232890000000  0.5115910000000 1.0
C      1  0.5239880000000  0.5268430000000  0.4625120000000 1.0
C      1  0.4430820000000  0.5643980000000  0.4610610000000 1.0
C      1  0.5957880000000  0.4018790000000  0.5059320000000 1.0
C      1  0.4731920000000  0.3857420000000  0.4847880000000 1.0
C      1  0.6007280000000  0.4554880000000  0.4648660000000 1.0
C      1  0.5172410000000  0.4089450000000  0.5885500000000 1.0
C      1  0.6016520000000  0.4276820000000  0.5160400000000 1.0
C      1  0.5750590000000  0.6040830000000  0.4913400000000 1.0
C      1  0.5497210000000  0.4557150000000  0.3999270000000 1.0
C      1  0.4848380000000  0.4975000000000  0.4780890000000 1.0
C      1  0.5416320000000  0.4729300000000  0.4523290000000 1.0
C      1  0.4592070000000  0.4351680000000  0.4719440000000 1.0
C      1  0.4188140000000  0.5601380000000  0.4800410000000 1.0
C      1  0.4483520000000  0.4912640000000  0.6080580000000 1.0
C      1  0.4882070000000  0.4487920000000  0.5614490000000 1.0
C      1  0.4732290000000  0.4043830000000  0.5664240000000 1.0
C      1  0.4698560000000  0.4883250000000  0.3772580000000 1.0
C      1  0.4562490000000  0.4613370000000  0.4787920000000 1.0
C      1  0.4391840000000  0.4144800000000  0.4823930000000 1.0
C      1  0.4132190000000  0.4243900000000  0.4699270000000 1.0
C      1  0.4810020000000  0.5197950000000  0.5693570000000 1.0
C      1  0.4921140000000  0.5845850000000  0.4179120000000 1.0
C      1  0.4992970000000  0.4254320000000  0.5129670000000 1.0
C      1  0.4781290000000  0.5956240000000  0.4405430000000 1.0
C      1  0.5275770000000  0.5138630000000  0.5818280000000 1.0
C      1  0.3952600000000  0.4350530000000  0.4898980000000 1.0
C      1  0.5201840000000  0.5751370000000  0.5937520000000 1.0
C      1  0.4001210000000  0.5143260000000  0.5243330000000 1.0
C      1  0.4208130000000  0.5585090000000  0.4128030000000 1.0
C      1  0.4376630000000  0.4931180000000  0.5584900000000 1.0
C      1  0.4240070000000  0.4674640000000  0.5526890000000 1.0
C      1  0.4867610000000  0.5036520000000  0.3633540000000 1.0
C      1  0.5774390000000  0.4647140000000  0.4792950000000 1.0
C      1  0.5722880000000  0.5854730000000  0.4696730000000 1.0
C      1  0.5634940000000  0.4859450000000  0.4659280000000 1.0
C      1  0.5313190000000  0.3837700000000  0.4769940000000 1.0
C      1  0.4639710000000  0.4824350000000  0.4039560000000 1.0
C      1  0.5743170000000  0.4678860000000  0.4138120000000 1.0
C      1  0.4638870000000  0.4307690000000  0.5596090000000 1.0
C      1  0.5087190000000  0.5186120000000  0.3659730000000 1.0
C      1  0.5552280000000  0.4431120000000  0.5857340000000 1.0
END
