TITL C-3866674-3872-529 0.127111128316172 125000 -137.711881058756 0 0 25 (C1) n - 1
REM
REM in /home/nfs/bkarasulu/CARBON/AIRSS/Generating-Clusters/LCBOP/Only-C1/SD-CG/FIRE-CG
REM
REM
REM
REM
REM
REM ./C.cell (11c1c37f851c82e70ff6c80c92926a4b)
REM AIRSS Version 0.9.1 bugfix July 2018 build 013d7b7c2542+ Fri, 06 Jul 2018 19:26:36 +0100
REM compiler GCC version 9.2.1 20190827 (Red Hat 9.2.1-1)
REM options -cpp -mtune=generic -march=x86-64 -g -O0 -fpre-include=/usr/include/finclude/math-vector-fortran.h
REM seed -761448389 284157651 641055199 1602060079 22732574 1214968717 -667684447 466681471 -1788841276 -2119403728 -1264952623 243017766 -1749059509 -599884380 1377693594 -936822351 -508999671 657098677 1870085926 -232947265 -917049535 2137086678 358621642 -2143239939 -1115980875 80833518 416853666 -1217915694 -539229401 -752436531 -1726926229 -317593875 1784725667
REM
CELL 1.54180   50.00000   50.00000   50.00000   90.00000   90.00000   90.00000
LATT -1
SFAC C  
C      1  0.4016120000000  0.4890830000000  0.4810390000000 1.0
C      1  0.4636090000000  0.4695680000000  0.5395950000000 1.0
C      1  0.4885050000000  0.4821420000000  0.5410200000000 1.0
C      1  0.5200970000000  0.4873610000000  0.4743650000000 1.0
C      1  0.5721680000000  0.5218350000000  0.5070360000000 1.0
C      1  0.5534480000000  0.4990660000000  0.5078150000000 1.0
C      1  0.5174680000000  0.5313990000000  0.4550730000000 1.0
C      1  0.5110400000000  0.4953080000000  0.5365210000000 1.0
C      1  0.4432440000000  0.4762690000000  0.5582740000000 1.0
C      1  0.4585350000000  0.4506460000000  0.5196860000000 1.0
C      1  0.5038370000000  0.5077890000000  0.4631000000000 1.0
C      1  0.5515910000000  0.5562350000000  0.4797160000000 1.0
C      1  0.5562560000000  0.5465530000000  0.5058860000000 1.0
C      1  0.5312910000000  0.5097670000000  0.5245000000000 1.0
C      1  0.5636010000000  0.5203080000000  0.4493370000000 1.0
C      1  0.5474610000000  0.4878600000000  0.4821210000000 1.0
C      1  0.4762120000000  0.5051940000000  0.4615450000000 1.0
C      1  0.5650950000000  0.4956320000000  0.4609190000000 1.0
C      1  0.5336490000000  0.5387440000000  0.5227320000000 1.0
C      1  0.4416310000000  0.4626120000000  0.5819580000000 1.0
C      1  0.4254370000000  0.4953950000000  0.4725440000000 1.0
C      1  0.4255270000000  0.4962790000000  0.5522780000000 1.0
C      1  0.5444670000000  0.5400180000000  0.4573760000000 1.0
C      1  0.4503460000000  0.5009430000000  0.4653760000000 1.0
C      1  0.4538720000000  0.4339940000000  0.5001890000000 1.0
END
