TITL C-3866674-3872-595 0.00537364589427178 125000 -313.042931980463 0 0 53 (C1) n - 1
REM
REM in /home/nfs/bkarasulu/CARBON/AIRSS/Generating-Clusters/LCBOP/Only-C1/SD-CG/FIRE-CG
REM
REM
REM
REM
REM
REM ./C.cell (11c1c37f851c82e70ff6c80c92926a4b)
REM AIRSS Version 0.9.1 bugfix July 2018 build 013d7b7c2542+ Fri, 06 Jul 2018 19:26:36 +0100
REM compiler GCC version 9.2.1 20190827 (Red Hat 9.2.1-1)
REM options -cpp -mtune=generic -march=x86-64 -g -O0 -fpre-include=/usr/include/finclude/math-vector-fortran.h
REM seed 1567366409 -1203596891 -1060747378 1442052044 -1574100843 631281079 -679466791 -2089468685 517270568 1258290746 177912023 550327806 914158453 -1479168469 1696452663 1341471881 -1049688651 124343304 -1496892926 1346907454 1953141882 -1385756477 -312785475 489339826 71363470 -264514417 -620807164 -449134654 583316508 1341710387 -470084906 1468267681 -2127050542
REM
CELL 1.54180   50.00000   50.00000   50.00000   90.00000   90.00000   90.00000
LATT -1
SFAC C  
C      1  0.5097580000000  0.5811040000000  0.5485660000000 1.0
C      1  0.4637510000000  0.4993010000000  0.5840210000000 1.0
C      1  0.5287650000000  0.4465920000000  0.4988580000000 1.0
C      1  0.5489800000000  0.4997350000000  0.4460520000000 1.0
C      1  0.5065310000000  0.5746860000000  0.5741450000000 1.0
C      1  0.5795200000000  0.4412940000000  0.4932690000000 1.0
C      1  0.5170110000000  0.5285570000000  0.4272560000000 1.0
C      1  0.5942710000000  0.4579550000000  0.4783310000000 1.0
C      1  0.4967800000000  0.5207940000000  0.6566080000000 1.0
C      1  0.4653660000000  0.5254910000000  0.4517820000000 1.0
C      1  0.4686150000000  0.4877570000000  0.4153080000000 1.0
C      1  0.5621370000000  0.5206220000000  0.4621590000000 1.0
C      1  0.4230390000000  0.4614830000000  0.5321330000000 1.0
C      1  0.4971170000000  0.5152700000000  0.6820840000000 1.0
C      1  0.5074220000000  0.5032670000000  0.5648540000000 1.0
C      1  0.4415430000000  0.4596630000000  0.4831330000000 1.0
C      1  0.4715910000000  0.4630980000000  0.5336460000000 1.0
C      1  0.5216330000000  0.5035070000000  0.4405080000000 1.0
C      1  0.5067420000000  0.4638260000000  0.4995730000000 1.0
C      1  0.4835610000000  0.5417830000000  0.4997580000000 1.0
C      1  0.4928010000000  0.4715420000000  0.4758000000000 1.0
C      1  0.4956650000000  0.5316840000000  0.6033490000000 1.0
C      1  0.4659750000000  0.4635740000000  0.4733380000000 1.0
C      1  0.4423150000000  0.5306670000000  0.5198090000000 1.0
C      1  0.5051530000000  0.5318020000000  0.4029890000000 1.0
C      1  0.5316720000000  0.5500230000000  0.4878250000000 1.0
C      1  0.4468840000000  0.4683570000000  0.5460070000000 1.0
C      1  0.4638480000000  0.5337010000000  0.4783930000000 1.0
C      1  0.5538560000000  0.4378540000000  0.4997370000000 1.0
C      1  0.5534410000000  0.4558290000000  0.4277880000000 1.0
C      1  0.5862690000000  0.5072770000000  0.4704910000000 1.0
C      1  0.4964060000000  0.5263590000000  0.6307080000000 1.0
C      1  0.5647670000000  0.4760220000000  0.4433780000000 1.0
C      1  0.4630200000000  0.5084390000000  0.4312940000000 1.0
C      1  0.4477350000000  0.4834380000000  0.5696580000000 1.0
C      1  0.5103990000000  0.4893260000000  0.5422460000000 1.0
C      1  0.3994030000000  0.4572820000000  0.5451060000000 1.0
C      1  0.4252570000000  0.4590080000000  0.5042130000000 1.0
C      1  0.4644450000000  0.4528460000000  0.3827390000000 1.0
C      1  0.4892150000000  0.5112320000000  0.5848100000000 1.0
C      1  0.5043200000000  0.4879470000000  0.4561610000000 1.0
C      1  0.5102060000000  0.5746170000000  0.5228030000000 1.0
C      1  0.5311860000000  0.5495390000000  0.4403390000000 1.0
C      1  0.5456560000000  0.5437300000000  0.4644530000000 1.0
C      1  0.4794640000000  0.4654440000000  0.4018990000000 1.0
C      1  0.4686470000000  0.5374230000000  0.5248450000000 1.0
C      1  0.4967550000000  0.4719320000000  0.5249180000000 1.0
C      1  0.4386330000000  0.5289420000000  0.4925000000000 1.0
C      1  0.5870320000000  0.4793760000000  0.4619790000000 1.0
C      1  0.5082510000000  0.5556500000000  0.5020870000000 1.0
C      1  0.5053030000000  0.4557040000000  0.4076340000000 1.0
C      1  0.5303950000000  0.4504260000000  0.4151570000000 1.0
C      1  0.5014910000000  0.5572210000000  0.5935040000000 1.0
END
