TITL C-3866670-4165-130 -1.55719658206944e-07 125000 -441.090570389506 0 0 73 (C1) n - 1
REM
REM in /home/nfs/bkarasulu/CARBON/AIRSS/Generating-Clusters/LCBOP/Only-C1/SD-CG/HFTN-CG/FIRE-CG
REM
REM
REM
REM
REM
REM ./C.cell (11c1c37f851c82e70ff6c80c92926a4b)
REM AIRSS Version 0.9.1 bugfix July 2018 build 013d7b7c2542+ Fri, 06 Jul 2018 19:26:36 +0100
REM compiler GCC version 9.2.1 20190827 (Red Hat 9.2.1-1)
REM options -cpp -mtune=generic -march=x86-64 -g -O0 -fpre-include=/usr/include/finclude/math-vector-fortran.h
REM seed 1643375030 1967922596 439027261 -1940244050 1333782412 265565000 1720434288 -1604882118 -1619285553 1115260225 1550490340 1579760699 -29827860 -500236124 -744457347 2017581686 -209469523 1214683760 692197261 798256385 -1063138143 679970361 72641146 -1440634693 -357671629 1492393301 -1452654050 497784591 119880955 56571414 -839393674 -1405269870 98896199
REM
CELL 1.54180   50.00000   50.00000   50.00000   90.00000   90.00000   90.00000
LATT -1
SFAC C  
C      1  0.5138410000000  0.5224650000000  0.4559080000000 1.0
C      1  0.5560560000000  0.4168990000000  0.4434040000000 1.0
C      1  0.5514920000000  0.4286000000000  0.5256330000000 1.0
C      1  0.4779510000000  0.5855000000000  0.4956240000000 1.0
C      1  0.4086590000000  0.5216570000000  0.4808600000000 1.0
C      1  0.4041610000000  0.4917020000000  0.5257490000000 1.0
C      1  0.4793520000000  0.4942610000000  0.5710640000000 1.0
C      1  0.4504590000000  0.5479210000000  0.5245600000000 1.0
C      1  0.4913890000000  0.5891830000000  0.4713220000000 1.0
C      1  0.4722910000000  0.4770730000000  0.5087690000000 1.0
C      1  0.4327400000000  0.4881760000000  0.4310410000000 1.0
C      1  0.5633010000000  0.5243220000000  0.4658640000000 1.0
C      1  0.4110000000000  0.4775600000000  0.5021960000000 1.0
C      1  0.5620090000000  0.5463920000000  0.5161410000000 1.0
C      1  0.4208090000000  0.5092220000000  0.5376030000000 1.0
C      1  0.4853760000000  0.5392920000000  0.5544000000000 1.0
C      1  0.5501960000000  0.3935860000000  0.4902320000000 1.0
C      1  0.5592810000000  0.4939410000000  0.5615100000000 1.0
C      1  0.4753230000000  0.5579980000000  0.5354880000000 1.0
C      1  0.4633950000000  0.5240320000000  0.4089260000000 1.0
C      1  0.5374530000000  0.4633670000000  0.4304230000000 1.0
C      1  0.5474070000000  0.4896470000000  0.4372270000000 1.0
C      1  0.5773590000000  0.4860830000000  0.4399750000000 1.0
C      1  0.5356840000000  0.5384920000000  0.5552310000000 1.0
C      1  0.5222940000000  0.4401020000000  0.5652590000000 1.0
C      1  0.5593390000000  0.4447240000000  0.5026180000000 1.0
C      1  0.4709650000000  0.5192510000000  0.4827230000000 1.0
C      1  0.5174360000000  0.4997410000000  0.5199160000000 1.0
C      1  0.5625160000000  0.4100590000000  0.4700660000000 1.0
C      1  0.5041560000000  0.5069650000000  0.5805350000000 1.0
C      1  0.5634930000000  0.5408360000000  0.4885740000000 1.0
C      1  0.4344650000000  0.6065860000000  0.4867810000000 1.0
C      1  0.4519940000000  0.4593320000000  0.5216030000000 1.0
C      1  0.4213980000000  0.4295740000000  0.4968780000000 1.0
C      1  0.4945700000000  0.4852640000000  0.5273270000000 1.0
C      1  0.4480940000000  0.5179260000000  0.5305260000000 1.0
C      1  0.5158750000000  0.4610940000000  0.4839250000000 1.0
C      1  0.5407980000000  0.4652570000000  0.4974750000000 1.0
C      1  0.4108180000000  0.4933790000000  0.4782380000000 1.0
C      1  0.4179740000000  0.5455610000000  0.4886820000000 1.0
C      1  0.6047410000000  0.5273760000000  0.5344040000000 1.0
C      1  0.5440390000000  0.4453160000000  0.5480830000000 1.0
C      1  0.4187780000000  0.4836160000000  0.4532530000000 1.0
C      1  0.4154690000000  0.4061900000000  0.4870230000000 1.0
C      1  0.4984820000000  0.5242790000000  0.4791860000000 1.0
C      1  0.4981520000000  0.4489680000000  0.5729610000000 1.0
C      1  0.4935350000000  0.5825960000000  0.4456150000000 1.0
C      1  0.5399220000000  0.5136300000000  0.4512550000000 1.0
C      1  0.5188390000000  0.5735080000000  0.5227120000000 1.0
C      1  0.5825100000000  0.4585920000000  0.4336980000000 1.0
C      1  0.5401580000000  0.4836470000000  0.5191500000000 1.0
C      1  0.5106680000000  0.5319190000000  0.5665910000000 1.0
C      1  0.4888880000000  0.4643030000000  0.4866400000000 1.0
C      1  0.5598360000000  0.5217210000000  0.5561710000000 1.0
C      1  0.4596270000000  0.5045150000000  0.5044280000000 1.0
C      1  0.4279580000000  0.4547890000000  0.5066450000000 1.0
C      1  0.4909910000000  0.5750050000000  0.5189230000000 1.0
C      1  0.4874720000000  0.5676280000000  0.4244720000000 1.0
C      1  0.5386600000000  0.5556600000000  0.5312390000000 1.0
C      1  0.5579810000000  0.4425110000000  0.4315720000000 1.0
C      1  0.4674990000000  0.5152980000000  0.5545030000000 1.0
C      1  0.5501610000000  0.4735940000000  0.5442810000000 1.0
C      1  0.5134200000000  0.5214580000000  0.5029640000000 1.0
C      1  0.4563580000000  0.4562270000000  0.5494810000000 1.0
C      1  0.5855220000000  0.5080760000000  0.4564460000000 1.0
C      1  0.5751630000000  0.4320370000000  0.4834330000000 1.0
C      1  0.5778830000000  0.5313390000000  0.5354160000000 1.0
C      1  0.4766690000000  0.5468840000000  0.4118150000000 1.0
C      1  0.4370700000000  0.5604940000000  0.5030070000000 1.0
C      1  0.5467080000000  0.4017880000000  0.5164870000000 1.0
C      1  0.4484360000000  0.5030890000000  0.4155910000000 1.0
C      1  0.4761110000000  0.4659890000000  0.5676450000000 1.0
C      1  0.4491250000000  0.5849380000000  0.4946340000000 1.0
END
