TITL C-3866669-3764-201 0.13578618265301 125000 -606.682119268605 0 0 99 (C1) n - 1
REM
REM in /home/nfs/bkarasulu/CARBON/AIRSS/Generating-Clusters/LCBOP/Only-C1/SD-CG/HFTN-CG/FIRE-CG
REM
REM
REM
REM
REM
REM ./C.cell (11c1c37f851c82e70ff6c80c92926a4b)
REM AIRSS Version 0.9.1 bugfix July 2018 build 013d7b7c2542+ Fri, 06 Jul 2018 19:26:36 +0100
REM compiler GCC version 9.2.1 20190827 (Red Hat 9.2.1-1)
REM options -cpp -mtune=generic -march=x86-64 -g -O0 -fpre-include=/usr/include/finclude/math-vector-fortran.h
REM seed -1724323839 -1600349779 -413177725 -1784308468 -1810806138 -1297092120 245280070 -548753449 -645418654 -1857026430 -1448422660 1661903441 2050140686 2093338239 1708047656 -1402887714 -1727443950 -615839708 -208753824 1771861669 1382685721 -1360209478 2146167195 476245034 -1202677482 1599648391 -1955083619 -524244953 489987585 1641626390 933936545 909359281 435741862
REM
CELL 1.54180   50.00000   50.00000   50.00000   90.00000   90.00000   90.00000
LATT -1
SFAC C  
C      1  0.5921600000000  0.4474160000000  0.5066450000000 1.0
C      1  0.5693700000000  0.5894020000000  0.4794910000000 1.0
C      1  0.6088970000000  0.5917450000000  0.5068890000000 1.0
C      1  0.5405580000000  0.5442160000000  0.4081390000000 1.0
C      1  0.5972700000000  0.5066440000000  0.5292700000000 1.0
C      1  0.4228150000000  0.4500990000000  0.5298810000000 1.0
C      1  0.4410730000000  0.3633710000000  0.4562070000000 1.0
C      1  0.5582320000000  0.5827130000000  0.4314330000000 1.0
C      1  0.5009720000000  0.4635130000000  0.4342650000000 1.0
C      1  0.3200080000000  0.4013680000000  0.5378270000000 1.0
C      1  0.5048840000000  0.5462140000000  0.4640800000000 1.0
C      1  0.5691340000000  0.5412690000000  0.4124350000000 1.0
C      1  0.4382380000000  0.5209360000000  0.5299860000000 1.0
C      1  0.5890270000000  0.5097680000000  0.5562680000000 1.0
C      1  0.4443420000000  0.5748430000000  0.4372740000000 1.0
C      1  0.4336000000000  0.5245140000000  0.5575090000000 1.0
C      1  0.4862110000000  0.3809680000000  0.4656430000000 1.0
C      1  0.4526230000000  0.4809620000000  0.4266010000000 1.0
C      1  0.5394360000000  0.4519430000000  0.5524110000000 1.0
C      1  0.5134440000000  0.4496480000000  0.5690290000000 1.0
C      1  0.5096980000000  0.4863190000000  0.5286720000000 1.0
C      1  0.4624000000000  0.5312670000000  0.5181460000000 1.0
C      1  0.4765160000000  0.4645760000000  0.5047630000000 1.0
C      1  0.5003900000000  0.5439950000000  0.4351350000000 1.0
C      1  0.4273400000000  0.5267710000000  0.4300140000000 1.0
C      1  0.5989740000000  0.5300290000000  0.4859910000000 1.0
C      1  0.5793150000000  0.5599100000000  0.5481460000000 1.0
C      1  0.4900020000000  0.5681920000000  0.4229720000000 1.0
C      1  0.5100590000000  0.4150360000000  0.4912910000000 1.0
C      1  0.5112570000000  0.5322070000000  0.5789340000000 1.0
C      1  0.4919370000000  0.5668730000000  0.4795240000000 1.0
C      1  0.3891060000000  0.3951710000000  0.4999230000000 1.0
C      1  0.4754540000000  0.5632720000000  0.5530690000000 1.0
C      1  0.4407340000000  0.4400100000000  0.5491330000000 1.0
C      1  0.4747130000000  0.5557210000000  0.5255060000000 1.0
C      1  0.5823490000000  0.5853130000000  0.5044260000000 1.0
C      1  0.3427070000000  0.3990820000000  0.5252100000000 1.0
C      1  0.4911630000000  0.4649880000000  0.5286800000000 1.0
C      1  0.5102050000000  0.5824420000000  0.4091920000000 1.0
C      1  0.5680260000000  0.5755760000000  0.5273600000000 1.0
C      1  0.5405880000000  0.5811220000000  0.5281550000000 1.0
C      1  0.4370220000000  0.4883680000000  0.4929810000000 1.0
C      1  0.5300560000000  0.5207370000000  0.5009890000000 1.0
C      1  0.6162670000000  0.5387230000000  0.4685340000000 1.0
C      1  0.5666390000000  0.4596970000000  0.5672830000000 1.0
C      1  0.5136120000000  0.4617400000000  0.5947020000000 1.0
C      1  0.5426560000000  0.4682670000000  0.4643760000000 1.0
C      1  0.4292590000000  0.5530800000000  0.4337330000000 1.0
C      1  0.4750210000000  0.4668220000000  0.4291880000000 1.0
C      1  0.5672850000000  0.4579700000000  0.5037730000000 1.0
C      1  0.5572450000000  0.5048940000000  0.5003320000000 1.0
C      1  0.4787790000000  0.5124730000000  0.5039820000000 1.0
C      1  0.5166530000000  0.4880850000000  0.6000380000000 1.0
C      1  0.4712510000000  0.5819500000000  0.4395340000000 1.0
C      1  0.5249320000000  0.5080690000000  0.5817410000000 1.0
C      1  0.5367420000000  0.5737360000000  0.4129060000000 1.0
C      1  0.5285750000000  0.5043600000000  0.4338960000000 1.0
C      1  0.5250210000000  0.4758610000000  0.4414050000000 1.0
C      1  0.5711450000000  0.4899100000000  0.5673380000000 1.0
C      1  0.4255210000000  0.4636980000000  0.4842240000000 1.0
C      1  0.4862340000000  0.4026090000000  0.4836540000000 1.0
C      1  0.5792270000000  0.5632240000000  0.4261040000000 1.0
C      1  0.5424730000000  0.5152560000000  0.4568780000000 1.0
C      1  0.4609820000000  0.4109200000000  0.4930790000000 1.0
C      1  0.4887270000000  0.4509520000000  0.5534820000000 1.0
C      1  0.5537940000000  0.5954590000000  0.4565640000000 1.0
C      1  0.5036020000000  0.6103700000000  0.4633110000000 1.0
C      1  0.4625200000000  0.4490000000000  0.5647450000000 1.0
C      1  0.4936760000000  0.5499100000000  0.5697730000000 1.0
C      1  0.4374030000000  0.5123530000000  0.5810120000000 1.0
C      1  0.5269470000000  0.5320140000000  0.4743280000000 1.0
C      1  0.3658090000000  0.3968200000000  0.5124150000000 1.0
C      1  0.5062250000000  0.5090530000000  0.5122370000000 1.0
C      1  0.4142800000000  0.3955190000000  0.4878770000000 1.0
C      1  0.4592870000000  0.5831270000000  0.5626220000000 1.0
C      1  0.5375220000000  0.4317500000000  0.5294440000000 1.0
C      1  0.4677450000000  0.3650980000000  0.4544440000000 1.0
C      1  0.5564680000000  0.4805530000000  0.5172770000000 1.0
C      1  0.4654580000000  0.4887370000000  0.4942780000000 1.0
C      1  0.5854100000000  0.5375580000000  0.5620750000000 1.0
C      1  0.4463020000000  0.4897890000000  0.5922060000000 1.0
C      1  0.5434960000000  0.4988410000000  0.5624900000000 1.0
C      1  0.4361090000000  0.5018130000000  0.4271450000000 1.0
C      1  0.4252690000000  0.4986340000000  0.5174290000000 1.0
C      1  0.4842540000000  0.5897610000000  0.4638230000000 1.0
C      1  0.5156290000000  0.5804120000000  0.5193240000000 1.0
C      1  0.4332330000000  0.4157730000000  0.4946590000000 1.0
C      1  0.4560370000000  0.4655180000000  0.5866580000000 1.0
C      1  0.4244450000000  0.4415590000000  0.5023430000000 1.0
C      1  0.5358800000000  0.4807590000000  0.5390450000000 1.0
C      1  0.5302980000000  0.6108130000000  0.4600960000000 1.0
C      1  0.5312070000000  0.4303200000000  0.5010740000000 1.0
C      1  0.5197980000000  0.5278660000000  0.4200260000000 1.0
C      1  0.5470830000000  0.4484060000000  0.4848580000000 1.0
C      1  0.4930020000000  0.5685000000000  0.5077790000000 1.0
C      1  0.4213320000000  0.3757060000000  0.4692920000000 1.0
C      1  0.5848290000000  0.5158200000000  0.5053300000000 1.0
C      1  0.5551960000000  0.4942610000000  0.4715320000000 1.0
C      1  0.4139030000000  0.4773030000000  0.5328140000000 1.0
END
