TITL C-3866675-3766-28 301.527946993174 125000 -622.69001783121 0 0 101 (C1) n - 1
REM
REM in /home/nfs/bkarasulu/CARBON/AIRSS/Generating-Clusters/LCBOP/Only-C1/SD-CG/HFTN-CG/FIRE-CG
REM
REM
REM
REM
REM
REM ./C.cell (11c1c37f851c82e70ff6c80c92926a4b)
REM AIRSS Version 0.9.1 bugfix July 2018 build 013d7b7c2542+ Fri, 06 Jul 2018 19:26:36 +0100
REM compiler GCC version 9.2.1 20190827 (Red Hat 9.2.1-1)
REM options -cpp -mtune=generic -march=x86-64 -g -O0 -fpre-include=/usr/include/finclude/math-vector-fortran.h
REM seed 524145920 -1126843266 -1362232347 -1558835044 1790544242 -1712740437 -2136926335 -1741798990 -1147607475 -1378746204 -1101877435 323989341 1356250776 1450274697 -1215471132 1652976705 1766963720 -1464021935 -264387986 -601707222 -1806143760 1979274663 1111847164 -1154755505 -62782778 1272079518 2000637147 -2108074188 1743613675 -421005147 561587749 -257232297 935506015
REM
CELL 1.54180   50.00000   50.00000   50.00000   90.00000   90.00000   90.00000
LATT -1
SFAC C  
C      1  0.4301160000000  0.4631650000000  0.4665250000000 1.0
C      1  0.4919580000000  0.4666740000000  0.5031420000000 1.0
C      1  0.4535970000000  0.5648680000000  0.5334890000000 1.0
C      1  0.5096220000000  0.4286990000000  0.5761520000000 1.0
C      1  0.5146270000000  0.4642430000000  0.4838370000000 1.0
C      1  0.4562210000000  0.4982680000000  0.6019820000000 1.0
C      1  0.5462780000000  0.4777010000000  0.4290470000000 1.0
C      1  0.5030560000000  0.4600430000000  0.5455060000000 1.0
C      1  0.4584310000000  0.5626600000000  0.4841740000000 1.0
C      1  0.5182170000000  0.5660630000000  0.4929930000000 1.0
C      1  0.4587000000000  0.4460790000000  0.5790200000000 1.0
C      1  0.5048890000000  0.5411550000000  0.5791330000000 1.0
C      1  0.4281820000000  0.5206950000000  0.5681640000000 1.0
C      1  0.4723020000000  0.5046000000000  0.4036040000000 1.0
C      1  0.5440550000000  0.4329080000000  0.4642870000000 1.0
C      1  0.5322720000000  0.5283720000000  0.4221810000000 1.0
C      1  0.5270600000000  0.5764040000000  0.4336230000000 1.0
C      1  0.5602530000000  0.4582680000000  0.5174080000000 1.0
C      1  0.4961000000000  0.5447890000000  0.4531390000000 1.0
C      1  0.5327620000000  0.4328090000000  0.4375070000000 1.0
C      1  0.4898550000000  0.4465930000000  0.5240670000000 1.0
C      1  0.4575390000000  0.5104410000000  0.4952380000000 1.0
C      1  0.5316460000000  0.5327490000000  0.5740110000000 1.0
C      1  0.5299240000000  0.4555220000000  0.4199920000000 1.0
C      1  0.4897200000000  0.5462450000000  0.5560980000000 1.0
C      1  0.5046720000000  0.5004120000000  0.6025110000000 1.0
C      1  0.4952300000000  0.5328460000000  0.5314850000000 1.0
C      1  0.4296230000000  0.4631480000000  0.5427250000000 1.0
C      1  0.5303950000000  0.5018430000000  0.4327190000000 1.0
C      1  0.4916450000000  0.4908860000000  0.5166690000000 1.0
C      1  0.5174610000000  0.5499750000000  0.4346550000000 1.0
C      1  0.4178170000000  0.5327050000000  0.5431650000000 1.0
C      1  0.4865050000000  0.4203650000000  0.5147780000000 1.0
C      1  0.4131780000000  0.5352370000000  0.4781550000000 1.0
C      1  0.4245090000000  0.4409390000000  0.5261320000000 1.0
C      1  0.5477440000000  0.5332750000000  0.4000960000000 1.0
C      1  0.5219950000000  0.5266480000000  0.5219630000000 1.0
C      1  0.4487930000000  0.5398430000000  0.5790140000000 1.0
C      1  0.4299020000000  0.5508610000000  0.5233570000000 1.0
C      1  0.4638800000000  0.5268420000000  0.5999910000000 1.0
C      1  0.5323090000000  0.5010450000000  0.5323280000000 1.0
C      1  0.5302350000000  0.5401470000000  0.4984320000000 1.0
C      1  0.4382060000000  0.4276940000000  0.5051190000000 1.0
C      1  0.4056360000000  0.5096470000000  0.4716870000000 1.0
C      1  0.4361450000000  0.4926820000000  0.5813150000000 1.0
C      1  0.4941160000000  0.5179720000000  0.4620720000000 1.0
C      1  0.5253960000000  0.4462170000000  0.5572210000000 1.0
C      1  0.4537870000000  0.5006100000000  0.4468230000000 1.0
C      1  0.4671220000000  0.4326000000000  0.4641530000000 1.0
C      1  0.4631100000000  0.5553100000000  0.5588520000000 1.0
C      1  0.5578420000000  0.5081430000000  0.4767540000000 1.0
C      1  0.6020070000000  0.5087500000000  0.4537530000000 1.0
C      1  0.5674850000000  0.4500860000000  0.4668530000000 1.0
C      1  0.5679780000000  0.4728830000000  0.4480570000000 1.0
C      1  0.4354110000000  0.4868280000000  0.5290510000000 1.0
C      1  0.4678280000000  0.5107880000000  0.4695530000000 1.0
C      1  0.4312690000000  0.5511570000000  0.4936620000000 1.0
C      1  0.5082360000000  0.4970740000000  0.4497800000000 1.0
C      1  0.4926220000000  0.5275170000000  0.6001730000000 1.0
C      1  0.4811380000000  0.4842490000000  0.6074520000000 1.0
C      1  0.4350110000000  0.4933620000000  0.5019340000000 1.0
C      1  0.4411370000000  0.4379580000000  0.4782150000000 1.0
C      1  0.6475100000000  0.5343120000000  0.4446100000000 1.0
C      1  0.4883490000000  0.3899890000000  0.4519930000000 1.0
C      1  0.5407760000000  0.4883450000000  0.4890560000000 1.0
C      1  0.4825890000000  0.4328760000000  0.5816570000000 1.0
C      1  0.5288820000000  0.4982240000000  0.5861980000000 1.0
C      1  0.5259100000000  0.4351850000000  0.4891540000000 1.0
C      1  0.5346710000000  0.5921500000000  0.4540180000000 1.0
C      1  0.5773810000000  0.4974170000000  0.4593440000000 1.0
C      1  0.5766770000000  0.4522140000000  0.4942400000000 1.0
C      1  0.4183200000000  0.4853000000000  0.4806150000000 1.0
C      1  0.4862940000000  0.4118680000000  0.4680740000000 1.0
C      1  0.5558120000000  0.5344090000000  0.4868820000000 1.0
C      1  0.5324510000000  0.5750030000000  0.5387780000000 1.0
C      1  0.6698180000000  0.5471130000000  0.4403500000000 1.0
C      1  0.4509080000000  0.4727500000000  0.4479950000000 1.0
C      1  0.4385990000000  0.4651070000000  0.5699760000000 1.0
C      1  0.4597460000000  0.4111750000000  0.5141450000000 1.0
C      1  0.5416150000000  0.4396010000000  0.5245270000000 1.0
C      1  0.4569410000000  0.5176620000000  0.4241070000000 1.0
C      1  0.5030000000000  0.5748350000000  0.5150590000000 1.0
C      1  0.6248340000000  0.5213110000000  0.4490050000000 1.0
C      1  0.5489300000000  0.4847750000000  0.5161660000000 1.0
C      1  0.5027040000000  0.4160330000000  0.4913110000000 1.0
C      1  0.5377570000000  0.4730290000000  0.5760610000000 1.0
C      1  0.5084230000000  0.4869740000000  0.5398540000000 1.0
C      1  0.5074030000000  0.4640110000000  0.4040780000000 1.0
C      1  0.5006840000000  0.4707110000000  0.4579860000000 1.0
C      1  0.4557720000000  0.5037360000000  0.5401560000000 1.0
C      1  0.4747850000000  0.5142570000000  0.5196840000000 1.0
C      1  0.4732060000000  0.5716600000000  0.5111410000000 1.0
C      1  0.5733110000000  0.5569300000000  0.4901790000000 1.0
C      1  0.5410970000000  0.5540280000000  0.5569360000000 1.0
C      1  0.5539810000000  0.5873700000000  0.5245350000000 1.0
C      1  0.4693900000000  0.5572550000000  0.4562480000000 1.0
C      1  0.5605280000000  0.5820600000000  0.4970980000000 1.0
C      1  0.4889650000000  0.4834720000000  0.3987570000000 1.0
C      1  0.4549530000000  0.5457450000000  0.4326350000000 1.0
C      1  0.5366230000000  0.5850380000000  0.4808160000000 1.0
C      1  0.4756470000000  0.4575130000000  0.4516020000000 1.0
END
