TITL C-3866675-3766-265 1.08243620636441 125000 -399.582261084691 0 0 66 (C1) n - 1
REM
REM in /home/nfs/bkarasulu/CARBON/AIRSS/Generating-Clusters/LCBOP/Only-C1/SD-CG/FIRE-CG
REM
REM
REM
REM
REM
REM ./C.cell (11c1c37f851c82e70ff6c80c92926a4b)
REM AIRSS Version 0.9.1 bugfix July 2018 build 013d7b7c2542+ Fri, 06 Jul 2018 19:26:36 +0100
REM compiler GCC version 9.2.1 20190827 (Red Hat 9.2.1-1)
REM options -cpp -mtune=generic -march=x86-64 -g -O0 -fpre-include=/usr/include/finclude/math-vector-fortran.h
REM seed -843839957 -650870579 1918175144 -1876821220 -372356042 -381625863 1155395417 813438882 1269034827 99605607 428109896 1256978785 -1857228848 1810967390 -1778786365 358032836 -755295622 750117501 -133898592 -882785859 -948218803 -821598740 1320985727 859916330 -1399962210 -1771273189 -334489076 1611055857 1468210222 -186595162 1020848084 -922480315 -1825004986
REM
CELL 1.54180   50.00000   50.00000   50.00000   90.00000   90.00000   90.00000
LATT -1
SFAC C  
C      1  0.4879170000000  0.4743090000000  0.4211850000000 1.0
C      1  0.5250610000000  0.4804480000000  0.6418770000000 1.0
C      1  0.4910240000000  0.5391090000000  0.5761650000000 1.0
C      1  0.4661250000000  0.3995340000000  0.5145080000000 1.0
C      1  0.4438970000000  0.4290470000000  0.4823720000000 1.0
C      1  0.4368400000000  0.3964460000000  0.4314210000000 1.0
C      1  0.4812580000000  0.5485710000000  0.4956430000000 1.0
C      1  0.4940700000000  0.5700670000000  0.5084300000000 1.0
C      1  0.5930320000000  0.5401870000000  0.4989510000000 1.0
C      1  0.4484810000000  0.4909740000000  0.5229620000000 1.0
C      1  0.4826320000000  0.4747690000000  0.5515920000000 1.0
C      1  0.5082440000000  0.4081240000000  0.4706280000000 1.0
C      1  0.5269980000000  0.4408480000000  0.5213500000000 1.0
C      1  0.4622620000000  0.4260310000000  0.4604390000000 1.0
C      1  0.4547160000000  0.5495200000000  0.4851820000000 1.0
C      1  0.4437070000000  0.4912350000000  0.4312370000000 1.0
C      1  0.6392480000000  0.5163690000000  0.4829390000000 1.0
C      1  0.5373010000000  0.4172740000000  0.5102880000000 1.0
C      1  0.5867460000000  0.5419000000000  0.5262160000000 1.0
C      1  0.4814970000000  0.5218330000000  0.4289940000000 1.0
C      1  0.4694180000000  0.5461730000000  0.4221130000000 1.0
C      1  0.4957060000000  0.4528890000000  0.4856600000000 1.0
C      1  0.5415940000000  0.6249040000000  0.5152480000000 1.0
C      1  0.4358340000000  0.5017100000000  0.4994940000000 1.0
C      1  0.6167390000000  0.5279700000000  0.4907320000000 1.0
C      1  0.5172450000000  0.4878700000000  0.6181500000000 1.0
C      1  0.4969590000000  0.4421780000000  0.5154480000000 1.0
C      1  0.4442250000000  0.4072620000000  0.5006370000000 1.0
C      1  0.5272890000000  0.6020390000000  0.5179480000000 1.0
C      1  0.4699680000000  0.4965800000000  0.4224640000000 1.0
C      1  0.4493540000000  0.5653520000000  0.4626410000000 1.0
C      1  0.5519990000000  0.5534060000000  0.5650180000000 1.0
C      1  0.4556390000000  0.5641140000000  0.4365880000000 1.0
C      1  0.5127210000000  0.5231870000000  0.5846190000000 1.0
C      1  0.5091350000000  0.4961710000000  0.5927890000000 1.0
C      1  0.4918360000000  0.4104630000000  0.5137320000000 1.0
C      1  0.4301110000000  0.4841010000000  0.4531380000000 1.0
C      1  0.4991870000000  0.5210070000000  0.4510930000000 1.0
C      1  0.4933300000000  0.5225390000000  0.4983540000000 1.0
C      1  0.5393340000000  0.5781690000000  0.5601320000000 1.0
C      1  0.4897420000000  0.4299290000000  0.4676090000000 1.0
C      1  0.5753300000000  0.5508360000000  0.4800150000000 1.0
C      1  0.5737840000000  0.5461860000000  0.5490080000000 1.0
C      1  0.4807580000000  0.4513950000000  0.4068530000000 1.0
C      1  0.4510780000000  0.4612500000000  0.5190590000000 1.0
C      1  0.4667610000000  0.4293790000000  0.4126430000000 1.0
C      1  0.5313250000000  0.5771780000000  0.4757040000000 1.0
C      1  0.5159920000000  0.4019790000000  0.4976730000000 1.0
C      1  0.4997690000000  0.5063990000000  0.4758020000000 1.0
C      1  0.4372310000000  0.5288000000000  0.4928920000000 1.0
C      1  0.6613960000000  0.5049530000000  0.4752710000000 1.0
C      1  0.4313200000000  0.4797670000000  0.4806900000000 1.0
C      1  0.4960710000000  0.5727930000000  0.5374100000000 1.0
C      1  0.5382500000000  0.5343460000000  0.5804650000000 1.0
C      1  0.4721740000000  0.4981810000000  0.5378700000000 1.0
C      1  0.5538770000000  0.5637380000000  0.4710530000000 1.0
C      1  0.4846890000000  0.5574890000000  0.5577400000000 1.0
C      1  0.4970750000000  0.4780840000000  0.5749510000000 1.0
C      1  0.5153210000000  0.5860750000000  0.4967420000000 1.0
C      1  0.4393050000000  0.4547720000000  0.4933290000000 1.0
C      1  0.5056220000000  0.4721820000000  0.4432110000000 1.0
C      1  0.5202140000000  0.5885080000000  0.5424940000000 1.0
C      1  0.4916970000000  0.5127340000000  0.5242930000000 1.0
C      1  0.4759030000000  0.4540780000000  0.5326890000000 1.0
C      1  0.5019010000000  0.4774820000000  0.4714790000000 1.0
C      1  0.4547370000000  0.4168080000000  0.4346790000000 1.0
END
