TITL C-3866672-3872-716 8.27213139236981e-07 125000 -734.544542456485 0 0 119 (C1) n - 1
REM
REM in /home/nfs/bkarasulu/CARBON/AIRSS/Generating-Clusters/LCBOP/Only-C1/SD-CG/FIRE-CG
REM
REM
REM
REM
REM
REM ./C.cell (11c1c37f851c82e70ff6c80c92926a4b)
REM AIRSS Version 0.9.1 bugfix July 2018 build 013d7b7c2542+ Fri, 06 Jul 2018 19:26:36 +0100
REM compiler GCC version 9.2.1 20190827 (Red Hat 9.2.1-1)
REM options -cpp -mtune=generic -march=x86-64 -g -O0 -fpre-include=/usr/include/finclude/math-vector-fortran.h
REM seed 1683208571 -1229668256 1818349257 1757650625 -1003742573 1658142429 -1905167609 -1908754348 -345110385 2141780080 -1517764665 1847738886 1505127760 -572414398 -281599015 -1015333932 -1424433459 546247063 -786187404 1581109200 -561071778 -217883312 -2121698334 1676323476 1672371882 -1050916322 -368765097 -1956063659 2121728322 1536204570 -1421359048 1686902645 -1595301412
REM
CELL 1.54180   50.00000   50.00000   50.00000   90.00000   90.00000   90.00000
LATT -1
SFAC C  
C      1  0.4914560000000  0.4485570000000  0.5064460000000 1.0
C      1  0.4169880000000  0.4988250000000  0.4312100000000 1.0
C      1  0.5781850000000  0.5574530000000  0.5266420000000 1.0
C      1  0.5377130000000  0.4379170000000  0.4711110000000 1.0
C      1  0.4159810000000  0.4536300000000  0.5316200000000 1.0
C      1  0.4978400000000  0.5740050000000  0.5394210000000 1.0
C      1  0.4951800000000  0.5328590000000  0.4485030000000 1.0
C      1  0.5569740000000  0.5201920000000  0.4958080000000 1.0
C      1  0.5627590000000  0.5857460000000  0.4415990000000 1.0
C      1  0.4857080000000  0.4474420000000  0.4177670000000 1.0
C      1  0.5276220000000  0.6258960000000  0.5179760000000 1.0
C      1  0.5237160000000  0.4940380000000  0.4597730000000 1.0
C      1  0.4708590000000  0.5226510000000  0.5089280000000 1.0
C      1  0.5520030000000  0.4577260000000  0.4263440000000 1.0
C      1  0.5768300000000  0.5818460000000  0.5392180000000 1.0
C      1  0.4276780000000  0.5440300000000  0.4534230000000 1.0
C      1  0.5940440000000  0.4397720000000  0.4108420000000 1.0
C      1  0.5670160000000  0.5029300000000  0.4760220000000 1.0
C      1  0.5054320000000  0.4907010000000  0.5254640000000 1.0
C      1  0.5681620000000  0.5591260000000  0.4490140000000 1.0
C      1  0.4301750000000  0.4324740000000  0.4343280000000 1.0
C      1  0.5833010000000  0.4706010000000  0.5519440000000 1.0
C      1  0.5313280000000  0.5969870000000  0.5844990000000 1.0
C      1  0.5132530000000  0.4676600000000  0.5089180000000 1.0
C      1  0.4070670000000  0.4803980000000  0.5342560000000 1.0
C      1  0.4243840000000  0.5020610000000  0.5414230000000 1.0
C      1  0.5373180000000  0.4952300000000  0.6574060000000 1.0
C      1  0.4907930000000  0.4252200000000  0.4337780000000 1.0
C      1  0.4520360000000  0.3951480000000  0.5537340000000 1.0
C      1  0.5658350000000  0.5114350000000  0.5220850000000 1.0
C      1  0.5587800000000  0.4585000000000  0.5138870000000 1.0
C      1  0.4074950000000  0.5370910000000  0.4732870000000 1.0
C      1  0.5490270000000  0.5352530000000  0.5616580000000 1.0
C      1  0.4829370000000  0.5246990000000  0.5873260000000 1.0
C      1  0.5118420000000  0.4695360000000  0.4521840000000 1.0
C      1  0.5294160000000  0.5436830000000  0.5803410000000 1.0
C      1  0.5421290000000  0.4761430000000  0.4071200000000 1.0
C      1  0.5731920000000  0.4432590000000  0.5535170000000 1.0
C      1  0.4916030000000  0.4198720000000  0.5055860000000 1.0
C      1  0.5299490000000  0.5707030000000  0.5880920000000 1.0
C      1  0.5230440000000  0.4139530000000  0.4750580000000 1.0
C      1  0.6194100000000  0.5536520000000  0.5019030000000 1.0
C      1  0.5799310000000  0.4525650000000  0.4306150000000 1.0
C      1  0.4216310000000  0.4773950000000  0.4136670000000 1.0
C      1  0.4541860000000  0.4958390000000  0.4695990000000 1.0
C      1  0.5777120000000  0.4817620000000  0.5237520000000 1.0
C      1  0.5392550000000  0.4615210000000  0.4923040000000 1.0
C      1  0.5423660000000  0.5233360000000  0.4160570000000 1.0
C      1  0.4729250000000  0.5399440000000  0.4646380000000 1.0
C      1  0.4285210000000  0.4357900000000  0.5500030000000 1.0
C      1  0.5897340000000  0.4850830000000  0.5747390000000 1.0
C      1  0.4857120000000  0.5236530000000  0.4223490000000 1.0
C      1  0.5078180000000  0.5678840000000  0.5138180000000 1.0
C      1  0.4861670000000  0.4650090000000  0.4625590000000 1.0
C      1  0.4956630000000  0.4815130000000  0.5511010000000 1.0
C      1  0.3784120000000  0.4783390000000  0.4936280000000 1.0
C      1  0.5207300000000  0.5117160000000  0.6152550000000 1.0
C      1  0.4113380000000  0.5353160000000  0.5014150000000 1.0
C      1  0.5105510000000  0.5264370000000  0.5936270000000 1.0
C      1  0.4804010000000  0.4765080000000  0.4198670000000 1.0
C      1  0.5179010000000  0.5217360000000  0.4633850000000 1.0
C      1  0.5316890000000  0.5323810000000  0.4875850000000 1.0
C      1  0.3834960000000  0.4853880000000  0.5192270000000 1.0
C      1  0.4572620000000  0.5268150000000  0.4176660000000 1.0
C      1  0.4676980000000  0.4805440000000  0.5555910000000 1.0
C      1  0.5919260000000  0.5558830000000  0.5009910000000 1.0
C      1  0.5317090000000  0.6183680000000  0.5686920000000 1.0
C      1  0.4486890000000  0.4057780000000  0.5791830000000 1.0
C      1  0.4348060000000  0.4297870000000  0.5775180000000 1.0
C      1  0.6029260000000  0.4679160000000  0.4784550000000 1.0
C      1  0.5935790000000  0.4598820000000  0.4545020000000 1.0
C      1  0.5414360000000  0.5015460000000  0.6311630000000 1.0
C      1  0.4302650000000  0.4306410000000  0.4622130000000 1.0
C      1  0.5508860000000  0.6078140000000  0.4505790000000 1.0
C      1  0.3987370000000  0.4938100000000  0.4531030000000 1.0
C      1  0.4799360000000  0.5930380000000  0.4815480000000 1.0
C      1  0.4121020000000  0.4485440000000  0.4774040000000 1.0
C      1  0.4259540000000  0.4509950000000  0.4154280000000 1.0
C      1  0.5665210000000  0.4980900000000  0.6191460000000 1.0
C      1  0.5833300000000  0.4936080000000  0.5990810000000 1.0
C      1  0.5144140000000  0.5402390000000  0.5084880000000 1.0
C      1  0.5390730000000  0.4147900000000  0.5229790000000 1.0
C      1  0.4739880000000  0.4592640000000  0.4876450000000 1.0
C      1  0.4756640000000  0.5683080000000  0.5531740000000 1.0
C      1  0.5186460000000  0.4094940000000  0.5038380000000 1.0
C      1  0.4257660000000  0.5252960000000  0.5235190000000 1.0
C      1  0.4163270000000  0.4409950000000  0.5053010000000 1.0
C      1  0.5365210000000  0.6170760000000  0.4709370000000 1.0
C      1  0.4680190000000  0.4817180000000  0.4468130000000 1.0
C      1  0.4601590000000  0.5247590000000  0.5703530000000 1.0
C      1  0.4648280000000  0.5192190000000  0.4815700000000 1.0
C      1  0.5229580000000  0.6112460000000  0.4946270000000 1.0
C      1  0.4758180000000  0.4110770000000  0.4811160000000 1.0
C      1  0.6004360000000  0.4779300000000  0.5035150000000 1.0
C      1  0.4400720000000  0.4124790000000  0.5340270000000 1.0
C      1  0.4965900000000  0.4125610000000  0.4594810000000 1.0
C      1  0.4521820000000  0.5358670000000  0.5255100000000 1.0
C      1  0.5665050000000  0.5339880000000  0.5394170000000 1.0
C      1  0.4509820000000  0.4753170000000  0.4897860000000 1.0
C      1  0.4978240000000  0.5178700000000  0.5169640000000 1.0
C      1  0.5269070000000  0.5001480000000  0.4086260000000 1.0
C      1  0.3885590000000  0.5185340000000  0.4631810000000 1.0
C      1  0.5044410000000  0.5895100000000  0.4950870000000 1.0
C      1  0.5799060000000  0.5561670000000  0.4749620000000 1.0
C      1  0.5131740000000  0.4716140000000  0.5696680000000 1.0
C      1  0.4474400000000  0.4149000000000  0.4807810000000 1.0
C      1  0.4595660000000  0.5457170000000  0.5510770000000 1.0
C      1  0.5327920000000  0.4504120000000  0.4457730000000 1.0
C      1  0.4478030000000  0.5003230000000  0.5597660000000 1.0
C      1  0.4344340000000  0.4173550000000  0.5066270000000 1.0
C      1  0.5467320000000  0.4841950000000  0.4736380000000 1.0
C      1  0.4319440000000  0.5241980000000  0.4313840000000 1.0
C      1  0.4581830000000  0.5842850000000  0.4684710000000 1.0
C      1  0.4977220000000  0.4993260000000  0.4121530000000 1.0
C      1  0.4517130000000  0.5584240000000  0.4601770000000 1.0
C      1  0.5570540000000  0.4351080000000  0.5312310000000 1.0
C      1  0.3957190000000  0.4716160000000  0.4716770000000 1.0
C      1  0.5305100000000  0.6287420000000  0.5442340000000 1.0
C      1  0.5582660000000  0.5388640000000  0.4315090000000 1.0
END
