TITL C-3866676-3738-592 112276.514282973 125000 -1107.54182223342 0 0 183 (C1) n - 1
REM
REM in /home/nfs/bkarasulu/CARBON/AIRSS/Generating-Clusters/LCBOP/Only-C1/SD-CG/FIRE-CG
REM
REM
REM
REM
REM
REM ./C.cell (11c1c37f851c82e70ff6c80c92926a4b)
REM AIRSS Version 0.9.1 bugfix July 2018 build 013d7b7c2542+ Fri, 06 Jul 2018 19:26:36 +0100
REM compiler GCC version 9.2.1 20190827 (Red Hat 9.2.1-1)
REM options -cpp -mtune=generic -march=x86-64 -g -O0 -fpre-include=/usr/include/finclude/math-vector-fortran.h
REM seed 448916198 579764114 366760984 -503504270 -723392101 -9323907 -435733913 1487818340 -1969940984 -114504678 -183321011 -1526085586 2065297582 1118809646 835407909 -642644977 -1664918323 1031929339 -1755296936 -1936561160 -1449952766 1868235656 16623977 -161838468 -459528511 -1048358418 940308585 -1420639272 -1585834573 -1375249390 -1163191290 2110386866 1918117596
REM
CELL 1.54180   50.00000   50.00000   50.00000   90.00000   90.00000   90.00000
LATT -1
SFAC C  
C      1  0.5176540000000  0.4370820000000  0.6248930000000 1.0
C      1  0.4740550000000  0.4740670000000  0.4211260000000 1.0
C      1  0.5253720000000  0.5836140000000  0.5716430000000 1.0
C      1  0.4150690000000  0.4147140000000  0.5374770000000 1.0
C      1  0.5289000000000  0.5957610000000  0.4965710000000 1.0
C      1  0.4845960000000  0.4220100000000  0.4780280000000 1.0
C      1  0.4812100000000  0.4390510000000  0.5267650000000 1.0
C      1  0.4212510000000  0.5926110000000  0.5264130000000 1.0
C      1  0.5858420000000  0.5073680000000  0.6033010000000 1.0
C      1  0.5110310000000  0.5312270000000  0.5680830000000 1.0
C      1  0.4924590000000  0.4386340000000  0.5006810000000 1.0
C      1  0.5654020000000  0.4510720000000  0.5039590000000 1.0
C      1  0.4343400000000  0.5597370000000  0.4094600000000 1.0
C      1  0.5604100000000  0.4123480000000  0.5488760000000 1.0
C      1  0.5578400000000  0.4206230000000  0.4299730000000 1.0
C      1  0.4234400000000  0.5240310000000  0.4690860000000 1.0
C      1  0.4780910000000  0.3846220000000  0.5130940000000 1.0
C      1  0.4093160000000  0.5297660000000  0.5916890000000 1.0
C      1  0.4927110000000  0.4970530000000  0.3829370000000 1.0
C      1  0.4495100000000  0.4099270000000  0.5804960000000 1.0
C      1  0.4909480000000  0.6146670000000  0.5488890000000 1.0
C      1  0.4036790000000  0.5187260000000  0.6389630000000 1.0
C      1  0.5177880000000  0.4415990000000  0.5683320000000 1.0
C      1  0.4979640000000  0.5258260000000  0.3815430000000 1.0
C      1  0.6132380000000  0.5537160000000  0.5082880000000 1.0
C      1  0.3806870000000  0.4778040000000  0.4335320000000 1.0
C      1  0.5458740000000  0.4885900000000  0.3923600000000 1.0
C      1  0.5615240000000  0.4964410000000  0.4652260000000 1.0
C      1  0.5329130000000  0.4589910000000  0.6228410000000 1.0
C      1  0.5990710000000  0.5225530000000  0.4487450000000 1.0
C      1  0.5090260000000  0.4317930000000  0.4097940000000 1.0
C      1  0.3923210000000  0.5517680000000  0.5297010000000 1.0
C      1  0.5546460000000  0.5509800000000  0.5373630000000 1.0
C      1  0.4164030000000  0.4411030000000  0.5470060000000 1.0
C      1  0.5249440000000  0.4598200000000  0.4465800000000 1.0
C      1  0.5149770000000  0.5034050000000  0.4753820000000 1.0
C      1  0.5906290000000  0.5195290000000  0.5798090000000 1.0
C      1  0.4439470000000  0.5089560000000  0.3994920000000 1.0
C      1  0.5413790000000  0.4199800000000  0.5718170000000 1.0
C      1  0.4660600000000  0.5009370000000  0.5659340000000 1.0
C      1  0.5296350000000  0.5095350000000  0.5636630000000 1.0
C      1  0.4941840000000  0.4910760000000  0.4323840000000 1.0
C      1  0.4829740000000  0.6064590000000  0.4849290000000 1.0
C      1  0.5559540000000  0.6197960000000  0.5269460000000 1.0
C      1  0.4108600000000  0.5583430000000  0.5937840000000 1.0
C      1  0.5358840000000  0.5808720000000  0.3527940000000 1.0
C      1  0.4404150000000  0.5796020000000  0.4301180000000 1.0
C      1  0.6182640000000  0.4618870000000  0.5487530000000 1.0
C      1  0.4234340000000  0.5893080000000  0.4509550000000 1.0
C      1  0.4880340000000  0.5212370000000  0.5288580000000 1.0
C      1  0.4673980000000  0.5823130000000  0.4368570000000 1.0
C      1  0.4253800000000  0.3950360000000  0.5203950000000 1.0
C      1  0.5863260000000  0.4812380000000  0.4272180000000 1.0
C      1  0.5381580000000  0.5390660000000  0.4465650000000 1.0
C      1  0.5270080000000  0.4884380000000  0.5824070000000 1.0
C      1  0.5312600000000  0.5578570000000  0.3641100000000 1.0
C      1  0.4656400000000  0.4493790000000  0.5519180000000 1.0
C      1  0.5723510000000  0.4824590000000  0.6038270000000 1.0
C      1  0.5019620000000  0.3831510000000  0.5289050000000 1.0
C      1  0.6163120000000  0.4861730000000  0.4741530000000 1.0
C      1  0.5425590000000  0.4838430000000  0.6087470000000 1.0
C      1  0.5548920000000  0.4450200000000  0.4140530000000 1.0
C      1  0.4642920000000  0.5000330000000  0.4704850000000 1.0
C      1  0.4171280000000  0.5906060000000  0.4787210000000 1.0
C      1  0.5785360000000  0.4380510000000  0.5484310000000 1.0
C      1  0.4839740000000  0.5618140000000  0.4451630000000 1.0
C      1  0.4423910000000  0.3878390000000  0.4580600000000 1.0
C      1  0.5409270000000  0.4132440000000  0.5238480000000 1.0
C      1  0.5387280000000  0.6235000000000  0.5473600000000 1.0
C      1  0.5467050000000  0.5167810000000  0.3863230000000 1.0
C      1  0.3767890000000  0.5172780000000  0.4641640000000 1.0
C      1  0.5407260000000  0.5188090000000  0.4700480000000 1.0
C      1  0.4903850000000  0.5482390000000  0.5201830000000 1.0
C      1  0.4013650000000  0.5254240000000  0.4520040000000 1.0
C      1  0.4263870000000  0.4770670000000  0.4908380000000 1.0
C      1  0.4731570000000  0.4753310000000  0.4812530000000 1.0
C      1  0.3708310000000  0.5325090000000  0.4874870000000 1.0
C      1  0.5757300000000  0.4222620000000  0.4535400000000 1.0
C      1  0.3929390000000  0.4654190000000  0.5881540000000 1.0
C      1  0.4048720000000  0.5261990000000  0.4240090000000 1.0
C      1  0.4401790000000  0.5117140000000  0.5567820000000 1.0
C      1  0.5362000000000  0.5077440000000  0.6269310000000 1.0
C      1  0.4075700000000  0.5506320000000  0.4107620000000 1.0
C      1  0.5106720000000  0.5601700000000  0.5644890000000 1.0
C      1  0.4918530000000  0.6173640000000  0.4603020000000 1.0
C      1  0.3951780000000  0.5276680000000  0.5450700000000 1.0
C      1  0.5185010000000  0.3887630000000  0.4858120000000 1.0
C      1  0.5953110000000  0.4080620000000  0.5166210000000 1.0
C      1  0.6210300000000  0.5347430000000  0.4905170000000 1.0
C      1  0.4176110000000  0.5033140000000  0.4113870000000 1.0
C      1  0.4674880000000  0.3796860000000  0.4644830000000 1.0
C      1  0.4136280000000  0.5188820000000  0.5657060000000 1.0
C      1  0.4875770000000  0.5193600000000  0.4677460000000 1.0
C      1  0.4893110000000  0.5429580000000  0.4246600000000 1.0
C      1  0.5174030000000  0.4890840000000  0.5046950000000 1.0
C      1  0.4703230000000  0.4490910000000  0.4350290000000 1.0
C      1  0.3681520000000  0.4926570000000  0.4527760000000 1.0
C      1  0.4713890000000  0.6162050000000  0.5301640000000 1.0
C      1  0.5388930000000  0.4428720000000  0.5163600000000 1.0
C      1  0.5744010000000  0.5813090000000  0.4993720000000 1.0
C      1  0.5024590000000  0.5873310000000  0.4941070000000 1.0
C      1  0.4165100000000  0.4298740000000  0.4672670000000 1.0
C      1  0.5172200000000  0.6086520000000  0.5585820000000 1.0
C      1  0.4693350000000  0.4263660000000  0.5716430000000 1.0
C      1  0.5274500000000  0.4509080000000  0.4197210000000 1.0
C      1  0.4421260000000  0.4725270000000  0.5154460000000 1.0
C      1  0.4841750000000  0.4274600000000  0.4492180000000 1.0
C      1  0.4022230000000  0.5118410000000  0.6125750000000 1.0
C      1  0.4059740000000  0.5745280000000  0.5419210000000 1.0
C      1  0.5285590000000  0.4527530000000  0.5421610000000 1.0
C      1  0.5856170000000  0.4619150000000  0.5896980000000 1.0
C      1  0.4935090000000  0.5605790000000  0.4952530000000 1.0
C      1  0.4902390000000  0.5181250000000  0.4366880000000 1.0
C      1  0.4959120000000  0.4247730000000  0.5819890000000 1.0
C      1  0.4668030000000  0.4893690000000  0.3969650000000 1.0
C      1  0.4156770000000  0.5708560000000  0.6176100000000 1.0
C      1  0.6096210000000  0.4793710000000  0.5015800000000 1.0
C      1  0.5379560000000  0.3935590000000  0.4659980000000 1.0
C      1  0.6009770000000  0.5863330000000  0.5812040000000 1.0
C      1  0.5279290000000  0.4466240000000  0.4704970000000 1.0
C      1  0.5704070000000  0.4995900000000  0.5331960000000 1.0
C      1  0.5431040000000  0.5331440000000  0.5189360000000 1.0
C      1  0.5406470000000  0.5051240000000  0.5290620000000 1.0
C      1  0.5488750000000  0.5374190000000  0.4917120000000 1.0
C      1  0.5324290000000  0.5925540000000  0.4330700000000 1.0
C      1  0.5682910000000  0.4645730000000  0.4791890000000 1.0
C      1  0.5016850000000  0.4215170000000  0.6096910000000 1.0
C      1  0.5057610000000  0.4694170000000  0.5772530000000 1.0
C      1  0.5782380000000  0.5656760000000  0.5431390000000 1.0
C      1  0.5639460000000  0.5600710000000  0.4838650000000 1.0
C      1  0.5254890000000  0.5338700000000  0.3770910000000 1.0
C      1  0.5355130000000  0.5646940000000  0.4383620000000 1.0
C      1  0.5186610000000  0.4536660000000  0.4975690000000 1.0
C      1  0.5322470000000  0.4051850000000  0.4396820000000 1.0
C      1  0.4613010000000  0.6098380000000  0.5036880000000 1.0
C      1  0.4389400000000  0.4564270000000  0.5389840000000 1.0
C      1  0.6414920000000  0.4720830000000  0.5586500000000 1.0
C      1  0.4865490000000  0.3917060000000  0.4840660000000 1.0
C      1  0.4430200000000  0.5259330000000  0.5320520000000 1.0
C      1  0.5846280000000  0.4482180000000  0.4609350000000 1.0
C      1  0.5550180000000  0.6013310000000  0.5057290000000 1.0
C      1  0.3994600000000  0.4508600000000  0.5669110000000 1.0
C      1  0.4862870000000  0.5196130000000  0.5578420000000 1.0
C      1  0.5656300000000  0.4013610000000  0.4710280000000 1.0
C      1  0.5880930000000  0.4952240000000  0.5119260000000 1.0
C      1  0.3935940000000  0.5759600000000  0.4870780000000 1.0
C      1  0.3832400000000  0.5537940000000  0.5022500000000 1.0
C      1  0.4215930000000  0.4023440000000  0.4706340000000 1.0
C      1  0.5115960000000  0.6089480000000  0.4435930000000 1.0
C      1  0.4518000000000  0.5383540000000  0.3979240000000 1.0
C      1  0.4776560000000  0.4739260000000  0.5676750000000 1.0
C      1  0.4129570000000  0.3916460000000  0.4953420000000 1.0
C      1  0.5954370000000  0.4535340000000  0.5648390000000 1.0
C      1  0.5140090000000  0.4841160000000  0.4506350000000 1.0
C      1  0.5782130000000  0.5782200000000  0.5686280000000 1.0
C      1  0.5930670000000  0.5709520000000  0.5190170000000 1.0
C      1  0.4909350000000  0.4958260000000  0.5173770000000 1.0
C      1  0.5828610000000  0.5118660000000  0.5554570000000 1.0
C      1  0.4021830000000  0.4799790000000  0.4167540000000 1.0
C      1  0.5523870000000  0.5817910000000  0.5799460000000 1.0
C      1  0.4327320000000  0.5440900000000  0.4859190000000 1.0
C      1  0.4082320000000  0.5735300000000  0.5700540000000 1.0
C      1  0.4154050000000  0.4545030000000  0.4777870000000 1.0
C      1  0.5049530000000  0.4142100000000  0.4324040000000 1.0
C      1  0.4358890000000  0.4995420000000  0.4741550000000 1.0
C      1  0.5894790000000  0.4379900000000  0.5181990000000 1.0
C      1  0.5813320000000  0.3935950000000  0.5367380000000 1.0
C      1  0.4863760000000  0.5489180000000  0.4710460000000 1.0
C      1  0.4407200000000  0.5420440000000  0.5112060000000 1.0
C      1  0.4932210000000  0.5654620000000  0.5424090000000 1.0
C      1  0.4696370000000  0.4789090000000  0.5095100000000 1.0
C      1  0.5661030000000  0.4714410000000  0.4077800000000 1.0
C      1  0.4338460000000  0.5994830000000  0.5013720000000 1.0
C      1  0.5249920000000  0.3921120000000  0.5144640000000 1.0
C      1  0.6022940000000  0.4667170000000  0.4481490000000 1.0
C      1  0.4517940000000  0.3854530000000  0.5224280000000 1.0
C      1  0.5510840000000  0.6045470000000  0.4168310000000 1.0
C      1  0.5176960000000  0.4814710000000  0.3846270000000 1.0
C      1  0.6166990000000  0.5153410000000  0.4699250000000 1.0
C      1  0.4804420000000  0.5417010000000  0.3979830000000 1.0
C      1  0.6128630000000  0.4575050000000  0.5201450000000 1.0
C      1  0.3943380000000  0.4859720000000  0.6049470000000 1.0
C      1  0.5784330000000  0.5040900000000  0.4427990000000 1.0
END
