TITL C-3866673-4222-655 8359.97796942951 125000 -928.622516415252 0 0 155 (C1) n - 1
REM
REM in /home/nfs/bkarasulu/CARBON/AIRSS/Generating-Clusters/LCBOP/Only-C1/SD-CG/FIRE-CG
REM
REM
REM
REM
REM
REM ./C.cell (11c1c37f851c82e70ff6c80c92926a4b)
REM AIRSS Version 0.9.1 bugfix July 2018 build 013d7b7c2542+ Fri, 06 Jul 2018 19:26:36 +0100
REM compiler GCC version 9.2.1 20190827 (Red Hat 9.2.1-1)
REM options -cpp -mtune=generic -march=x86-64 -g -O0 -fpre-include=/usr/include/finclude/math-vector-fortran.h
REM seed 1287867752 -146655670 -711164749 -870695413 -1687890959 -1304909523 -1181212123 1783289502 -1905851159 56416532 -713011838 407924543 243048991 2128936370 752477210 278157515 -128127403 -1421278628 -736868795 634550907 700726447 2049883124 -916398629 1654824870 -707902511 -1197186713 -836327948 -167943133 -2021817575 -624164391 342433500 -158650486 -32827129
REM
CELL 1.54180   50.00000   50.00000   50.00000   90.00000   90.00000   90.00000
LATT -1
SFAC C  
C      1  0.4471470000000  0.4444180000000  0.4414130000000 1.0
C      1  0.4909170000000  0.5144810000000  0.6082170000000 1.0
C      1  0.4511820000000  0.3937510000000  0.5297550000000 1.0
C      1  0.5404370000000  0.4910940000000  0.4400860000000 1.0
C      1  0.5606230000000  0.5622580000000  0.4886410000000 1.0
C      1  0.4677940000000  0.5047360000000  0.5938140000000 1.0
C      1  0.4830310000000  0.5127280000000  0.3914790000000 1.0
C      1  0.5470890000000  0.5163770000000  0.4940000000000 1.0
C      1  0.4918240000000  0.4319260000000  0.4165370000000 1.0
C      1  0.6211230000000  0.4967450000000  0.4849910000000 1.0
C      1  0.5168930000000  0.3977770000000  0.5117540000000 1.0
C      1  0.5283270000000  0.4171990000000  0.4599380000000 1.0
C      1  0.4278230000000  0.4016640000000  0.5177720000000 1.0
C      1  0.5275380000000  0.5057990000000  0.3967390000000 1.0
C      1  0.6151990000000  0.4365620000000  0.5357080000000 1.0
C      1  0.5203330000000  0.6108030000000  0.5152140000000 1.0
C      1  0.4571410000000  0.5503090000000  0.4080520000000 1.0
C      1  0.5726980000000  0.5581660000000  0.5451080000000 1.0
C      1  0.5803960000000  0.4412620000000  0.4631040000000 1.0
C      1  0.5093120000000  0.5328910000000  0.4485130000000 1.0
C      1  0.5303330000000  0.3957590000000  0.5463210000000 1.0
C      1  0.4866730000000  0.5145650000000  0.6622580000000 1.0
C      1  0.4654630000000  0.6148360000000  0.4873170000000 1.0
C      1  0.5255210000000  0.5519440000000  0.4024480000000 1.0
C      1  0.5469590000000  0.5121600000000  0.5294480000000 1.0
C      1  0.5166920000000  0.5239320000000  0.5975180000000 1.0
C      1  0.5094890000000  0.5279290000000  0.3907310000000 1.0
C      1  0.5067860000000  0.5920090000000  0.4646630000000 1.0
C      1  0.5736040000000  0.4535460000000  0.5529000000000 1.0
C      1  0.5831300000000  0.4605550000000  0.4837690000000 1.0
C      1  0.4387460000000  0.4877740000000  0.4957860000000 1.0
C      1  0.5362240000000  0.5911290000000  0.5464520000000 1.0
C      1  0.3800210000000  0.4224570000000  0.4670490000000 1.0
C      1  0.4838530000000  0.4139100000000  0.4386890000000 1.0
C      1  0.4470270000000  0.5730050000000  0.5419750000000 1.0
C      1  0.4808180000000  0.4476800000000  0.5492590000000 1.0
C      1  0.6013880000000  0.5424950000000  0.4342070000000 1.0
C      1  0.4682900000000  0.6159320000000  0.4598100000000 1.0
C      1  0.4105550000000  0.5276530000000  0.4662510000000 1.0
C      1  0.4617000000000  0.5481540000000  0.5351030000000 1.0
C      1  0.4362630000000  0.4673330000000  0.5752070000000 1.0
C      1  0.6459270000000  0.5226100000000  0.5529360000000 1.0
C      1  0.4914340000000  0.5872410000000  0.4199330000000 1.0
C      1  0.6122210000000  0.4826330000000  0.5487470000000 1.0
C      1  0.5469160000000  0.6058600000000  0.4448230000000 1.0
C      1  0.4200060000000  0.4697100000000  0.4131790000000 1.0
C      1  0.4330830000000  0.4811750000000  0.5237460000000 1.0
C      1  0.4586480000000  0.4771880000000  0.5909660000000 1.0
C      1  0.5190010000000  0.5524910000000  0.5901980000000 1.0
C      1  0.4569900000000  0.4867900000000  0.5392280000000 1.0
C      1  0.3937520000000  0.4435200000000  0.4779080000000 1.0
C      1  0.4494920000000  0.5510860000000  0.4893200000000 1.0
C      1  0.4746170000000  0.5765850000000  0.5829040000000 1.0
C      1  0.5772130000000  0.4728830000000  0.4263660000000 1.0
C      1  0.5182470000000  0.4586170000000  0.5844750000000 1.0
C      1  0.5502010000000  0.4042130000000  0.4735260000000 1.0
C      1  0.4684700000000  0.5108560000000  0.4357830000000 1.0
C      1  0.5538390000000  0.5359550000000  0.4170690000000 1.0
C      1  0.6003960000000  0.4575460000000  0.5452160000000 1.0
C      1  0.6280220000000  0.5037100000000  0.5515920000000 1.0
C      1  0.5170370000000  0.5470980000000  0.4710620000000 1.0
C      1  0.5509290000000  0.4958260000000  0.4731000000000 1.0
C      1  0.4357880000000  0.4464390000000  0.5545060000000 1.0
C      1  0.4070650000000  0.4815100000000  0.4363510000000 1.0
C      1  0.5362190000000  0.4642970000000  0.5038550000000 1.0
C      1  0.4035630000000  0.4656710000000  0.4613660000000 1.0
C      1  0.5021300000000  0.4048250000000  0.4601400000000 1.0
C      1  0.4649580000000  0.5236060000000  0.4107180000000 1.0
C      1  0.5243660000000  0.4854920000000  0.5738720000000 1.0
C      1  0.5027630000000  0.4992700000000  0.4905710000000 1.0
C      1  0.4563040000000  0.4178800000000  0.4444610000000 1.0
C      1  0.4886070000000  0.5150600000000  0.6362760000000 1.0
C      1  0.4237890000000  0.5777580000000  0.5231010000000 1.0
C      1  0.5579230000000  0.4727710000000  0.4884160000000 1.0
C      1  0.4931320000000  0.4221260000000  0.5447050000000 1.0
C      1  0.5064450000000  0.4851540000000  0.5338150000000 1.0
C      1  0.5632820000000  0.5318000000000  0.5414070000000 1.0
C      1  0.5432060000000  0.3926370000000  0.4982420000000 1.0
C      1  0.4152900000000  0.4828610000000  0.4808030000000 1.0
C      1  0.4992100000000  0.5676220000000  0.4772010000000 1.0
C      1  0.5157470000000  0.4805940000000  0.3968450000000 1.0
C      1  0.5184610000000  0.5782700000000  0.4118130000000 1.0
C      1  0.5759900000000  0.4140870000000  0.4682580000000 1.0
C      1  0.5398110000000  0.5949150000000  0.4210410000000 1.0
C      1  0.5538080000000  0.4365310000000  0.5389750000000 1.0
C      1  0.5284180000000  0.4960520000000  0.5473490000000 1.0
C      1  0.5398820000000  0.6046850000000  0.4962170000000 1.0
C      1  0.5635830000000  0.4530010000000  0.4429400000000 1.0
C      1  0.3948270000000  0.4926760000000  0.4993120000000 1.0
C      1  0.5817780000000  0.5280010000000  0.4203850000000 1.0
C      1  0.6067600000000  0.4745820000000  0.4885850000000 1.0
C      1  0.5322180000000  0.6038390000000  0.4688370000000 1.0
C      1  0.5271270000000  0.4647890000000  0.4168810000000 1.0
C      1  0.5374380000000  0.5020510000000  0.5934430000000 1.0
C      1  0.4979750000000  0.3914390000000  0.4864780000000 1.0
C      1  0.4719650000000  0.4576070000000  0.4036710000000 1.0
C      1  0.4830610000000  0.5163860000000  0.5018940000000 1.0
C      1  0.4125680000000  0.4309200000000  0.5504290000000 1.0
C      1  0.3912910000000  0.5200040000000  0.4892080000000 1.0
C      1  0.5854820000000  0.4984340000000  0.4199780000000 1.0
C      1  0.4964410000000  0.5979790000000  0.5255050000000 1.0
C      1  0.5087180000000  0.5853430000000  0.5508880000000 1.0
C      1  0.4209900000000  0.5071970000000  0.4458310000000 1.0
C      1  0.6249780000000  0.5204810000000  0.4734910000000 1.0
C      1  0.4571110000000  0.4434460000000  0.5325660000000 1.0
C      1  0.4735360000000  0.5680020000000  0.4909940000000 1.0
C      1  0.5010510000000  0.5703650000000  0.5747210000000 1.0
C      1  0.6177810000000  0.5382720000000  0.4549380000000 1.0
C      1  0.5642810000000  0.4591940000000  0.5804840000000 1.0
C      1  0.4170650000000  0.4886820000000  0.5720520000000 1.0
C      1  0.5101410000000  0.5418700000000  0.5336200000000 1.0
C      1  0.5301630000000  0.4455210000000  0.4557980000000 1.0
C      1  0.3934800000000  0.5339630000000  0.5347820000000 1.0
C      1  0.5415110000000  0.5110270000000  0.4211630000000 1.0
C      1  0.5403190000000  0.4398800000000  0.5817030000000 1.0
C      1  0.3993240000000  0.4450120000000  0.5073830000000 1.0
C      1  0.5416600000000  0.5421210000000  0.4842080000000 1.0
C      1  0.5024610000000  0.4898860000000  0.4639760000000 1.0
C      1  0.5343490000000  0.4412750000000  0.5185770000000 1.0
C      1  0.5953700000000  0.5630600000000  0.5595780000000 1.0
C      1  0.4767260000000  0.4404770000000  0.5019930000000 1.0
C      1  0.4530570000000  0.5826910000000  0.5677040000000 1.0
C      1  0.4855290000000  0.5353800000000  0.5242420000000 1.0
C      1  0.5051910000000  0.4609910000000  0.4634050000000 1.0
C      1  0.5190620000000  0.4382750000000  0.4146030000000 1.0
C      1  0.4235670000000  0.5522690000000  0.4779920000000 1.0
C      1  0.4488670000000  0.5227420000000  0.5820300000000 1.0
C      1  0.4201570000000  0.5269200000000  0.5409670000000 1.0
C      1  0.5141170000000  0.4812470000000  0.5077750000000 1.0
C      1  0.4788950000000  0.4532010000000  0.4763640000000 1.0
C      1  0.4077940000000  0.5642030000000  0.5010140000000 1.0
C      1  0.3893490000000  0.5422220000000  0.5081510000000 1.0
C      1  0.4992610000000  0.4522620000000  0.6038870000000 1.0
C      1  0.4867030000000  0.4820190000000  0.3936150000000 1.0
C      1  0.4026060000000  0.4732500000000  0.5212020000000 1.0
C      1  0.5621340000000  0.4854240000000  0.5960910000000 1.0
C      1  0.4944440000000  0.5096230000000  0.4460360000000 1.0
C      1  0.4747980000000  0.5942730000000  0.5055960000000 1.0
C      1  0.5411300000000  0.5652220000000  0.6012380000000 1.0
C      1  0.5414270000000  0.4193320000000  0.5595680000000 1.0
C      1  0.4089470000000  0.4225960000000  0.5234190000000 1.0
C      1  0.4408810000000  0.5349960000000  0.5216620000000 1.0
C      1  0.5584610000000  0.5846590000000  0.5053320000000 1.0
C      1  0.4830450000000  0.4759030000000  0.5455090000000 1.0
C      1  0.4872840000000  0.4420130000000  0.6246750000000 1.0
C      1  0.5066310000000  0.4262230000000  0.5171190000000 1.0
C      1  0.4486870000000  0.4965010000000  0.4488680000000 1.0
C      1  0.4740570000000  0.3999700000000  0.5435100000000 1.0
C      1  0.5580350000000  0.5797580000000  0.5336190000000 1.0
C      1  0.4261900000000  0.5152770000000  0.5662580000000 1.0
C      1  0.4582380000000  0.5070480000000  0.4927930000000 1.0
C      1  0.4883030000000  0.6013850000000  0.4450890000000 1.0
C      1  0.4567600000000  0.4639300000000  0.4598120000000 1.0
C      1  0.4688300000000  0.5743350000000  0.4093300000000 1.0
C      1  0.4450690000000  0.4558660000000  0.4148580000000 1.0
END
