TITL C-3866669-3764-624 -8.12076137521557e-06 125000 -1224.15011050678 0 0 195 (C1) n - 1
REM
REM in /home/nfs/bkarasulu/CARBON/AIRSS/Generating-Clusters/LCBOP/Only-C1/SD-CG/FIRE-CG
REM
REM
REM
REM
REM
REM ./C.cell (11c1c37f851c82e70ff6c80c92926a4b)
REM AIRSS Version 0.9.1 bugfix July 2018 build 013d7b7c2542+ Fri, 06 Jul 2018 19:26:36 +0100
REM compiler GCC version 9.2.1 20190827 (Red Hat 9.2.1-1)
REM options -cpp -mtune=generic -march=x86-64 -g -O0 -fpre-include=/usr/include/finclude/math-vector-fortran.h
REM seed -1369258111 -1080705624 -724125276 -1855559767 66164077 1646133057 -1564774415 -1176887556 -328536511 1800447987 1313572379 772793317 727011955 915041355 1227941461 1169396439 -622383429 -1560834950 1194869907 -401131627 -415628011 808444262 -196390648 21172439 -1700739976 1689827797 -1014051983 -1474753608 -568471874 -254711501 1023345844 1693880447 -841338898
REM
CELL 1.54180   50.00000   50.00000   50.00000   90.00000   90.00000   90.00000
LATT -1
SFAC C  
C      1  0.5762900000000  0.4497090000000  0.5890970000000 1.0
C      1  0.4353870000000  0.5981360000000  0.4562150000000 1.0
C      1  0.6195160000000  0.4759030000000  0.5099940000000 1.0
C      1  0.4853510000000  0.5295530000000  0.5004590000000 1.0
C      1  0.5633770000000  0.4793230000000  0.3985140000000 1.0
C      1  0.4989940000000  0.5652060000000  0.5358180000000 1.0
C      1  0.5108040000000  0.6118320000000  0.5817540000000 1.0
C      1  0.4597870000000  0.5181600000000  0.4966130000000 1.0
C      1  0.5154240000000  0.3917220000000  0.5637260000000 1.0
C      1  0.3623220000000  0.5057570000000  0.4755070000000 1.0
C      1  0.3454600000000  0.5291610000000  0.4352330000000 1.0
C      1  0.4786800000000  0.5127330000000  0.3817120000000 1.0
C      1  0.4151540000000  0.4299530000000  0.5705040000000 1.0
C      1  0.4837880000000  0.3529350000000  0.4962430000000 1.0
C      1  0.5527810000000  0.5754390000000  0.4708190000000 1.0
C      1  0.4258150000000  0.4015930000000  0.4502850000000 1.0
C      1  0.4194770000000  0.4543980000000  0.5815490000000 1.0
C      1  0.5877790000000  0.5208260000000  0.5699110000000 1.0
C      1  0.5091840000000  0.5218490000000  0.5539760000000 1.0
C      1  0.4543680000000  0.4898100000000  0.5903250000000 1.0
C      1  0.4369750000000  0.4627040000000  0.4496620000000 1.0
C      1  0.4031550000000  0.4429640000000  0.4904000000000 1.0
C      1  0.4133690000000  0.5012170000000  0.5647720000000 1.0
C      1  0.5414960000000  0.5754820000000  0.5796110000000 1.0
C      1  0.4859130000000  0.5625930000000  0.4203020000000 1.0
C      1  0.3634290000000  0.4693560000000  0.5184350000000 1.0
C      1  0.4325090000000  0.4573750000000  0.5303410000000 1.0
C      1  0.5889660000000  0.5363670000000  0.4982360000000 1.0
C      1  0.5559230000000  0.4396620000000  0.5720770000000 1.0
C      1  0.4819250000000  0.5757710000000  0.4911500000000 1.0
C      1  0.5720220000000  0.6140220000000  0.5342950000000 1.0
C      1  0.4901950000000  0.4061090000000  0.4648490000000 1.0
C      1  0.5702450000000  0.5560470000000  0.4317620000000 1.0
C      1  0.4327620000000  0.5276010000000  0.4891640000000 1.0
C      1  0.5672570000000  0.5533730000000  0.4601930000000 1.0
C      1  0.4711270000000  0.4438100000000  0.4969540000000 1.0
C      1  0.5176690000000  0.5599420000000  0.5823150000000 1.0
C      1  0.5117730000000  0.4522110000000  0.5519890000000 1.0
C      1  0.4576500000000  0.5613340000000  0.5719130000000 1.0
C      1  0.5062590000000  0.5493870000000  0.5583890000000 1.0
C      1  0.4623570000000  0.4781670000000  0.4499410000000 1.0
C      1  0.5282960000000  0.5691280000000  0.4824400000000 1.0
C      1  0.5360420000000  0.4859040000000  0.3988580000000 1.0
C      1  0.4141500000000  0.5055870000000  0.4895390000000 1.0
C      1  0.4214120000000  0.5507270000000  0.4784630000000 1.0
C      1  0.3866930000000  0.5067020000000  0.4861210000000 1.0
C      1  0.5088400000000  0.5918030000000  0.5337990000000 1.0
C      1  0.3949970000000  0.4886500000000  0.5472690000000 1.0
C      1  0.4936460000000  0.3748810000000  0.5109350000000 1.0
C      1  0.4631550000000  0.5966170000000  0.4963450000000 1.0
C      1  0.5370590000000  0.6159790000000  0.4246290000000 1.0
C      1  0.4686630000000  0.6110320000000  0.5203490000000 1.0
C      1  0.3883900000000  0.4571330000000  0.5105380000000 1.0
C      1  0.4219230000000  0.4597650000000  0.4743910000000 1.0
C      1  0.5728990000000  0.4532690000000  0.4042440000000 1.0
C      1  0.3450470000000  0.5126210000000  0.4563450000000 1.0
C      1  0.5187630000000  0.4350250000000  0.5296610000000 1.0
C      1  0.4217720000000  0.5731650000000  0.4956860000000 1.0
C      1  0.4968200000000  0.6154370000000  0.5237520000000 1.0
C      1  0.6276350000000  0.5033040000000  0.4983950000000 1.0
C      1  0.6326150000000  0.5312670000000  0.5061180000000 1.0
C      1  0.5566540000000  0.6158330000000  0.5587180000000 1.0
C      1  0.4640400000000  0.5892570000000  0.5679160000000 1.0
C      1  0.5325230000000  0.3901310000000  0.5398720000000 1.0
C      1  0.6065140000000  0.5848890000000  0.4527710000000 1.0
C      1  0.4578020000000  0.4895120000000  0.4963140000000 1.0
C      1  0.5016600000000  0.5807800000000  0.4050560000000 1.0
C      1  0.5504690000000  0.4878930000000  0.4991290000000 1.0
C      1  0.5223890000000  0.4176610000000  0.4100740000000 1.0
C      1  0.4067940000000  0.4675070000000  0.5311210000000 1.0
C      1  0.5013300000000  0.5701100000000  0.4705470000000 1.0
C      1  0.5838890000000  0.5727430000000  0.5539720000000 1.0
C      1  0.4679940000000  0.4851280000000  0.6152930000000 1.0
C      1  0.5312980000000  0.5277300000000  0.5131110000000 1.0
C      1  0.5833370000000  0.5188990000000  0.5191260000000 1.0
C      1  0.5387520000000  0.6409680000000  0.5079380000000 1.0
C      1  0.4484580000000  0.5882850000000  0.3620300000000 1.0
C      1  0.5056540000000  0.5564150000000  0.6073510000000 1.0
C      1  0.5744280000000  0.4924560000000  0.5133340000000 1.0
C      1  0.5518000000000  0.5217090000000  0.6027200000000 1.0
C      1  0.3888900000000  0.5527420000000  0.4354190000000 1.0
C      1  0.5657020000000  0.4244140000000  0.4420930000000 1.0
C      1  0.4213200000000  0.4070090000000  0.5539530000000 1.0
C      1  0.4144140000000  0.5667840000000  0.5224100000000 1.0
C      1  0.4512020000000  0.4293150000000  0.4176430000000 1.0
C      1  0.4929360000000  0.4704710000000  0.6183860000000 1.0
C      1  0.5162140000000  0.4870120000000  0.6205620000000 1.0
C      1  0.4661240000000  0.4294300000000  0.5513600000000 1.0
C      1  0.5317870000000  0.4448750000000  0.5062530000000 1.0
C      1  0.4816690000000  0.4857980000000  0.3777810000000 1.0
C      1  0.4861610000000  0.4637210000000  0.4462350000000 1.0
C      1  0.5337160000000  0.3863760000000  0.4883360000000 1.0
C      1  0.6184500000000  0.4699530000000  0.4629080000000 1.0
C      1  0.4962150000000  0.4765890000000  0.5448470000000 1.0
C      1  0.4654940000000  0.5062040000000  0.4493740000000 1.0
C      1  0.5123570000000  0.4601280000000  0.4471040000000 1.0
C      1  0.5501000000000  0.4968370000000  0.5570100000000 1.0
C      1  0.5818990000000  0.4457090000000  0.4307010000000 1.0
C      1  0.4734410000000  0.5300980000000  0.6380000000000 1.0
C      1  0.5281080000000  0.4735350000000  0.5097150000000 1.0
C      1  0.5130200000000  0.6355010000000  0.5130900000000 1.0
C      1  0.4986620000000  0.4261350000000  0.4006450000000 1.0
C      1  0.5725670000000  0.3971270000000  0.5123040000000 1.0
C      1  0.5707960000000  0.5370560000000  0.5862340000000 1.0
C      1  0.5347620000000  0.4979620000000  0.6024200000000 1.0
C      1  0.4305090000000  0.4825270000000  0.4896320000000 1.0
C      1  0.5356500000000  0.4632870000000  0.4619670000000 1.0
C      1  0.5884530000000  0.5899160000000  0.5310170000000 1.0
C      1  0.5122440000000  0.5203620000000  0.4907050000000 1.0
C      1  0.5373150000000  0.6034390000000  0.5752730000000 1.0
C      1  0.5356930000000  0.4831390000000  0.5779330000000 1.0
C      1  0.5970200000000  0.5921790000000  0.4796410000000 1.0
C      1  0.5008690000000  0.4786720000000  0.5162620000000 1.0
C      1  0.6251200000000  0.4574920000000  0.4877990000000 1.0
C      1  0.5318240000000  0.4556830000000  0.5716960000000 1.0
C      1  0.4077550000000  0.5511350000000  0.4541050000000 1.0
C      1  0.4667590000000  0.4647760000000  0.3896560000000 1.0
C      1  0.5632400000000  0.6319940000000  0.5145240000000 1.0
C      1  0.5774210000000  0.4948380000000  0.5677310000000 1.0
C      1  0.4552780000000  0.6031570000000  0.5443940000000 1.0
C      1  0.4481410000000  0.4435060000000  0.5138200000000 1.0
C      1  0.5586930000000  0.4037670000000  0.5366390000000 1.0
C      1  0.5450400000000  0.4148660000000  0.4243910000000 1.0
C      1  0.5156690000000  0.3938830000000  0.4677180000000 1.0
C      1  0.4378200000000  0.5939770000000  0.4842780000000 1.0
C      1  0.4411370000000  0.3888430000000  0.5655650000000 1.0
C      1  0.6121890000000  0.5525850000000  0.5043580000000 1.0
C      1  0.5352180000000  0.5555190000000  0.5072430000000 1.0
C      1  0.5979240000000  0.5131430000000  0.4569230000000 1.0
C      1  0.5601540000000  0.4214630000000  0.4702430000000 1.0
C      1  0.5427590000000  0.4417180000000  0.4800290000000 1.0
C      1  0.4952740000000  0.5852550000000  0.3779700000000 1.0
C      1  0.4897100000000  0.5480900000000  0.6269300000000 1.0
C      1  0.4794220000000  0.4714550000000  0.4992450000000 1.0
C      1  0.4780970000000  0.5296330000000  0.4523330000000 1.0
C      1  0.5928690000000  0.4715100000000  0.5206680000000 1.0
C      1  0.4800790000000  0.4179250000000  0.4888710000000 1.0
C      1  0.4692550000000  0.4095600000000  0.5341830000000 1.0
C      1  0.5872470000000  0.4737770000000  0.5835690000000 1.0
C      1  0.4853460000000  0.5559080000000  0.5121150000000 1.0
C      1  0.4130250000000  0.4069630000000  0.5256050000000 1.0
C      1  0.5433850000000  0.4893740000000  0.4711850000000 1.0
C      1  0.4609210000000  0.5518840000000  0.4088380000000 1.0
C      1  0.5803730000000  0.4989490000000  0.4100880000000 1.0
C      1  0.6199110000000  0.4993400000000  0.4701270000000 1.0
C      1  0.5950020000000  0.5271160000000  0.5436900000000 1.0
C      1  0.5301390000000  0.5208910000000  0.4355950000000 1.0
C      1  0.5666080000000  0.5631090000000  0.5750450000000 1.0
C      1  0.4925190000000  0.3977070000000  0.5811760000000 1.0
C      1  0.4401210000000  0.5720480000000  0.4083220000000 1.0
C      1  0.4495560000000  0.4074100000000  0.4358860000000 1.0
C      1  0.4280600000000  0.4818250000000  0.5817550000000 1.0
C      1  0.5833400000000  0.4474040000000  0.5327060000000 1.0
C      1  0.5688780000000  0.5974490000000  0.4774970000000 1.0
C      1  0.4239240000000  0.5278300000000  0.5588210000000 1.0
C      1  0.5596860000000  0.3982430000000  0.4871440000000 1.0
C      1  0.5977120000000  0.4665350000000  0.4431290000000 1.0
C      1  0.5938520000000  0.5731320000000  0.4306790000000 1.0
C      1  0.4390950000000  0.5035020000000  0.4043500000000 1.0
C      1  0.4898050000000  0.5015100000000  0.5580930000000 1.0
C      1  0.4665280000000  0.5092000000000  0.5726150000000 1.0
C      1  0.4709780000000  0.3653050000000  0.4495030000000 1.0
C      1  0.4350890000000  0.4536590000000  0.4226860000000 1.0
C      1  0.5269760000000  0.5127320000000  0.4644650000000 1.0
C      1  0.4958790000000  0.4421710000000  0.6146560000000 1.0
C      1  0.4752940000000  0.5894120000000  0.3606180000000 1.0
C      1  0.4786210000000  0.3989450000000  0.5106290000000 1.0
C      1  0.5662980000000  0.4291610000000  0.5475180000000 1.0
C      1  0.5211910000000  0.5967630000000  0.4169860000000 1.0
C      1  0.5473770000000  0.5412070000000  0.4233240000000 1.0
C      1  0.5830130000000  0.5329750000000  0.4712230000000 1.0
C      1  0.3672760000000  0.4878000000000  0.5390230000000 1.0
C      1  0.4152690000000  0.3995440000000  0.4749180000000 1.0
C      1  0.5905280000000  0.4948270000000  0.4359010000000 1.0
C      1  0.4664860000000  0.3848790000000  0.5757390000000 1.0
C      1  0.4704720000000  0.4374620000000  0.5762030000000 1.0
C      1  0.4326420000000  0.5810650000000  0.3826290000000 1.0
C      1  0.4721090000000  0.3935750000000  0.4464720000000 1.0
C      1  0.4356600000000  0.5883490000000  0.4311570000000 1.0
C      1  0.4583240000000  0.5247510000000  0.3982110000000 1.0
C      1  0.4419870000000  0.4746740000000  0.4031020000000 1.0
C      1  0.6039590000000  0.5806810000000  0.5062470000000 1.0
C      1  0.5223780000000  0.5015100000000  0.4161320000000 1.0
C      1  0.5335500000000  0.5148610000000  0.5399720000000 1.0
C      1  0.4638190000000  0.5053070000000  0.6347630000000 1.0
C      1  0.5216750000000  0.3798160000000  0.5141980000000 1.0
C      1  0.4751230000000  0.3494680000000  0.4709610000000 1.0
C      1  0.4904470000000  0.5549840000000  0.4475880000000 1.0
C      1  0.4129690000000  0.5476690000000  0.5415410000000 1.0
C      1  0.4886370000000  0.4244590000000  0.5938640000000 1.0
C      1  0.4851580000000  0.6028630000000  0.5817840000000 1.0
C      1  0.4508630000000  0.5334990000000  0.5682610000000 1.0
C      1  0.4730450000000  0.4379470000000  0.3996800000000 1.0
C      1  0.4093210000000  0.4152670000000  0.4975820000000 1.0
C      1  0.3646350000000  0.5458380000000  0.4266310000000 1.0
END
