TITL C-3866671-3735-52 -1138.16630656175 125000 -914.321478633439 0 0 149 (C1) n - 1
REM
REM in /home/nfs/bkarasulu/CARBON/AIRSS/Generating-Clusters/LCBOP/Only-C1/SD-CG/HFTN-CG/FIRE-CG
REM
REM
REM
REM
REM
REM ./C.cell (11c1c37f851c82e70ff6c80c92926a4b)
REM AIRSS Version 0.9.1 bugfix July 2018 build 013d7b7c2542+ Fri, 06 Jul 2018 19:26:36 +0100
REM compiler GCC version 9.2.1 20190827 (Red Hat 9.2.1-1)
REM options -cpp -mtune=generic -march=x86-64 -g -O0 -fpre-include=/usr/include/finclude/math-vector-fortran.h
REM seed 170036432 -804299553 -636946 1406315346 -1748646862 -831025981 1916517945 -1549068932 -510744754 143558099 -520835355 1640534414 -41199127 -934318361 979450355 -1988631423 1821043834 -339341098 -342144151 1395452624 -1818465813 825579906 -2095081803 -2921855 12361034 637933910 -1133300208 1545800691 -944879064 70060343 -565753362 659102573 955626389
REM
CELL 1.54180   50.00000   50.00000   50.00000   90.00000   90.00000   90.00000
LATT -1
SFAC C  
C      1  0.5278190000000  0.4983860000000  0.4437000000000 1.0
C      1  0.5554610000000  0.5750010000000  0.4070800000000 1.0
C      1  0.4397910000000  0.4122080000000  0.5419880000000 1.0
C      1  0.3978440000000  0.5193200000000  0.5260390000000 1.0
C      1  0.4757430000000  0.5820420000000  0.4580850000000 1.0
C      1  0.5081890000000  0.4058510000000  0.5387810000000 1.0
C      1  0.5567250000000  0.5200810000000  0.5842800000000 1.0
C      1  0.4282350000000  0.5711470000000  0.5924570000000 1.0
C      1  0.5909960000000  0.5044360000000  0.5581260000000 1.0
C      1  0.5801870000000  0.5639690000000  0.5279770000000 1.0
C      1  0.5589900000000  0.5488590000000  0.4031500000000 1.0
C      1  0.4476570000000  0.5162480000000  0.5729000000000 1.0
C      1  0.4464890000000  0.5040840000000  0.3886010000000 1.0
C      1  0.4635910000000  0.4964600000000  0.4632010000000 1.0
C      1  0.4961560000000  0.5271430000000  0.4973400000000 1.0
C      1  0.5774410000000  0.4812410000000  0.5696760000000 1.0
C      1  0.4834390000000  0.4405780000000  0.5651360000000 1.0
C      1  0.5760440000000  0.3860170000000  0.5223040000000 1.0
C      1  0.4954080000000  0.5942300000000  0.4750920000000 1.0
C      1  0.5297080000000  0.4071920000000  0.5187240000000 1.0
C      1  0.4687960000000  0.5131090000000  0.5913700000000 1.0
C      1  0.6129700000000  0.4987060000000  0.5419340000000 1.0
C      1  0.5361200000000  0.5894110000000  0.6013110000000 1.0
C      1  0.4129520000000  0.5511320000000  0.5797450000000 1.0
C      1  0.4609470000000  0.4553010000000  0.5549210000000 1.0
C      1  0.4858870000000  0.4560220000000  0.4309000000000 1.0
C      1  0.4686180000000  0.6054970000000  0.5912100000000 1.0
C      1  0.4678280000000  0.5565430000000  0.4674000000000 1.0
C      1  0.5340660000000  0.5027920000000  0.4133940000000 1.0
C      1  0.4608780000000  0.5729990000000  0.4124850000000 1.0
C      1  0.4894890000000  0.5335390000000  0.4673490000000 1.0
C      1  0.4826870000000  0.4898510000000  0.5996680000000 1.0
C      1  0.5495570000000  0.3873900000000  0.5188450000000 1.0
C      1  0.5200030000000  0.6099990000000  0.5903980000000 1.0
C      1  0.5107230000000  0.5295470000000  0.5574670000000 1.0
C      1  0.5453570000000  0.5298050000000  0.5190620000000 1.0
C      1  0.5267240000000  0.5381270000000  0.4988660000000 1.0
C      1  0.4407040000000  0.5505460000000  0.4758110000000 1.0
C      1  0.4889340000000  0.3666610000000  0.4583160000000 1.0
C      1  0.4847200000000  0.5362850000000  0.5948520000000 1.0
C      1  0.4897790000000  0.5901420000000  0.5025500000000 1.0
C      1  0.5413950000000  0.4582600000000  0.3596890000000 1.0
C      1  0.5927870000000  0.5279750000000  0.4655730000000 1.0
C      1  0.4922350000000  0.4867610000000  0.5320670000000 1.0
C      1  0.4646400000000  0.4818920000000  0.5437520000000 1.0
C      1  0.5380960000000  0.4458940000000  0.4068040000000 1.0
C      1  0.4803860000000  0.5306620000000  0.4222820000000 1.0
C      1  0.4900570000000  0.6291660000000  0.4057260000000 1.0
C      1  0.4557670000000  0.4596120000000  0.4902720000000 1.0
C      1  0.5392930000000  0.5751730000000  0.4692590000000 1.0
C      1  0.6061070000000  0.4484790000000  0.4717350000000 1.0
C      1  0.5057290000000  0.4367330000000  0.4856110000000 1.0
C      1  0.4779350000000  0.5697130000000  0.5159150000000 1.0
C      1  0.6169160000000  0.4747150000000  0.5276560000000 1.0
C      1  0.5336560000000  0.4556700000000  0.5237980000000 1.0
C      1  0.4597970000000  0.5450310000000  0.4090680000000 1.0
C      1  0.5374690000000  0.5372070000000  0.5957830000000 1.0
C      1  0.3679530000000  0.4706150000000  0.5934190000000 1.0
C      1  0.4228090000000  0.4920270000000  0.4459840000000 1.0
C      1  0.6271180000000  0.4636050000000  0.4794440000000 1.0
C      1  0.4044540000000  0.5022850000000  0.5701750000000 1.0
C      1  0.4546210000000  0.5800740000000  0.5941010000000 1.0
C      1  0.4359080000000  0.4428350000000  0.4789760000000 1.0
C      1  0.3765980000000  0.3991110000000  0.5093530000000 1.0
C      1  0.5521660000000  0.4938940000000  0.4624390000000 1.0
C      1  0.4940140000000  0.5750500000000  0.5678860000000 1.0
C      1  0.3902730000000  0.5440310000000  0.5345700000000 1.0
C      1  0.5280220000000  0.6360750000000  0.5904650000000 1.0
C      1  0.4322980000000  0.4453920000000  0.4510570000000 1.0
C      1  0.4391820000000  0.4383470000000  0.5487570000000 1.0
C      1  0.5204110000000  0.4871710000000  0.3933830000000 1.0
C      1  0.4768000000000  0.3627270000000  0.4344920000000 1.0
C      1  0.5518080000000  0.4485030000000  0.5456640000000 1.0
C      1  0.5058480000000  0.4227750000000  0.5624300000000 1.0
C      1  0.5982270000000  0.4535010000000  0.5337830000000 1.0
C      1  0.6003120000000  0.5471270000000  0.4824300000000 1.0
C      1  0.5083730000000  0.4822460000000  0.6030060000000 1.0
C      1  0.5559650000000  0.4905620000000  0.5874370000000 1.0
C      1  0.4136860000000  0.5018850000000  0.5421250000000 1.0
C      1  0.5177630000000  0.5329820000000  0.4524560000000 1.0
C      1  0.5504470000000  0.4375200000000  0.4533760000000 1.0
C      1  0.5373150000000  0.5038500000000  0.5268330000000 1.0
C      1  0.4700580000000  0.3825800000000  0.4174420000000 1.0
C      1  0.5073200000000  0.5573320000000  0.5502800000000 1.0
C      1  0.4847200000000  0.4276820000000  0.4387230000000 1.0
C      1  0.4952070000000  0.6019700000000  0.5792320000000 1.0
C      1  0.4207990000000  0.5235820000000  0.5817050000000 1.0
C      1  0.4948600000000  0.6082830000000  0.4225930000000 1.0
C      1  0.4779670000000  0.4794700000000  0.4827410000000 1.0
C      1  0.4749120000000  0.5413900000000  0.5147280000000 1.0
C      1  0.4382840000000  0.5289480000000  0.3995240000000 1.0
C      1  0.4753170000000  0.5614030000000  0.5864580000000 1.0
C      1  0.5517670000000  0.5233190000000  0.4057020000000 1.0
C      1  0.5374910000000  0.4455550000000  0.5955760000000 1.0
C      1  0.5566210000000  0.4445760000000  0.4814970000000 1.0
C      1  0.4896250000000  0.4978110000000  0.5035810000000 1.0
C      1  0.4963240000000  0.3900060000000  0.4694350000000 1.0
C      1  0.5420580000000  0.5954580000000  0.4177780000000 1.0
C      1  0.4621440000000  0.4692550000000  0.4201690000000 1.0
C      1  0.5730430000000  0.5270540000000  0.5604780000000 1.0
C      1  0.4928620000000  0.4891800000000  0.3882030000000 1.0
C      1  0.5037750000000  0.4590150000000  0.5280610000000 1.0
C      1  0.5341200000000  0.5477390000000  0.4727940000000 1.0
C      1  0.4362410000000  0.5030110000000  0.4696070000000 1.0
C      1  0.5206570000000  0.6033280000000  0.4342000000000 1.0
C      1  0.3972170000000  0.4128650000000  0.5012730000000 1.0
C      1  0.6319920000000  0.4736990000000  0.5039420000000 1.0
C      1  0.5939760000000  0.4322140000000  0.5151770000000 1.0
C      1  0.4042870000000  0.5684540000000  0.4440670000000 1.0
C      1  0.5134400000000  0.5052400000000  0.5431520000000 1.0
C      1  0.4581310000000  0.3936980000000  0.5353990000000 1.0
C      1  0.3856220000000  0.4862100000000  0.5822970000000 1.0
C      1  0.4368930000000  0.4684350000000  0.4352680000000 1.0
C      1  0.5791260000000  0.5876810000000  0.5414530000000 1.0
C      1  0.5432620000000  0.4812100000000  0.5112170000000 1.0
C      1  0.4450910000000  0.5058120000000  0.5422250000000 1.0
C      1  0.5348370000000  0.4737390000000  0.5971330000000 1.0
C      1  0.4956600000000  0.4178170000000  0.4644110000000 1.0
C      1  0.3960250000000  0.5570110000000  0.5576490000000 1.0
C      1  0.4894810000000  0.4407720000000  0.5109270000000 1.0
C      1  0.5073280000000  0.5410120000000  0.4252280000000 1.0
C      1  0.5853790000000  0.4390200000000  0.4886620000000 1.0
C      1  0.4847680000000  0.3907510000000  0.5333250000000 1.0
C      1  0.4738930000000  0.4090290000000  0.4204530000000 1.0
C      1  0.4191690000000  0.5656360000000  0.4661550000000 1.0
C      1  0.4131830000000  0.5303650000000  0.4130850000000 1.0
C      1  0.5337110000000  0.4633120000000  0.3852810000000 1.0
C      1  0.4366960000000  0.5248930000000  0.4892970000000 1.0
C      1  0.4070830000000  0.5078250000000  0.4290530000000 1.0
C      1  0.5209970000000  0.5955530000000  0.4620170000000 1.0
C      1  0.5753710000000  0.5092320000000  0.4583780000000 1.0
C      1  0.5339130000000  0.4493080000000  0.4342720000000 1.0
C      1  0.4019290000000  0.5548770000000  0.4209980000000 1.0
C      1  0.5520360000000  0.4756020000000  0.4846230000000 1.0
C      1  0.4503580000000  0.5248390000000  0.5165160000000 1.0
C      1  0.5258020000000  0.4254300000000  0.5821190000000 1.0
C      1  0.5771660000000  0.4583300000000  0.5529330000000 1.0
C      1  0.4662110000000  0.4856650000000  0.3969520000000 1.0
C      1  0.5652220000000  0.5413970000000  0.5365440000000 1.0
C      1  0.5339050000000  0.4329950000000  0.5003580000000 1.0
C      1  0.5024840000000  0.4646240000000  0.4728510000000 1.0
C      1  0.5947940000000  0.4051530000000  0.5222910000000 1.0
C      1  0.5423830000000  0.5635340000000  0.6043760000000 1.0
C      1  0.5111590000000  0.4694560000000  0.4443140000000 1.0
C      1  0.5115520000000  0.5312350000000  0.5865290000000 1.0
C      1  0.4182510000000  0.4269490000000  0.4933840000000 1.0
C      1  0.4745170000000  0.5898320000000  0.4306320000000 1.0
C      1  0.5956620000000  0.5607490000000  0.5048070000000 1.0
C      1  0.4755750000000  0.5155620000000  0.4469490000000 1.0
END
