TITL C-3866671-3735-43 -6.68061537590535e-08 125000 -385.315737701758 0 0 64 (C1) n - 1
REM
REM in /home/nfs/bkarasulu/CARBON/AIRSS/Generating-Clusters/LCBOP/Only-C1/SD-CG/HFTN-CG/FIRE-CG
REM
REM
REM
REM
REM
REM ./C.cell (11c1c37f851c82e70ff6c80c92926a4b)
REM AIRSS Version 0.9.1 bugfix July 2018 build 013d7b7c2542+ Fri, 06 Jul 2018 19:26:36 +0100
REM compiler GCC version 9.2.1 20190827 (Red Hat 9.2.1-1)
REM options -cpp -mtune=generic -march=x86-64 -g -O0 -fpre-include=/usr/include/finclude/math-vector-fortran.h
REM seed 1355633894 261297040 248083042 1327354828 -1583229056 -550204853 718445298 818048167 -144890490 -1246876596 564941647 -1148354823 -1918670199 586792957 829218164 1296246366 1169778521 1118391160 -1375939518 777970132 -1611897388 397682711 785183386 2071894363 1303507501 638931332 -1486231637 -574474044 1026517933 31629642 647828909 1574867425 79051862
REM
CELL 1.54180   50.00000   50.00000   50.00000   90.00000   90.00000   90.00000
LATT -1
SFAC C  
C      1  0.4332770000000  0.4789660000000  0.4445740000000 1.0
C      1  0.4157670000000  0.5114270000000  0.5083170000000 1.0
C      1  0.4849660000000  0.4339180000000  0.5275500000000 1.0
C      1  0.4513510000000  0.4966070000000  0.5712090000000 1.0
C      1  0.4777150000000  0.4415120000000  0.4177680000000 1.0
C      1  0.5542950000000  0.5323100000000  0.5150850000000 1.0
C      1  0.5628950000000  0.4525020000000  0.4843950000000 1.0
C      1  0.5728080000000  0.4761130000000  0.4758190000000 1.0
C      1  0.5680190000000  0.5028670000000  0.4762360000000 1.0
C      1  0.4923840000000  0.5944860000000  0.5478940000000 1.0
C      1  0.5621950000000  0.5796140000000  0.5019790000000 1.0
C      1  0.5508870000000  0.6212670000000  0.4784740000000 1.0
C      1  0.5246940000000  0.4965960000000  0.4987480000000 1.0
C      1  0.4451970000000  0.5718870000000  0.5486420000000 1.0
C      1  0.4653530000000  0.4245840000000  0.4652170000000 1.0
C      1  0.4996390000000  0.4846530000000  0.4236240000000 1.0
C      1  0.4955350000000  0.5899940000000  0.4910480000000 1.0
C      1  0.4705510000000  0.4252690000000  0.4377040000000 1.0
C      1  0.5877330000000  0.5785390000000  0.4923460000000 1.0
C      1  0.4877410000000  0.5235090000000  0.5234620000000 1.0
C      1  0.4671260000000  0.5867590000000  0.5523700000000 1.0
C      1  0.5025080000000  0.3789980000000  0.4862880000000 1.0
C      1  0.5521290000000  0.5118030000000  0.5353470000000 1.0
C      1  0.5202190000000  0.3990880000000  0.4881550000000 1.0
C      1  0.5179260000000  0.5982030000000  0.5060270000000 1.0
C      1  0.5014050000000  0.5107380000000  0.4129700000000 1.0
C      1  0.4594720000000  0.3992980000000  0.4763260000000 1.0
C      1  0.4745070000000  0.4461290000000  0.4821910000000 1.0
C      1  0.4771350000000  0.4975240000000  0.4843550000000 1.0
C      1  0.5488330000000  0.4427020000000  0.5299060000000 1.0
C      1  0.4503270000000  0.4796510000000  0.4237060000000 1.0
C      1  0.5521870000000  0.5599640000000  0.5202080000000 1.0
C      1  0.4778450000000  0.4970950000000  0.5647590000000 1.0
C      1  0.5270380000000  0.5533870000000  0.5625130000000 1.0
C      1  0.4783870000000  0.5474790000000  0.5121400000000 1.0
C      1  0.4759660000000  0.5348340000000  0.4459640000000 1.0
C      1  0.5344920000000  0.5695450000000  0.5408900000000 1.0
C      1  0.5477660000000  0.5169840000000  0.4906990000000 1.0
C      1  0.4897670000000  0.5192780000000  0.5515480000000 1.0
C      1  0.5164850000000  0.5907150000000  0.5337240000000 1.0
C      1  0.5439360000000  0.6005040000000  0.4947570000000 1.0
C      1  0.4898910000000  0.5329240000000  0.4230660000000 1.0
C      1  0.4707640000000  0.5187160000000  0.4666310000000 1.0
C      1  0.4291890000000  0.5530270000000  0.5384770000000 1.0
C      1  0.5350700000000  0.4648840000000  0.5408170000000 1.0
C      1  0.5151150000000  0.4783810000000  0.4465270000000 1.0
C      1  0.5219650000000  0.4808380000000  0.4723620000000 1.0
C      1  0.5202870000000  0.4265550000000  0.4946670000000 1.0
C      1  0.4360350000000  0.4776390000000  0.4726660000000 1.0
C      1  0.4723840000000  0.4242250000000  0.5482360000000 1.0
C      1  0.4944390000000  0.4380480000000  0.5014090000000 1.0
C      1  0.5449580000000  0.4391090000000  0.5017670000000 1.0
C      1  0.4761480000000  0.4695190000000  0.4178020000000 1.0
C      1  0.4798690000000  0.5687400000000  0.4960230000000 1.0
C      1  0.4195060000000  0.4917400000000  0.4905910000000 1.0
C      1  0.4196390000000  0.5324300000000  0.5243740000000 1.0
C      1  0.5174410000000  0.4637910000000  0.5624910000000 1.0
C      1  0.4631460000000  0.4726680000000  0.4814810000000 1.0
C      1  0.4950710000000  0.4757560000000  0.5708240000000 1.0
C      1  0.4960860000000  0.5042700000000  0.5043580000000 1.0
C      1  0.5365230000000  0.4889860000000  0.5265690000000 1.0
C      1  0.5645970000000  0.4261240000000  0.5447280000000 1.0
C      1  0.4757770000000  0.3789760000000  0.4831540000000 1.0
C      1  0.5076480000000  0.5353620000000  0.5660470000000 1.0
END
