TITL C-3866671-3735-514 -0.100509539302995 125000 -503.778095071563 0 0 83 (C1) n - 1
REM
REM in /home/nfs/bkarasulu/CARBON/AIRSS/Generating-Clusters/LCBOP/Only-C1/SD-CG/FIRE-CG
REM
REM
REM
REM
REM
REM ./C.cell (11c1c37f851c82e70ff6c80c92926a4b)
REM AIRSS Version 0.9.1 bugfix July 2018 build 013d7b7c2542+ Fri, 06 Jul 2018 19:26:36 +0100
REM compiler GCC version 9.2.1 20190827 (Red Hat 9.2.1-1)
REM options -cpp -mtune=generic -march=x86-64 -g -O0 -fpre-include=/usr/include/finclude/math-vector-fortran.h
REM seed 542445168 441690771 2115688296 1348362601 556836365 -1148741600 1000492421 1987944681 -348785939 -620614981 616974031 681273840 894959841 339381549 1796711451 -1783673871 1099371834 -679015883 -863654974 -942305410 1767900793 265205846 -748130946 2111883758 1354058097 -1058425348 1801444134 977531562 1169175570 392814534 1373388374 2146913528 -1916347804
REM
CELL 1.54180   50.00000   50.00000   50.00000   90.00000   90.00000   90.00000
LATT -1
SFAC C  
C      1  0.6044690000000  0.6183580000000  0.4822050000000 1.0
C      1  0.5779690000000  0.6077260000000  0.5231220000000 1.0
C      1  0.4454820000000  0.4710080000000  0.5798310000000 1.0
C      1  0.4985650000000  0.5519250000000  0.5278070000000 1.0
C      1  0.5592770000000  0.4343790000000  0.4645300000000 1.0
C      1  0.5364610000000  0.5770580000000  0.5103140000000 1.0
C      1  0.5969090000000  0.6059710000000  0.4597670000000 1.0
C      1  0.5602220000000  0.5685140000000  0.4554490000000 1.0
C      1  0.4619720000000  0.4764840000000  0.5579580000000 1.0
C      1  0.4516590000000  0.3672140000000  0.5055810000000 1.0
C      1  0.4581300000000  0.4185960000000  0.4904600000000 1.0
C      1  0.5418430000000  0.5274360000000  0.5608260000000 1.0
C      1  0.4559520000000  0.5188870000000  0.4339290000000 1.0
C      1  0.4455800000000  0.4479370000000  0.4522630000000 1.0
C      1  0.4148840000000  0.5031750000000  0.4835160000000 1.0
C      1  0.5258790000000  0.5868540000000  0.4855360000000 1.0
C      1  0.4323480000000  0.5412260000000  0.5612180000000 1.0
C      1  0.4521870000000  0.5424520000000  0.5411090000000 1.0
C      1  0.4714750000000  0.5480400000000  0.5213260000000 1.0
C      1  0.4447900000000  0.4711280000000  0.4390340000000 1.0
C      1  0.5257170000000  0.4538750000000  0.5505200000000 1.0
C      1  0.4806380000000  0.6124560000000  0.4823760000000 1.0
C      1  0.4826340000000  0.4978800000000  0.5092140000000 1.0
C      1  0.5550850000000  0.4212690000000  0.5127130000000 1.0
C      1  0.3610660000000  0.4123690000000  0.4846910000000 1.0
C      1  0.4587340000000  0.4649090000000  0.5316070000000 1.0
C      1  0.4161760000000  0.5048750000000  0.4567940000000 1.0
C      1  0.5498750000000  0.4433670000000  0.5552690000000 1.0
C      1  0.4801620000000  0.4342680000000  0.4990360000000 1.0
C      1  0.5457840000000  0.4560590000000  0.4192720000000 1.0
C      1  0.4988830000000  0.4909680000000  0.5323480000000 1.0
C      1  0.5116590000000  0.5252530000000  0.4152670000000 1.0
C      1  0.4814410000000  0.4478460000000  0.5239760000000 1.0
C      1  0.5433790000000  0.5331290000000  0.5333940000000 1.0
C      1  0.4283910000000  0.5185260000000  0.5776020000000 1.0
C      1  0.4760310000000  0.5340760000000  0.4464820000000 1.0
C      1  0.5969000000000  0.6187540000000  0.5078590000000 1.0
C      1  0.4377040000000  0.4983570000000  0.4397320000000 1.0
C      1  0.5540650000000  0.5178590000000  0.4603760000000 1.0
C      1  0.5629990000000  0.5190580000000  0.5181350000000 1.0
C      1  0.5410420000000  0.5213130000000  0.5861430000000 1.0
C      1  0.4652590000000  0.5494620000000  0.4932830000000 1.0
C      1  0.4117930000000  0.4232060000000  0.4762070000000 1.0
C      1  0.6098510000000  0.5445600000000  0.5092950000000 1.0
C      1  0.4387640000000  0.4298120000000  0.4726560000000 1.0
C      1  0.5346170000000  0.4793550000000  0.4121130000000 1.0
C      1  0.5546820000000  0.4402560000000  0.4388970000000 1.0
C      1  0.5334830000000  0.4030370000000  0.5141430000000 1.0
C      1  0.5066580000000  0.6073250000000  0.4855560000000 1.0
C      1  0.4475400000000  0.4444150000000  0.5888040000000 1.0
C      1  0.4607350000000  0.4219230000000  0.5820970000000 1.0
C      1  0.4302500000000  0.4934540000000  0.5872270000000 1.0
C      1  0.5649840000000  0.4287690000000  0.5383120000000 1.0
C      1  0.5617650000000  0.4676930000000  0.4996640000000 1.0
C      1  0.5664270000000  0.5413340000000  0.4580160000000 1.0
C      1  0.5329480000000  0.5752210000000  0.4604680000000 1.0
C      1  0.4982120000000  0.4431210000000  0.4795260000000 1.0
C      1  0.4314070000000  0.4956010000000  0.5029920000000 1.0
C      1  0.4579910000000  0.5982620000000  0.4807370000000 1.0
C      1  0.4774270000000  0.4066330000000  0.5677390000000 1.0
C      1  0.5310160000000  0.5041260000000  0.4528730000000 1.0
C      1  0.3862240000000  0.4177140000000  0.4804350000000 1.0
C      1  0.5080220000000  0.4657250000000  0.4697160000000 1.0
C      1  0.5564800000000  0.5920240000000  0.5230520000000 1.0
C      1  0.5262360000000  0.5535900000000  0.5229980000000 1.0
C      1  0.5873710000000  0.5319080000000  0.5130120000000 1.0
C      1  0.4558540000000  0.4862380000000  0.5120270000000 1.0
C      1  0.5056450000000  0.4621440000000  0.5329700000000 1.0
C      1  0.4985710000000  0.5441380000000  0.4321250000000 1.0
C      1  0.5110570000000  0.4935840000000  0.4698700000000 1.0
C      1  0.4920280000000  0.5087330000000  0.4849560000000 1.0
C      1  0.5131680000000  0.3955000000000  0.5300800000000 1.0
C      1  0.4842460000000  0.4945510000000  0.5572640000000 1.0
C      1  0.4780970000000  0.5316040000000  0.4749330000000 1.0
C      1  0.5593070000000  0.4404760000000  0.4919080000000 1.0
C      1  0.5131910000000  0.5658190000000  0.4426240000000 1.0
C      1  0.4556390000000  0.3920520000000  0.4987670000000 1.0
C      1  0.4518830000000  0.5724100000000  0.4841580000000 1.0
C      1  0.4161610000000  0.5630640000000  0.5649640000000 1.0
C      1  0.4950270000000  0.3974860000000  0.5497250000000 1.0
C      1  0.5599250000000  0.4922270000000  0.5100790000000 1.0
C      1  0.5258860000000  0.5028180000000  0.4246120000000 1.0
C      1  0.5797580000000  0.5877920000000  0.4505360000000 1.0
END
