TITL C-3866670-4165-461 -7.02080843828822e-07 125000 -1221.94219410211 0 0 196 (C1) n - 1
REM
REM in /home/nfs/bkarasulu/CARBON/AIRSS/Generating-Clusters/LCBOP/Only-C1/SD-CG/FIRE-CG
REM
REM
REM
REM
REM
REM ./C.cell (11c1c37f851c82e70ff6c80c92926a4b)
REM AIRSS Version 0.9.1 bugfix July 2018 build 013d7b7c2542+ Fri, 06 Jul 2018 19:26:36 +0100
REM compiler GCC version 9.2.1 20190827 (Red Hat 9.2.1-1)
REM options -cpp -mtune=generic -march=x86-64 -g -O0 -fpre-include=/usr/include/finclude/math-vector-fortran.h
REM seed 198469323 -1492638292 73606663 -886457013 -1724876056 1854069614 -1103543455 1670266419 1743476125 575638211 -1523652291 808688241 1387860183 -892945971 -982423851 -171786696 -1663549737 -1170392178 -1782913988 95872358 1266032094 722755286 646305149 -424544531 -898463500 1276787776 -420535506 -1959219750 -1663189278 1058281562 -1740761940 -555458118 1318971912
REM
CELL 1.54180   50.00000   50.00000   50.00000   90.00000   90.00000   90.00000
LATT -1
SFAC C  
C      1  0.4501310000000  0.5100900000000  0.4724780000000 1.0
C      1  0.5109920000000  0.5212960000000  0.4874550000000 1.0
C      1  0.5578210000000  0.4081170000000  0.5089460000000 1.0
C      1  0.4944210000000  0.4755860000000  0.5788580000000 1.0
C      1  0.4182540000000  0.4672240000000  0.5680060000000 1.0
C      1  0.3841660000000  0.4950770000000  0.4602970000000 1.0
C      1  0.4883720000000  0.4567250000000  0.3816830000000 1.0
C      1  0.5730430000000  0.4560540000000  0.5906330000000 1.0
C      1  0.4551900000000  0.5558410000000  0.5471060000000 1.0
C      1  0.4052700000000  0.5293030000000  0.4328760000000 1.0
C      1  0.4505720000000  0.3306280000000  0.4927060000000 1.0
C      1  0.4111220000000  0.4431900000000  0.5252860000000 1.0
C      1  0.4140610000000  0.5853880000000  0.5062730000000 1.0
C      1  0.3701220000000  0.4471050000000  0.4720300000000 1.0
C      1  0.5764510000000  0.4955310000000  0.4948010000000 1.0
C      1  0.5078550000000  0.3960340000000  0.5178090000000 1.0
C      1  0.4840550000000  0.4554890000000  0.4963520000000 1.0
C      1  0.5134030000000  0.4423150000000  0.4306690000000 1.0
C      1  0.6096730000000  0.5113030000000  0.5559040000000 1.0
C      1  0.4330120000000  0.6035540000000  0.5136800000000 1.0
C      1  0.4579240000000  0.5421430000000  0.5717140000000 1.0
C      1  0.5243430000000  0.5073080000000  0.4656400000000 1.0
C      1  0.5512650000000  0.5266970000000  0.4058590000000 1.0
C      1  0.5145240000000  0.3953350000000  0.5461020000000 1.0
C      1  0.4392900000000  0.4701700000000  0.5868800000000 1.0
C      1  0.5075690000000  0.5735550000000  0.4710410000000 1.0
C      1  0.4627950000000  0.4477140000000  0.4500810000000 1.0
C      1  0.4412820000000  0.5797220000000  0.5526450000000 1.0
C      1  0.4652730000000  0.4923030000000  0.5384200000000 1.0
C      1  0.4515660000000  0.5865050000000  0.4553800000000 1.0
C      1  0.3982780000000  0.5083580000000  0.5534030000000 1.0
C      1  0.4575320000000  0.4482520000000  0.5912720000000 1.0
C      1  0.4390780000000  0.4732060000000  0.4979540000000 1.0
C      1  0.4608300000000  0.3559310000000  0.4971760000000 1.0
C      1  0.5646210000000  0.4587450000000  0.4324800000000 1.0
C      1  0.4808930000000  0.4077840000000  0.5107340000000 1.0
C      1  0.5734390000000  0.5226440000000  0.5006700000000 1.0
C      1  0.4854420000000  0.4823480000000  0.4894980000000 1.0
C      1  0.4762630000000  0.5161210000000  0.5242300000000 1.0
C      1  0.6067390000000  0.4685300000000  0.4649400000000 1.0
C      1  0.4819230000000  0.5403060000000  0.4282500000000 1.0
C      1  0.4995080000000  0.4207340000000  0.4691340000000 1.0
C      1  0.4906610000000  0.4360850000000  0.4473100000000 1.0
C      1  0.5335360000000  0.5961500000000  0.4181040000000 1.0
C      1  0.5543170000000  0.4787720000000  0.5336680000000 1.0
C      1  0.5312090000000  0.4171520000000  0.5529550000000 1.0
C      1  0.3876470000000  0.4657690000000  0.4610340000000 1.0
C      1  0.5167000000000  0.5313310000000  0.5616640000000 1.0
C      1  0.4617710000000  0.6003660000000  0.5535930000000 1.0
C      1  0.4646790000000  0.5041700000000  0.6120080000000 1.0
C      1  0.4643990000000  0.4779520000000  0.3464020000000 1.0
C      1  0.4585440000000  0.5441310000000  0.3497060000000 1.0
C      1  0.4560320000000  0.5374280000000  0.4745470000000 1.0
C      1  0.4279100000000  0.4198770000000  0.5185880000000 1.0
C      1  0.5528870000000  0.4178490000000  0.5702050000000 1.0
C      1  0.4750740000000  0.3694500000000  0.5499650000000 1.0
C      1  0.5438470000000  0.4725400000000  0.6375630000000 1.0
C      1  0.5088700000000  0.5918660000000  0.5177700000000 1.0
C      1  0.5666170000000  0.4779880000000  0.4113200000000 1.0
C      1  0.5304380000000  0.5462210000000  0.4114260000000 1.0
C      1  0.4096260000000  0.5482740000000  0.4546520000000 1.0
C      1  0.4985230000000  0.5025630000000  0.5080500000000 1.0
C      1  0.5806480000000  0.4179990000000  0.5634100000000 1.0
C      1  0.5506430000000  0.5972170000000  0.4867160000000 1.0
C      1  0.5546850000000  0.5051810000000  0.5443880000000 1.0
C      1  0.4295000000000  0.5248180000000  0.3867120000000 1.0
C      1  0.4606660000000  0.4231200000000  0.5764640000000 1.0
C      1  0.5202080000000  0.4914260000000  0.4141660000000 1.0
C      1  0.5158660000000  0.5077430000000  0.6233420000000 1.0
C      1  0.5709920000000  0.4735060000000  0.5118100000000 1.0
C      1  0.3962240000000  0.4852340000000  0.5677570000000 1.0
C      1  0.3979010000000  0.5029040000000  0.4362680000000 1.0
C      1  0.5281830000000  0.4350600000000  0.6093640000000 1.0
C      1  0.6194630000000  0.5101450000000  0.5282160000000 1.0
C      1  0.5295630000000  0.4662200000000  0.5352900000000 1.0
C      1  0.5348150000000  0.4614990000000  0.4845290000000 1.0
C      1  0.5326680000000  0.4482360000000  0.6339540000000 1.0
C      1  0.5872370000000  0.4498030000000  0.5135340000000 1.0
C      1  0.5134160000000  0.6301840000000  0.4505310000000 1.0
C      1  0.5766240000000  0.4274800000000  0.4987450000000 1.0
C      1  0.4459760000000  0.5455420000000  0.3737380000000 1.0
C      1  0.4686610000000  0.4119550000000  0.4024910000000 1.0
C      1  0.4931160000000  0.3875080000000  0.5639290000000 1.0
C      1  0.4181960000000  0.5380070000000  0.4097050000000 1.0
C      1  0.4643870000000  0.3825290000000  0.4481060000000 1.0
C      1  0.4133220000000  0.4803010000000  0.4261040000000 1.0
C      1  0.5504710000000  0.4370770000000  0.5919610000000 1.0
C      1  0.4297360000000  0.4967470000000  0.3809360000000 1.0
C      1  0.5439130000000  0.5483090000000  0.5267710000000 1.0
C      1  0.5260170000000  0.4108570000000  0.4732110000000 1.0
C      1  0.4763040000000  0.4825200000000  0.4205730000000 1.0
C      1  0.4889130000000  0.4840400000000  0.5527900000000 1.0
C      1  0.5102870000000  0.5508100000000  0.4927000000000 1.0
C      1  0.5304300000000  0.5977020000000  0.5639640000000 1.0
C      1  0.5366050000000  0.5695480000000  0.4270410000000 1.0
C      1  0.5936660000000  0.5392960000000  0.4303600000000 1.0
C      1  0.4157860000000  0.5823410000000  0.5617250000000 1.0
C      1  0.5767110000000  0.5755420000000  0.5769220000000 1.0
C      1  0.5238710000000  0.6190250000000  0.4284570000000 1.0
C      1  0.5778680000000  0.5351180000000  0.4092820000000 1.0
C      1  0.4973540000000  0.4770510000000  0.4013130000000 1.0
C      1  0.5357690000000  0.5665580000000  0.4549040000000 1.0
C      1  0.3890510000000  0.4587610000000  0.5135110000000 1.0
C      1  0.5733770000000  0.4313680000000  0.4702830000000 1.0
C      1  0.4448280000000  0.4541740000000  0.4020930000000 1.0
C      1  0.4815510000000  0.5899030000000  0.5733100000000 1.0
C      1  0.5882290000000  0.4763740000000  0.3936480000000 1.0
C      1  0.5465140000000  0.4982040000000  0.4071470000000 1.0
C      1  0.4662910000000  0.3947980000000  0.4237300000000 1.0
C      1  0.4786970000000  0.5754530000000  0.4597490000000 1.0
C      1  0.4338520000000  0.5009610000000  0.4938560000000 1.0
C      1  0.6198650000000  0.5352780000000  0.5140970000000 1.0
C      1  0.6214760000000  0.4838060000000  0.5143750000000 1.0
C      1  0.5617910000000  0.5267790000000  0.5270530000000 1.0
C      1  0.4584340000000  0.4621970000000  0.4257730000000 1.0
C      1  0.5391450000000  0.5552860000000  0.5002630000000 1.0
C      1  0.5194180000000  0.4414850000000  0.5439670000000 1.0
C      1  0.4706370000000  0.5466260000000  0.5232440000000 1.0
C      1  0.5914900000000  0.6061700000000  0.5102380000000 1.0
C      1  0.5311590000000  0.4012560000000  0.5000250000000 1.0
C      1  0.6102160000000  0.4604530000000  0.5286720000000 1.0
C      1  0.5256900000000  0.6060010000000  0.5373160000000 1.0
C      1  0.4267840000000  0.4597390000000  0.5422850000000 1.0
C      1  0.4857900000000  0.4078400000000  0.5847180000000 1.0
C      1  0.4703250000000  0.5593810000000  0.5898950000000 1.0
C      1  0.5025310000000  0.5409380000000  0.4108100000000 1.0
C      1  0.6070850000000  0.5844130000000  0.5086100000000 1.0
C      1  0.4908520000000  0.4398980000000  0.5438990000000 1.0
C      1  0.4661580000000  0.4380630000000  0.3901250000000 1.0
C      1  0.5090460000000  0.4849810000000  0.5313740000000 1.0
C      1  0.3699910000000  0.4436140000000  0.4988030000000 1.0
C      1  0.4878070000000  0.4642240000000  0.3540730000000 1.0
C      1  0.4656600000000  0.4273950000000  0.5485170000000 1.0
C      1  0.4638000000000  0.3723030000000  0.4734500000000 1.0
C      1  0.4891370000000  0.5071420000000  0.6224640000000 1.0
C      1  0.6003570000000  0.4879740000000  0.5692000000000 1.0
C      1  0.4486750000000  0.5446430000000  0.5022520000000 1.0
C      1  0.5927610000000  0.4423390000000  0.5720690000000 1.0
C      1  0.4906810000000  0.5564860000000  0.6086140000000 1.0
C      1  0.4556750000000  0.4136440000000  0.5254800000000 1.0
C      1  0.6089170000000  0.4754300000000  0.3778320000000 1.0
C      1  0.4669230000000  0.3619310000000  0.5248550000000 1.0
C      1  0.4727450000000  0.5476700000000  0.4539230000000 1.0
C      1  0.5066670000000  0.6244870000000  0.4772810000000 1.0
C      1  0.4424380000000  0.5183030000000  0.5700870000000 1.0
C      1  0.4306370000000  0.5645150000000  0.4149910000000 1.0
C      1  0.5096990000000  0.5882970000000  0.5804020000000 1.0
C      1  0.5175330000000  0.5986720000000  0.4878910000000 1.0
C      1  0.4720920000000  0.6330260000000  0.5149940000000 1.0
C      1  0.6056990000000  0.5572330000000  0.5018120000000 1.0
C      1  0.5643940000000  0.6121400000000  0.5062590000000 1.0
C      1  0.3978670000000  0.5405730000000  0.4809780000000 1.0
C      1  0.5419360000000  0.4967040000000  0.6230190000000 1.0
C      1  0.4250350000000  0.4755300000000  0.4003000000000 1.0
C      1  0.4974610000000  0.5609540000000  0.5198850000000 1.0
C      1  0.4558850000000  0.6145400000000  0.5284420000000 1.0
C      1  0.5845670000000  0.4537360000000  0.4544430000000 1.0
C      1  0.5352970000000  0.5118080000000  0.5640350000000 1.0
C      1  0.5396660000000  0.5519330000000  0.6050520000000 1.0
C      1  0.4464760000000  0.4732390000000  0.5269130000000 1.0
C      1  0.4848900000000  0.4964390000000  0.4427380000000 1.0
C      1  0.5572150000000  0.5930300000000  0.5716390000000 1.0
C      1  0.5414100000000  0.4406130000000  0.4360610000000 1.0
C      1  0.5625770000000  0.5350230000000  0.5989560000000 1.0
C      1  0.4856400000000  0.4547590000000  0.5958090000000 1.0
C      1  0.6029060000000  0.5352380000000  0.5690750000000 1.0
C      1  0.5627450000000  0.5058890000000  0.6046520000000 1.0
C      1  0.5386530000000  0.4850080000000  0.4741290000000 1.0
C      1  0.5478540000000  0.4226060000000  0.4584110000000 1.0
C      1  0.4422230000000  0.4887180000000  0.3568330000000 1.0
C      1  0.4884580000000  0.6374910000000  0.4942710000000 1.0
C      1  0.6209590000000  0.4797480000000  0.4855470000000 1.0
C      1  0.4389430000000  0.4560040000000  0.4676270000000 1.0
C      1  0.5823150000000  0.5484480000000  0.4834910000000 1.0
C      1  0.5565630000000  0.5674480000000  0.4792600000000 1.0
C      1  0.3880640000000  0.4885440000000  0.5070410000000 1.0
C      1  0.4309030000000  0.5219590000000  0.5152450000000 1.0
C      1  0.5468810000000  0.6217400000000  0.5262020000000 1.0
C      1  0.4724920000000  0.4942130000000  0.4671510000000 1.0
C      1  0.5824740000000  0.5485580000000  0.5829110000000 1.0
C      1  0.4005710000000  0.5626150000000  0.4995320000000 1.0
C      1  0.4857850000000  0.4282090000000  0.4919930000000 1.0
C      1  0.4471660000000  0.4979430000000  0.5906540000000 1.0
C      1  0.5081690000000  0.4585640000000  0.3368960000000 1.0
C      1  0.4288220000000  0.5706620000000  0.4440910000000 1.0
C      1  0.4461360000000  0.5686370000000  0.3912540000000 1.0
C      1  0.6066080000000  0.4620840000000  0.5570230000000 1.0
C      1  0.3879280000000  0.5104920000000  0.4852670000000 1.0
C      1  0.5017300000000  0.4300090000000  0.5992030000000 1.0
C      1  0.5936970000000  0.5414330000000  0.4568100000000 1.0
C      1  0.4242130000000  0.5180390000000  0.5454550000000 1.0
C      1  0.5123080000000  0.5025200000000  0.4405290000000 1.0
C      1  0.5183800000000  0.5494700000000  0.5405100000000 1.0
C      1  0.5786280000000  0.4853500000000  0.5902730000000 1.0
C      1  0.5160010000000  0.5673410000000  0.6006640000000 1.0
C      1  0.4146250000000  0.4617350000000  0.4503540000000 1.0
END
