TITL C-3866669-3764-223 3.64182004062844 125000 -144.982255677035 0 0 26 (C1) n - 1
REM
REM in /home/nfs/bkarasulu/CARBON/AIRSS/Generating-Clusters/LCBOP/Only-C1/SD-CG/HFTN-CG/FIRE-CG
REM
REM
REM
REM
REM
REM ./C.cell (11c1c37f851c82e70ff6c80c92926a4b)
REM AIRSS Version 0.9.1 bugfix July 2018 build 013d7b7c2542+ Fri, 06 Jul 2018 19:26:36 +0100
REM compiler GCC version 9.2.1 20190827 (Red Hat 9.2.1-1)
REM options -cpp -mtune=generic -march=x86-64 -g -O0 -fpre-include=/usr/include/finclude/math-vector-fortran.h
REM seed -19950805 -1815683549 -304032192 -1859522549 -448373069 1062883389 442476563 1809752325 1522729043 -1537587910 152985884 744735496 1553415948 570386865 741441718 -2029792488 -1869005596 218927172 -1702269423 -993144216 368902644 -1283485138 7690096 -33144425 -426363416 706368119 584574759 -152624597 -1479404951 -848382551 86951745 1795916263 -1450789634
REM
CELL 1.54180   50.00000   50.00000   50.00000   90.00000   90.00000   90.00000
LATT -1
SFAC C  
C      1  0.3373630000000  0.4866600000000  0.4442540000000 1.0
C      1  0.4024370000000  0.5117640000000  0.4631640000000 1.0
C      1  0.5503540000000  0.4981560000000  0.4928190000000 1.0
C      1  0.3507770000000  0.5111330000000  0.4459740000000 1.0
C      1  0.6373640000000  0.4581840000000  0.5867020000000 1.0
C      1  0.5761870000000  0.4983130000000  0.5014200000000 1.0
C      1  0.6290830000000  0.4761970000000  0.5691090000000 1.0
C      1  0.3380880000000  0.5343730000000  0.4391130000000 1.0
C      1  0.4778530000000  0.5122430000000  0.4883090000000 1.0
C      1  0.5642160000000  0.5273410000000  0.5367760000000 1.0
C      1  0.4275760000000  0.5119240000000  0.4715460000000 1.0
C      1  0.3773090000000  0.5115800000000  0.4547890000000 1.0
C      1  0.5383890000000  0.5271690000000  0.5281560000000 1.0
C      1  0.5852880000000  0.5129290000000  0.5241230000000 1.0
C      1  0.6207940000000  0.4941900000000  0.5515300000000 1.0
C      1  0.6300320000000  0.5327090000000  0.5230340000000 1.0
C      1  0.3000610000000  0.4171010000000  0.4396380000000 1.0
C      1  0.5029800000000  0.5124020000000  0.4966870000000 1.0
C      1  0.4527140000000  0.5120840000000  0.4799270000000 1.0
C      1  0.6455100000000  0.4404680000000  0.6040060000000 1.0
C      1  0.5292660000000  0.5125670000000  0.5054510000000 1.0
C      1  0.6119740000000  0.5131240000000  0.5329980000000 1.0
C      1  0.6325530000000  0.5566280000000  0.5361330000000 1.0
C      1  0.3123540000000  0.4400400000000  0.4411570000000 1.0
C      1  0.6446240000000  0.5273580000000  0.5004830000000 1.0
C      1  0.3248530000000  0.4633630000000  0.4427020000000 1.0
END
