TITL C-3866672-3872-433 -9.47643754884759e-06 125000 -233.742004340187 0 0 39 (C1) n - 1
REM
REM in /home/nfs/bkarasulu/CARBON/AIRSS/Generating-Clusters/LCBOP/Only-C1/SD-CG/FIRE-CG
REM
REM
REM
REM
REM
REM ./C.cell (11c1c37f851c82e70ff6c80c92926a4b)
REM AIRSS Version 0.9.1 bugfix July 2018 build 013d7b7c2542+ Fri, 06 Jul 2018 19:26:36 +0100
REM compiler GCC version 9.2.1 20190827 (Red Hat 9.2.1-1)
REM options -cpp -mtune=generic -march=x86-64 -g -O0 -fpre-include=/usr/include/finclude/math-vector-fortran.h
REM seed 1989716409 1146034772 1051086084 -790915039 894842024 -1830285865 1404928536 657198456 -690981066 -1641323865 -332486435 -464801220 -655051098 -485221065 -329028544 65493815 -614862601 305374659 1544940777 -35923290 -254084675 861536183 -411174531 1178145051 1261902309 680886336 2122597991 1834174224 788233499 1868486027 1209913087 92118996 -1626433063
REM
CELL 1.54180   50.00000   50.00000   50.00000   90.00000   90.00000   90.00000
LATT -1
SFAC C  
C      1  0.5017980000000  0.4213270000000  0.5323520000000 1.0
C      1  0.4751940000000  0.4898220000000  0.5419530000000 1.0
C      1  0.5558590000000  0.4958900000000  0.4429540000000 1.0
C      1  0.5120670000000  0.4762630000000  0.4808950000000 1.0
C      1  0.5483880000000  0.4693600000000  0.5336280000000 1.0
C      1  0.4511040000000  0.4779940000000  0.5298910000000 1.0
C      1  0.5115060000000  0.5210580000000  0.4357020000000 1.0
C      1  0.4030520000000  0.4878000000000  0.5358800000000 1.0
C      1  0.5479870000000  0.5086790000000  0.4975100000000 1.0
C      1  0.4773540000000  0.5312900000000  0.4919460000000 1.0
C      1  0.4279400000000  0.4949300000000  0.5275130000000 1.0
C      1  0.5029300000000  0.5214130000000  0.4966580000000 1.0
C      1  0.5675120000000  0.4709000000000  0.5141080000000 1.0
C      1  0.4759280000000  0.5184970000000  0.5387820000000 1.0
C      1  0.5668700000000  0.4881860000000  0.4914890000000 1.0
C      1  0.4967840000000  0.4729110000000  0.5517660000000 1.0
C      1  0.4612300000000  0.5283270000000  0.5152520000000 1.0
C      1  0.4877420000000  0.5363590000000  0.4397340000000 1.0
C      1  0.5715190000000  0.4869040000000  0.4635300000000 1.0
C      1  0.4908280000000  0.4250700000000  0.5571850000000 1.0
C      1  0.5204670000000  0.4651960000000  0.5356280000000 1.0
C      1  0.5113780000000  0.4439000000000  0.5177340000000 1.0
C      1  0.5521430000000  0.5501590000000  0.5294170000000 1.0
C      1  0.4681970000000  0.5653320000000  0.3979600000000 1.0
C      1  0.4537240000000  0.4576080000000  0.5106920000000 1.0
C      1  0.4901870000000  0.5358170000000  0.5553020000000 1.0
C      1  0.4342220000000  0.5200230000000  0.5157170000000 1.0
C      1  0.4776970000000  0.5512540000000  0.4182940000000 1.0
C      1  0.4719980000000  0.4505070000000  0.4923490000000 1.0
C      1  0.5117400000000  0.5509340000000  0.5592320000000 1.0
C      1  0.4737050000000  0.5371930000000  0.4646140000000 1.0
C      1  0.5139100000000  0.4768560000000  0.4527680000000 1.0
C      1  0.5209990000000  0.5008830000000  0.4934520000000 1.0
C      1  0.5356140000000  0.5571960000000  0.5491290000000 1.0
C      1  0.5555980000000  0.5325200000000  0.5097800000000 1.0
C      1  0.5275710000000  0.4980190000000  0.4396110000000 1.0
C      1  0.4588500000000  0.5791850000000  0.3779510000000 1.0
C      1  0.4885110000000  0.4502920000000  0.5677270000000 1.0
C      1  0.4998960000000  0.4541470000000  0.4939170000000 1.0
END
