TITL C-3866673-4222-561 -3.82802372430317e-07 125000 -266.527448984862 0 0 44 (C1) n - 1
REM
REM in /home/nfs/bkarasulu/CARBON/AIRSS/Generating-Clusters/LCBOP/Only-C1/SD-CG/FIRE-CG
REM
REM
REM
REM
REM
REM ./C.cell (11c1c37f851c82e70ff6c80c92926a4b)
REM AIRSS Version 0.9.1 bugfix July 2018 build 013d7b7c2542+ Fri, 06 Jul 2018 19:26:36 +0100
REM compiler GCC version 9.2.1 20190827 (Red Hat 9.2.1-1)
REM options -cpp -mtune=generic -march=x86-64 -g -O0 -fpre-include=/usr/include/finclude/math-vector-fortran.h
REM seed -767886787 60984983 499020812 -964245698 -783541963 -1167319913 570759749 -1871407174 -1033531779 -89956930 1378050771 999815369 501536402 1640229149 1920702761 888006810 2121639644 1922414506 1202587593 1870203873 -2124469127 564774750 -1059961215 1808412363 -414856026 -1467613202 1361505639 -1991216784 409435824 1603078382 535338034 484164173 -1662920599
REM
CELL 1.54180   50.00000   50.00000   50.00000   90.00000   90.00000   90.00000
LATT -1
SFAC C  
C      1  0.4859840000000  0.4369730000000  0.5374440000000 1.0
C      1  0.5368470000000  0.4385520000000  0.5261750000000 1.0
C      1  0.4756700000000  0.5848750000000  0.5223150000000 1.0
C      1  0.5585710000000  0.4816170000000  0.4783290000000 1.0
C      1  0.4538570000000  0.5417090000000  0.5163380000000 1.0
C      1  0.4538700000000  0.4667330000000  0.5107150000000 1.0
C      1  0.4674810000000  0.5647320000000  0.4477670000000 1.0
C      1  0.5124780000000  0.4353990000000  0.5397480000000 1.0
C      1  0.4714930000000  0.5416010000000  0.4336790000000 1.0
C      1  0.4816630000000  0.5021740000000  0.5678670000000 1.0
C      1  0.4682950000000  0.4941970000000  0.4510930000000 1.0
C      1  0.5305330000000  0.4984960000000  0.4367580000000 1.0
C      1  0.4824260000000  0.5263680000000  0.4815900000000 1.0
C      1  0.5475500000000  0.4893140000000  0.4552270000000 1.0
C      1  0.5081410000000  0.4987010000000  0.5711450000000 1.0
C      1  0.4805610000000  0.5142970000000  0.4337100000000 1.0
C      1  0.4562760000000  0.4935960000000  0.5032050000000 1.0
C      1  0.5515210000000  0.4630140000000  0.5280430000000 1.0
C      1  0.4658470000000  0.4675710000000  0.4431400000000 1.0
C      1  0.4658080000000  0.5703910000000  0.4757060000000 1.0
C      1  0.4619110000000  0.5074480000000  0.5505550000000 1.0
C      1  0.4940400000000  0.4243370000000  0.4480450000000 1.0
C      1  0.5016190000000  0.5817010000000  0.5331780000000 1.0
C      1  0.5505070000000  0.4788330000000  0.5520700000000 1.0
C      1  0.4647190000000  0.4470110000000  0.5249630000000 1.0
C      1  0.4644300000000  0.5459670000000  0.4902910000000 1.0
C      1  0.4761200000000  0.4430510000000  0.4420540000000 1.0
C      1  0.5613560000000  0.4736950000000  0.5037360000000 1.0
C      1  0.5075000000000  0.5082710000000  0.4271200000000 1.0
C      1  0.4691620000000  0.5015160000000  0.4786090000000 1.0
C      1  0.5301470000000  0.4989190000000  0.5534880000000 1.0
C      1  0.5247390000000  0.5122220000000  0.5289960000000 1.0
C      1  0.5145140000000  0.4137570000000  0.4613160000000 1.0
C      1  0.4564810000000  0.5653930000000  0.5318180000000 1.0
C      1  0.5321900000000  0.4125430000000  0.4811650000000 1.0
C      1  0.4719710000000  0.5914020000000  0.4941890000000 1.0
C      1  0.5683250000000  0.4749700000000  0.5724190000000 1.0
C      1  0.5202730000000  0.5623250000000  0.5352390000000 1.0
C      1  0.5292380000000  0.5422580000000  0.4929640000000 1.0
C      1  0.5414720000000  0.4210860000000  0.5046350000000 1.0
C      1  0.5125890000000  0.4957020000000  0.5104340000000 1.0
C      1  0.4539890000000  0.5140740000000  0.5242630000000 1.0
C      1  0.5091000000000  0.5338470000000  0.4772310000000 1.0
C      1  0.5287350000000  0.5393610000000  0.5212280000000 1.0
END
