TITL C-3866676-3738-819 108771.268214625 125000 -988.210310700223 0 0 163 (C1) n - 1
REM
REM in /home/nfs/bkarasulu/CARBON/AIRSS/Generating-Clusters/LCBOP/Only-C1/SD-CG/FIRE-CG
REM
REM
REM
REM
REM
REM ./C.cell (11c1c37f851c82e70ff6c80c92926a4b)
REM AIRSS Version 0.9.1 bugfix July 2018 build 013d7b7c2542+ Fri, 06 Jul 2018 19:26:36 +0100
REM compiler GCC version 9.2.1 20190827 (Red Hat 9.2.1-1)
REM options -cpp -mtune=generic -march=x86-64 -g -O0 -fpre-include=/usr/include/finclude/math-vector-fortran.h
REM seed -804660537 1993559578 -1813513288 732251093 -2037210794 -2025536214 295976325 1152808142 -1583592699 -1787478549 530946177 -964087713 -796802621 -175322156 528217478 -350516777 1878382987 -1921177597 839874436 -2029655667 -1579268387 1420427424 -2124208367 -774359730 387519378 1173024363 654794230 -159023995 926912761 -1977911377 -363799127 -1959647797 -427638922
REM
CELL 1.54180   50.00000   50.00000   50.00000   90.00000   90.00000   90.00000
LATT -1
SFAC C  
C      1  0.4408740000000  0.5874800000000  0.5254630000000 1.0
C      1  0.4472750000000  0.4758660000000  0.5733470000000 1.0
C      1  0.4360930000000  0.3822090000000  0.5057410000000 1.0
C      1  0.4021270000000  0.4262180000000  0.4682040000000 1.0
C      1  0.3787830000000  0.4151390000000  0.5276890000000 1.0
C      1  0.5250180000000  0.6278700000000  0.5231100000000 1.0
C      1  0.5477260000000  0.3870230000000  0.5549420000000 1.0
C      1  0.5372350000000  0.5698500000000  0.5255140000000 1.0
C      1  0.3912850000000  0.4613030000000  0.4363740000000 1.0
C      1  0.4891510000000  0.5115760000000  0.6116720000000 1.0
C      1  0.5488960000000  0.3794710000000  0.5291860000000 1.0
C      1  0.6040830000000  0.5438310000000  0.4392680000000 1.0
C      1  0.5689040000000  0.4367730000000  0.5956420000000 1.0
C      1  0.4157140000000  0.5271070000000  0.5579760000000 1.0
C      1  0.5261230000000  0.6029620000000  0.4894240000000 1.0
C      1  0.3940460000000  0.4374010000000  0.5216370000000 1.0
C      1  0.5560160000000  0.4518950000000  0.5070770000000 1.0
C      1  0.4293480000000  0.4164360000000  0.4603470000000 1.0
C      1  0.5433650000000  0.5305510000000  0.4714370000000 1.0
C      1  0.4900590000000  0.4932230000000  0.6343600000000 1.0
C      1  0.4946070000000  0.5250470000000  0.4822600000000 1.0
C      1  0.4966090000000  0.4255190000000  0.4290550000000 1.0
C      1  0.4598570000000  0.4540140000000  0.4158160000000 1.0
C      1  0.4316900000000  0.5669990000000  0.4551110000000 1.0
C      1  0.4699540000000  0.5582890000000  0.4009120000000 1.0
C      1  0.4383080000000  0.4583840000000  0.4819260000000 1.0
C      1  0.4549040000000  0.5449240000000  0.4979690000000 1.0
C      1  0.6036240000000  0.5115420000000  0.5069160000000 1.0
C      1  0.5188100000000  0.5416240000000  0.4152560000000 1.0
C      1  0.5172210000000  0.5203790000000  0.4639050000000 1.0
C      1  0.5916490000000  0.5721770000000  0.5498490000000 1.0
C      1  0.4033990000000  0.4947440000000  0.5045390000000 1.0
C      1  0.5332410000000  0.5650770000000  0.4251190000000 1.0
C      1  0.5000340000000  0.4336290000000  0.5037310000000 1.0
C      1  0.4994180000000  0.5984160000000  0.4508510000000 1.0
C      1  0.5644840000000  0.4759260000000  0.4936310000000 1.0
C      1  0.6500330000000  0.4432570000000  0.4825250000000 1.0
C      1  0.4301690000000  0.5867070000000  0.4979680000000 1.0
C      1  0.5481080000000  0.4876440000000  0.4049920000000 1.0
C      1  0.5036250000000  0.4616970000000  0.3960740000000 1.0
C      1  0.5581680000000  0.5115540000000  0.5206010000000 1.0
C      1  0.4177530000000  0.5655990000000  0.4809160000000 1.0
C      1  0.4989320000000  0.6105630000000  0.4784350000000 1.0
C      1  0.5931430000000  0.5906340000000  0.5688010000000 1.0
C      1  0.5420440000000  0.5054740000000  0.6110650000000 1.0
C      1  0.4489290000000  0.6020750000000  0.4807100000000 1.0
C      1  0.5336400000000  0.5110230000000  0.4173390000000 1.0
C      1  0.5069240000000  0.6214610000000  0.5410390000000 1.0
C      1  0.4848180000000  0.3860970000000  0.4883160000000 1.0
C      1  0.4794920000000  0.5505100000000  0.4844290000000 1.0
C      1  0.4479450000000  0.5040820000000  0.5261990000000 1.0
C      1  0.4441970000000  0.5560200000000  0.4102530000000 1.0
C      1  0.4858400000000  0.3864130000000  0.4603150000000 1.0
C      1  0.4851930000000  0.4423840000000  0.4072950000000 1.0
C      1  0.4789320000000  0.5926560000000  0.5708030000000 1.0
C      1  0.4543160000000  0.5027160000000  0.4652910000000 1.0
C      1  0.3878740000000  0.4795510000000  0.4582460000000 1.0
C      1  0.5248520000000  0.4313390000000  0.6130850000000 1.0
C      1  0.5136860000000  0.4931070000000  0.5745730000000 1.0
C      1  0.5719850000000  0.4982650000000  0.4547110000000 1.0
C      1  0.4623640000000  0.4613620000000  0.4431020000000 1.0
C      1  0.5142080000000  0.4556480000000  0.5430020000000 1.0
C      1  0.4769780000000  0.4037050000000  0.4392280000000 1.0
C      1  0.5527060000000  0.4801640000000  0.4674630000000 1.0
C      1  0.4378840000000  0.5463500000000  0.4368640000000 1.0
C      1  0.3977880000000  0.5229760000000  0.5090930000000 1.0
C      1  0.5386170000000  0.3856320000000  0.5033180000000 1.0
C      1  0.4495620000000  0.5902400000000  0.4546280000000 1.0
C      1  0.5644970000000  0.5293880000000  0.5459970000000 1.0
C      1  0.4066560000000  0.4509130000000  0.5443900000000 1.0
C      1  0.3954720000000  0.4447230000000  0.4930090000000 1.0
C      1  0.5160190000000  0.4983130000000  0.4411350000000 1.0
C      1  0.4027620000000  0.5428900000000  0.4889850000000 1.0
C      1  0.6283620000000  0.4532280000000  0.4720310000000 1.0
C      1  0.5037980000000  0.5240220000000  0.5112030000000 1.0
C      1  0.4092600000000  0.4642950000000  0.4146810000000 1.0
C      1  0.5714340000000  0.5837730000000  0.4720510000000 1.0
C      1  0.5909660000000  0.6068580000000  0.5890920000000 1.0
C      1  0.5765940000000  0.5420310000000  0.4331070000000 1.0
C      1  0.6059380000000  0.5157390000000  0.5584910000000 1.0
C      1  0.6083370000000  0.5435160000000  0.4678680000000 1.0
C      1  0.4692680000000  0.4870680000000  0.5329460000000 1.0
C      1  0.4758830000000  0.5013720000000  0.4828460000000 1.0
C      1  0.5270840000000  0.4714800000000  0.4534680000000 1.0
C      1  0.4003730000000  0.5633290000000  0.5370940000000 1.0
C      1  0.4276920000000  0.5714020000000  0.5453720000000 1.0
C      1  0.5257110000000  0.5559850000000  0.5487140000000 1.0
C      1  0.5000230000000  0.4701230000000  0.5645680000000 1.0
C      1  0.4663930000000  0.6025980000000  0.5239100000000 1.0
C      1  0.4278260000000  0.4859590000000  0.5170510000000 1.0
C      1  0.5149890000000  0.5070580000000  0.5988440000000 1.0
C      1  0.5796990000000  0.4953990000000  0.5082630000000 1.0
C      1  0.5322300000000  0.4619430000000  0.3998290000000 1.0
C      1  0.5382360000000  0.4905350000000  0.6353320000000 1.0
C      1  0.4339960000000  0.4583330000000  0.4054450000000 1.0
C      1  0.4882470000000  0.4817910000000  0.5107700000000 1.0
C      1  0.3981080000000  0.5341940000000  0.5357840000000 1.0
C      1  0.4719460000000  0.4747990000000  0.5583440000000 1.0
C      1  0.5397260000000  0.5331250000000  0.5582780000000 1.0
C      1  0.4726770000000  0.4413210000000  0.4615420000000 1.0
C      1  0.5255470000000  0.5856570000000  0.4447290000000 1.0
C      1  0.5194360000000  0.5813250000000  0.5069910000000 1.0
C      1  0.5993530000000  0.4930530000000  0.4625620000000 1.0
C      1  0.5632910000000  0.4316160000000  0.4858720000000 1.0
C      1  0.4511420000000  0.4266770000000  0.5194240000000 1.0
C      1  0.6100400000000  0.5161080000000  0.4791330000000 1.0
C      1  0.4612450000000  0.4144520000000  0.5705840000000 1.0
C      1  0.5425540000000  0.4019900000000  0.5765360000000 1.0
C      1  0.5451140000000  0.4229730000000  0.5952220000000 1.0
C      1  0.5536740000000  0.4049570000000  0.4880700000000 1.0
C      1  0.4735700000000  0.5940050000000  0.4402880000000 1.0
C      1  0.5139480000000  0.4492720000000  0.6298770000000 1.0
C      1  0.4536610000000  0.5231230000000  0.4444540000000 1.0
C      1  0.4835120000000  0.6066870000000  0.5464510000000 1.0
C      1  0.4445700000000  0.4770710000000  0.4603400000000 1.0
C      1  0.5289970000000  0.5065060000000  0.5561030000000 1.0
C      1  0.4918490000000  0.4873900000000  0.3980020000000 1.0
C      1  0.5692220000000  0.4502160000000  0.4308220000000 1.0
C      1  0.4720510000000  0.5707370000000  0.5852040000000 1.0
C      1  0.4647200000000  0.5203020000000  0.5971230000000 1.0
C      1  0.5528270000000  0.5338640000000  0.4985140000000 1.0
C      1  0.3922180000000  0.4743980000000  0.4863450000000 1.0
C      1  0.4980110000000  0.4555540000000  0.5191450000000 1.0
C      1  0.5368480000000  0.4933980000000  0.5302030000000 1.0
C      1  0.5050980000000  0.4106970000000  0.5183870000000 1.0
C      1  0.3869590000000  0.4344290000000  0.4451460000000 1.0
C      1  0.4237020000000  0.4623990000000  0.5627150000000 1.0
C      1  0.5896910000000  0.5103530000000  0.5805650000000 1.0
C      1  0.4904890000000  0.4971680000000  0.4251260000000 1.0
C      1  0.4471490000000  0.4979480000000  0.5913420000000 1.0
C      1  0.5677110000000  0.5085800000000  0.5973610000000 1.0
C      1  0.4950630000000  0.4365570000000  0.4768170000000 1.0
C      1  0.5126000000000  0.4978550000000  0.5147780000000 1.0
C      1  0.5829060000000  0.5493750000000  0.5336720000000 1.0
C      1  0.5429810000000  0.4423520000000  0.4204100000000 1.0
C      1  0.4575120000000  0.5305200000000  0.5223500000000 1.0
C      1  0.4572930000000  0.5462430000000  0.5837270000000 1.0
C      1  0.4467030000000  0.4045730000000  0.4392660000000 1.0
C      1  0.5732970000000  0.4758680000000  0.4155960000000 1.0
C      1  0.4734630000000  0.6098400000000  0.4949490000000 1.0
C      1  0.4564520000000  0.4005530000000  0.5046110000000 1.0
C      1  0.5094980000000  0.3873380000000  0.5030300000000 1.0
C      1  0.4961280000000  0.5690100000000  0.4974670000000 1.0
C      1  0.6063140000000  0.5285210000000  0.5307340000000 1.0
C      1  0.5132580000000  0.4762620000000  0.6383510000000 1.0
C      1  0.5611810000000  0.5619040000000  0.4208340000000 1.0
C      1  0.4767090000000  0.5212030000000  0.4278000000000 1.0
C      1  0.5613100000000  0.5584570000000  0.5132630000000 1.0
C      1  0.5407900000000  0.4625890000000  0.5313820000000 1.0
C      1  0.4852890000000  0.5350490000000  0.5305510000000 1.0
C      1  0.4555940000000  0.4241590000000  0.5470270000000 1.0
C      1  0.4352460000000  0.5483670000000  0.5646530000000 1.0
C      1  0.4379040000000  0.4594170000000  0.5095480000000 1.0
C      1  0.5631180000000  0.5247170000000  0.4515930000000 1.0
C      1  0.4479780000000  0.4332690000000  0.4733890000000 1.0
C      1  0.5443600000000  0.5930230000000  0.4675510000000 1.0
C      1  0.6037410000000  0.4638620000000  0.4642310000000 1.0
C      1  0.4898600000000  0.5424430000000  0.4134400000000 1.0
C      1  0.4977140000000  0.5522790000000  0.5485800000000 1.0
C      1  0.4821710000000  0.5003430000000  0.3760280000000 1.0
C      1  0.5804680000000  0.4456840000000  0.4582290000000 1.0
C      1  0.5209000000000  0.4428320000000  0.4401860000000 1.0
C      1  0.5931610000000  0.5673490000000  0.4769400000000 1.0
END
