TITL C-3866672-3872-138 -0.0329001401694141 125000 -836.121710785902 0 0 139 (C1) n - 1
REM
REM in /home/nfs/bkarasulu/CARBON/AIRSS/Generating-Clusters/LCBOP/Only-C1/SD-CG/HFTN-CG/FIRE-CG
REM
REM
REM
REM
REM
REM ./C.cell (11c1c37f851c82e70ff6c80c92926a4b)
REM AIRSS Version 0.9.1 bugfix July 2018 build 013d7b7c2542+ Fri, 06 Jul 2018 19:26:36 +0100
REM compiler GCC version 9.2.1 20190827 (Red Hat 9.2.1-1)
REM options -cpp -mtune=generic -march=x86-64 -g -O0 -fpre-include=/usr/include/finclude/math-vector-fortran.h
REM seed -189399155 -2020974787 443805531 -1701387676 -2003378191 -1433926529 -420095344 -348309019 -1539528007 1219010213 1634452538 -2090519427 -1750776776 -1738842291 1635175308 1765379047 1727622036 -632842964 1122942218 1908218238 176589554 -1610307965 -586680051 751373813 372782334 1939605053 -782583437 1809782979 -552373049 1620357880 -1259753572 980235440 -2002560405
REM
CELL 1.54180   50.00000   50.00000   50.00000   90.00000   90.00000   90.00000
LATT -1
SFAC C  
C      1  0.4404110000000  0.5883000000000  0.5434560000000 1.0
C      1  0.6030250000000  0.5545940000000  0.4339210000000 1.0
C      1  0.5538120000000  0.5450930000000  0.5259520000000 1.0
C      1  0.5259550000000  0.5044630000000  0.3934460000000 1.0
C      1  0.5255120000000  0.4203880000000  0.5815020000000 1.0
C      1  0.4897840000000  0.5433480000000  0.3947270000000 1.0
C      1  0.4742920000000  0.4706980000000  0.5970460000000 1.0
C      1  0.4049270000000  0.5479910000000  0.4336430000000 1.0
C      1  0.4653610000000  0.4661110000000  0.5351020000000 1.0
C      1  0.5269230000000  0.4839200000000  0.4856550000000 1.0
C      1  0.5544590000000  0.4483580000000  0.5326470000000 1.0
C      1  0.4498540000000  0.5105360000000  0.4309280000000 1.0
C      1  0.5630650000000  0.4013980000000  0.4794720000000 1.0
C      1  0.4757450000000  0.3968480000000  0.5804670000000 1.0
C      1  0.3903170000000  0.5966630000000  0.4379240000000 1.0
C      1  0.5137180000000  0.4023990000000  0.4886540000000 1.0
C      1  0.5304860000000  0.4174830000000  0.4444030000000 1.0
C      1  0.4628330000000  0.4218640000000  0.5848530000000 1.0
C      1  0.6499630000000  0.4778960000000  0.5395340000000 1.0
C      1  0.4348240000000  0.4883510000000  0.4398050000000 1.0
C      1  0.5146670000000  0.5927640000000  0.5475640000000 1.0
C      1  0.5887600000000  0.3949250000000  0.4858340000000 1.0
C      1  0.4632610000000  0.4280870000000  0.5085810000000 1.0
C      1  0.5580420000000  0.3666740000000  0.5642710000000 1.0
C      1  0.4564910000000  0.4087630000000  0.5285850000000 1.0
C      1  0.5263840000000  0.4217530000000  0.4171710000000 1.0
C      1  0.4309800000000  0.5531810000000  0.4225700000000 1.0
C      1  0.4444730000000  0.5516390000000  0.5120220000000 1.0
C      1  0.4755540000000  0.5711230000000  0.4360340000000 1.0
C      1  0.4482530000000  0.5437910000000  0.5836260000000 1.0
C      1  0.3574130000000  0.5015030000000  0.5296930000000 1.0
C      1  0.4137480000000  0.4324220000000  0.5291520000000 1.0
C      1  0.5465910000000  0.5436220000000  0.4983060000000 1.0
C      1  0.4956440000000  0.5600170000000  0.4179470000000 1.0
C      1  0.4113170000000  0.5027850000000  0.5294410000000 1.0
C      1  0.5354800000000  0.5758890000000  0.5561620000000 1.0
C      1  0.5204310000000  0.6289630000000  0.5157510000000 1.0
C      1  0.4404520000000  0.5615560000000  0.5380290000000 1.0
C      1  0.5764050000000  0.4699450000000  0.6100750000000 1.0
C      1  0.4629050000000  0.5355670000000  0.3910640000000 1.0
C      1  0.3880310000000  0.5699370000000  0.4379470000000 1.0
C      1  0.4271730000000  0.4915600000000  0.5081360000000 1.0
C      1  0.5077370000000  0.5097660000000  0.5236510000000 1.0
C      1  0.4846210000000  0.4302050000000  0.4524680000000 1.0
C      1  0.5757160000000  0.5889160000000  0.5308150000000 1.0
C      1  0.6406760000000  0.5016310000000  0.4427000000000 1.0
C      1  0.4442480000000  0.5304310000000  0.4114680000000 1.0
C      1  0.6007490000000  0.4955580000000  0.5449290000000 1.0
C      1  0.5489300000000  0.4324230000000  0.5932770000000 1.0
C      1  0.4807690000000  0.3929740000000  0.5321320000000 1.0
C      1  0.4358830000000  0.5420220000000  0.5583650000000 1.0
C      1  0.5412160000000  0.3979130000000  0.4972600000000 1.0
C      1  0.5370620000000  0.4784780000000  0.5812150000000 1.0
C      1  0.5454940000000  0.4840070000000  0.4386400000000 1.0
C      1  0.5295160000000  0.5646380000000  0.6035840000000 1.0
C      1  0.3986280000000  0.5213500000000  0.4409110000000 1.0
C      1  0.5069560000000  0.4484760000000  0.5203660000000 1.0
C      1  0.5559320000000  0.5712890000000  0.5369010000000 1.0
C      1  0.4803600000000  0.4441730000000  0.5887540000000 1.0
C      1  0.4792240000000  0.5631790000000  0.4641170000000 1.0
C      1  0.4928660000000  0.4849990000000  0.6131680000000 1.0
C      1  0.5162340000000  0.5254840000000  0.4434820000000 1.0
C      1  0.4119000000000  0.6142820000000  0.4336840000000 1.0
C      1  0.5400740000000  0.5285040000000  0.5709140000000 1.0
C      1  0.5294870000000  0.5060380000000  0.5867970000000 1.0
C      1  0.5900660000000  0.6025450000000  0.4559930000000 1.0
C      1  0.4764830000000  0.4917440000000  0.4943450000000 1.0
C      1  0.6399420000000  0.5284080000000  0.4821380000000 1.0
C      1  0.4675030000000  0.5393430000000  0.6017110000000 1.0
C      1  0.5250540000000  0.4767150000000  0.4579040000000 1.0
C      1  0.4729020000000  0.5049740000000  0.5608390000000 1.0
C      1  0.5042580000000  0.4950830000000  0.4998290000000 1.0
C      1  0.5515600000000  0.4825070000000  0.4975130000000 1.0
C      1  0.5208420000000  0.3975920000000  0.5644850000000 1.0
C      1  0.4383060000000  0.4238320000000  0.5710190000000 1.0
C      1  0.5686550000000  0.4970650000000  0.4478920000000 1.0
C      1  0.4920170000000  0.5142770000000  0.5448030000000 1.0
C      1  0.5418640000000  0.3842380000000  0.5509690000000 1.0
C      1  0.6065350000000  0.5521040000000  0.4068960000000 1.0
C      1  0.6036630000000  0.5315320000000  0.4505690000000 1.0
C      1  0.5099340000000  0.5249490000000  0.3865470000000 1.0
C      1  0.3979250000000  0.4813380000000  0.4704020000000 1.0
C      1  0.4670480000000  0.4123460000000  0.4393610000000 1.0
C      1  0.5224780000000  0.5551360000000  0.4885440000000 1.0
C      1  0.5765480000000  0.5063250000000  0.5455320000000 1.0
C      1  0.4952370000000  0.3910500000000  0.5073590000000 1.0
C      1  0.5774140000000  0.6222440000000  0.4685060000000 1.0
C      1  0.4988950000000  0.5705610000000  0.4838890000000 1.0
C      1  0.4475850000000  0.4313340000000  0.4861200000000 1.0
C      1  0.4518270000000  0.3958620000000  0.4261080000000 1.0
C      1  0.5551240000000  0.4607820000000  0.5956360000000 1.0
C      1  0.4363130000000  0.4542880000000  0.4749880000000 1.0
C      1  0.5559360000000  0.4117080000000  0.4544680000000 1.0
C      1  0.3834330000000  0.5001330000000  0.5289860000000 1.0
C      1  0.5603490000000  0.6356340000000  0.4838390000000 1.0
C      1  0.5183310000000  0.5498370000000  0.4318980000000 1.0
C      1  0.5650770000000  0.5330430000000  0.4801230000000 1.0
C      1  0.5068360000000  0.5086980000000  0.6054380000000 1.0
C      1  0.4981830000000  0.4789380000000  0.4482050000000 1.0
C      1  0.5064110000000  0.4417400000000  0.5778030000000 1.0
C      1  0.6285320000000  0.5203500000000  0.4585780000000 1.0
C      1  0.4934950000000  0.5335480000000  0.6110600000000 1.0
C      1  0.5380310000000  0.4886590000000  0.4115500000000 1.0
C      1  0.4481470000000  0.5760450000000  0.4280860000000 1.0
C      1  0.4945720000000  0.5073380000000  0.4458920000000 1.0
C      1  0.4791130000000  0.4487070000000  0.5192580000000 1.0
C      1  0.4619120000000  0.4876370000000  0.5781850000000 1.0
C      1  0.5126590000000  0.4338820000000  0.3679360000000 1.0
C      1  0.4493430000000  0.4664680000000  0.4525050000000 1.0
C      1  0.4693920000000  0.5185590000000  0.4495480000000 1.0
C      1  0.5984630000000  0.5797190000000  0.4454040000000 1.0
C      1  0.5201670000000  0.4629760000000  0.5639020000000 1.0
C      1  0.5401310000000  0.6388430000000  0.5008030000000 1.0
C      1  0.5456090000000  0.3893570000000  0.5236480000000 1.0
C      1  0.4517630000000  0.5323530000000  0.4931970000000 1.0
C      1  0.4513440000000  0.5043090000000  0.4991500000000 1.0
C      1  0.4366210000000  0.6016040000000  0.4290400000000 1.0
C      1  0.4653030000000  0.5387130000000  0.4692690000000 1.0
C      1  0.5071370000000  0.6054530000000  0.5234170000000 1.0
C      1  0.5793770000000  0.5201380000000  0.4597730000000 1.0
C      1  0.3737590000000  0.4440110000000  0.5049690000000 1.0
C      1  0.4930790000000  0.3918080000000  0.5584250000000 1.0
C      1  0.4080150000000  0.4956320000000  0.4481640000000 1.0
C      1  0.4152010000000  0.4684020000000  0.4917910000000 1.0
C      1  0.5353020000000  0.5566840000000  0.5773400000000 1.0
C      1  0.5791370000000  0.4399320000000  0.5326110000000 1.0
C      1  0.4063390000000  0.6678290000000  0.4344090000000 1.0
C      1  0.4005760000000  0.4481600000000  0.5094190000000 1.0
C      1  0.5278910000000  0.4553860000000  0.5376020000000 1.0
C      1  0.4778870000000  0.4587800000000  0.4496370000000 1.0
C      1  0.5086230000000  0.4176440000000  0.4634560000000 1.0
C      1  0.4223270000000  0.5188950000000  0.5496970000000 1.0
C      1  0.4337320000000  0.4182990000000  0.5436390000000 1.0
C      1  0.4090270000000  0.6419090000000  0.4340590000000 1.0
C      1  0.6256400000000  0.4867350000000  0.5426750000000 1.0
C      1  0.4943690000000  0.5908270000000  0.5029460000000 1.0
C      1  0.5199640000000  0.4272010000000  0.3920510000000 1.0
C      1  0.5100180000000  0.5547930000000  0.6191960000000 1.0
C      1  0.5554690000000  0.5246020000000  0.5463600000000 1.0
END
