TITL C-3866671-3735-226 -8.1860037601994e-07 125000 -1046.68090822746 0 0 170 (C1) n - 1
REM
REM in /home/nfs/bkarasulu/CARBON/AIRSS/Generating-Clusters/LCBOP/Only-C1/SD-CG/HFTN-CG/FIRE-CG
REM
REM
REM
REM
REM
REM ./C.cell (11c1c37f851c82e70ff6c80c92926a4b)
REM AIRSS Version 0.9.1 bugfix July 2018 build 013d7b7c2542+ Fri, 06 Jul 2018 19:26:36 +0100
REM compiler GCC version 9.2.1 20190827 (Red Hat 9.2.1-1)
REM options -cpp -mtune=generic -march=x86-64 -g -O0 -fpre-include=/usr/include/finclude/math-vector-fortran.h
REM seed -657266144 -1355989038 -186400491 222864091 527538575 2094142583 1804839301 1957242192 -1598261510 857639325 1464628998 -1961815114 -2141966803 1973459110 603785813 -1249251561 487810989 -52284755 1430213784 1495795383 1377662600 2132348048 1605393073 1633551101 -937681768 1063634348 2089357394 1251866558 -1687376738 -414737257 1358268729 634390683 -814765933
REM
CELL 1.54180   50.00000   50.00000   50.00000   90.00000   90.00000   90.00000
LATT -1
SFAC C  
C      1  0.4212370000000  0.5597080000000  0.5506520000000 1.0
C      1  0.4749340000000  0.4929970000000  0.4063070000000 1.0
C      1  0.4961750000000  0.3793490000000  0.4986520000000 1.0
C      1  0.5169160000000  0.5411650000000  0.3975590000000 1.0
C      1  0.5910670000000  0.4961430000000  0.4565810000000 1.0
C      1  0.4057120000000  0.4598590000000  0.5561540000000 1.0
C      1  0.4529440000000  0.5711930000000  0.4716280000000 1.0
C      1  0.4520150000000  0.4032890000000  0.5145430000000 1.0
C      1  0.5032360000000  0.4577210000000  0.5283820000000 1.0
C      1  0.5754850000000  0.5138340000000  0.4743700000000 1.0
C      1  0.4753280000000  0.4745940000000  0.5625730000000 1.0
C      1  0.3993450000000  0.4418610000000  0.5344180000000 1.0
C      1  0.5337890000000  0.4902140000000  0.5409610000000 1.0
C      1  0.4912310000000  0.5568890000000  0.5922300000000 1.0
C      1  0.4539430000000  0.6205360000000  0.5243180000000 1.0
C      1  0.4723160000000  0.3721250000000  0.4871720000000 1.0
C      1  0.5513200000000  0.4791590000000  0.3966220000000 1.0
C      1  0.4860850000000  0.4461660000000  0.3965330000000 1.0
C      1  0.4605290000000  0.4609470000000  0.5170540000000 1.0
C      1  0.5166240000000  0.6110640000000  0.5231040000000 1.0
C      1  0.5325950000000  0.5887990000000  0.5135970000000 1.0
C      1  0.4781760000000  0.5566550000000  0.4734820000000 1.0
C      1  0.5010790000000  0.4648760000000  0.5567020000000 1.0
C      1  0.4853010000000  0.5216500000000  0.5249570000000 1.0
C      1  0.5039310000000  0.5642410000000  0.4126270000000 1.0
C      1  0.4591640000000  0.6241470000000  0.4978400000000 1.0
C      1  0.4070000000000  0.4874830000000  0.5427780000000 1.0
C      1  0.5549770000000  0.5824040000000  0.5314260000000 1.0
C      1  0.4082980000000  0.4380330000000  0.4849650000000 1.0
C      1  0.4960030000000  0.4168780000000  0.5727820000000 1.0
C      1  0.4477520000000  0.3849710000000  0.4936150000000 1.0
C      1  0.6175630000000  0.4557210000000  0.4642650000000 1.0
C      1  0.4649570000000  0.4466070000000  0.5978380000000 1.0
C      1  0.4166840000000  0.5555950000000  0.4461750000000 1.0
C      1  0.5618030000000  0.4099020000000  0.4494550000000 1.0
C      1  0.4353630000000  0.4946710000000  0.5368570000000 1.0
C      1  0.4802230000000  0.5177030000000  0.6244750000000 1.0
C      1  0.4628040000000  0.5444880000000  0.5884280000000 1.0
C      1  0.4691440000000  0.6126210000000  0.5475200000000 1.0
C      1  0.5642840000000  0.4709250000000  0.5038640000000 1.0
C      1  0.4610550000000  0.4798920000000  0.4958590000000 1.0
C      1  0.6099480000000  0.4811140000000  0.4744730000000 1.0
C      1  0.5922850000000  0.5467050000000  0.5198790000000 1.0
C      1  0.5089210000000  0.4918780000000  0.4929450000000 1.0
C      1  0.5911250000000  0.4642490000000  0.5431670000000 1.0
C      1  0.5209800000000  0.5785510000000  0.4322730000000 1.0
C      1  0.5594600000000  0.5040490000000  0.4074160000000 1.0
C      1  0.4995700000000  0.5746510000000  0.5442890000000 1.0
C      1  0.3984820000000  0.4538350000000  0.5075580000000 1.0
C      1  0.5870230000000  0.4225930000000  0.4429630000000 1.0
C      1  0.4407080000000  0.5213160000000  0.4744800000000 1.0
C      1  0.5089240000000  0.4429440000000  0.4604310000000 1.0
C      1  0.4597630000000  0.5196160000000  0.6042470000000 1.0
C      1  0.4718320000000  0.4654070000000  0.4125480000000 1.0
C      1  0.5213870000000  0.5160290000000  0.4841670000000 1.0
C      1  0.5717690000000  0.5895900000000  0.4738100000000 1.0
C      1  0.5105550000000  0.4542750000000  0.3849650000000 1.0
C      1  0.5818330000000  0.4990250000000  0.5756340000000 1.0
C      1  0.5441400000000  0.5308600000000  0.4036900000000 1.0
C      1  0.5014250000000  0.3996630000000  0.5179510000000 1.0
C      1  0.4178340000000  0.5094540000000  0.4274800000000 1.0
C      1  0.4577900000000  0.5603870000000  0.5226600000000 1.0
C      1  0.4282590000000  0.5514680000000  0.4742060000000 1.0
C      1  0.4828640000000  0.5086600000000  0.4283090000000 1.0
C      1  0.4750240000000  0.5718460000000  0.4133060000000 1.0
C      1  0.5817530000000  0.4070540000000  0.4960280000000 1.0
C      1  0.5601840000000  0.5497010000000  0.4188130000000 1.0
C      1  0.5220690000000  0.5624670000000  0.5546800000000 1.0
C      1  0.6150520000000  0.4867200000000  0.5048110000000 1.0
C      1  0.4887320000000  0.4295910000000  0.5980650000000 1.0
C      1  0.6071640000000  0.4134480000000  0.4850160000000 1.0
C      1  0.3951740000000  0.4832600000000  0.5137410000000 1.0
C      1  0.5500610000000  0.4577230000000  0.5718540000000 1.0
C      1  0.4656520000000  0.5929600000000  0.4306840000000 1.0
C      1  0.4561410000000  0.5958910000000  0.4575980000000 1.0
C      1  0.4443440000000  0.5652930000000  0.5710340000000 1.0
C      1  0.5384910000000  0.4163950000000  0.4336930000000 1.0
C      1  0.5752360000000  0.4708240000000  0.5670610000000 1.0
C      1  0.5226560000000  0.5395160000000  0.4997120000000 1.0
C      1  0.5030470000000  0.4254630000000  0.6210130000000 1.0
C      1  0.5467170000000  0.5388580000000  0.5935350000000 1.0
C      1  0.3891570000000  0.5099300000000  0.5039090000000 1.0
C      1  0.4855030000000  0.5851690000000  0.5870980000000 1.0
C      1  0.3965550000000  0.5360220000000  0.5140340000000 1.0
C      1  0.4262550000000  0.5035960000000  0.4534720000000 1.0
C      1  0.4157270000000  0.5130070000000  0.3765650000000 1.0
C      1  0.5368260000000  0.4549550000000  0.3954050000000 1.0
C      1  0.5816450000000  0.5063940000000  0.4287390000000 1.0
C      1  0.4467920000000  0.4146980000000  0.5682470000000 1.0
C      1  0.5102360000000  0.5320760000000  0.5235630000000 1.0
C      1  0.4143430000000  0.5550470000000  0.5012090000000 1.0
C      1  0.4223170000000  0.3881300000000  0.4820590000000 1.0
C      1  0.4247730000000  0.4497140000000  0.4644190000000 1.0
C      1  0.4619510000000  0.5340910000000  0.5312130000000 1.0
C      1  0.4470530000000  0.5502000000000  0.3773220000000 1.0
C      1  0.5112110000000  0.4194200000000  0.4442610000000 1.0
C      1  0.6269050000000  0.5231900000000  0.5635520000000 1.0
C      1  0.5712770000000  0.4243040000000  0.5161050000000 1.0
C      1  0.4695880000000  0.6168110000000  0.4725480000000 1.0
C      1  0.4678450000000  0.4739890000000  0.5896380000000 1.0
C      1  0.5697940000000  0.5012430000000  0.5000460000000 1.0
C      1  0.4839340000000  0.4189940000000  0.4045450000000 1.0
C      1  0.5584100000000  0.5628220000000  0.5814690000000 1.0
C      1  0.4727830000000  0.4113440000000  0.5567230000000 1.0
C      1  0.5625900000000  0.5671800000000  0.4612170000000 1.0
C      1  0.5423600000000  0.5152490000000  0.5494020000000 1.0
C      1  0.4001290000000  0.5382970000000  0.5440230000000 1.0
C      1  0.4606910000000  0.4133880000000  0.4460070000000 1.0
C      1  0.6347410000000  0.5417470000000  0.5456730000000 1.0
C      1  0.5419020000000  0.4753940000000  0.4530510000000 1.0
C      1  0.5297300000000  0.4968910000000  0.4431160000000 1.0
C      1  0.4853150000000  0.4801180000000  0.4809080000000 1.0
C      1  0.5478260000000  0.5695360000000  0.4357800000000 1.0
C      1  0.4665730000000  0.4582860000000  0.4401800000000 1.0
C      1  0.5008440000000  0.5253890000000  0.3800750000000 1.0
C      1  0.5438550000000  0.4319310000000  0.4103040000000 1.0
C      1  0.4704460000000  0.5292750000000  0.4708050000000 1.0
C      1  0.4626410000000  0.5917690000000  0.5687010000000 1.0
C      1  0.4872230000000  0.4614260000000  0.4596360000000 1.0
C      1  0.5074190000000  0.5104880000000  0.4385420000000 1.0
C      1  0.4973130000000  0.6187750000000  0.5410340000000 1.0
C      1  0.4813210000000  0.4424400000000  0.5192240000000 1.0
C      1  0.4231000000000  0.4812170000000  0.5964530000000 1.0
C      1  0.5799830000000  0.4518900000000  0.5208050000000 1.0
C      1  0.5277120000000  0.4728860000000  0.5633790000000 1.0
C      1  0.4551060000000  0.4740560000000  0.5416990000000 1.0
C      1  0.4111800000000  0.5058650000000  0.4019390000000 1.0
C      1  0.5472970000000  0.5751530000000  0.5584000000000 1.0
C      1  0.4289300000000  0.5579570000000  0.4219470000000 1.0
C      1  0.5422270000000  0.4279830000000  0.5132140000000 1.0
C      1  0.4060830000000  0.4097860000000  0.4832860000000 1.0
C      1  0.5087030000000  0.5912690000000  0.4551990000000 1.0
C      1  0.4193780000000  0.4565760000000  0.5811860000000 1.0
C      1  0.5443550000000  0.4299400000000  0.5721130000000 1.0
C      1  0.4860650000000  0.4110880000000  0.4319120000000 1.0
C      1  0.6200270000000  0.5487000000000  0.5242530000000 1.0
C      1  0.5784920000000  0.5218000000000  0.5184190000000 1.0
C      1  0.4314290000000  0.5318120000000  0.3655560000000 1.0
C      1  0.4434070000000  0.5005020000000  0.4989930000000 1.0
C      1  0.4302380000000  0.5671090000000  0.5227010000000 1.0
C      1  0.4512390000000  0.5587360000000  0.4036580000000 1.0
C      1  0.5177860000000  0.4808310000000  0.5178160000000 1.0
C      1  0.4439810000000  0.5198100000000  0.5460640000000 1.0
C      1  0.3958010000000  0.5124870000000  0.5561590000000 1.0
C      1  0.4402330000000  0.4362250000000  0.5856000000000 1.0
C      1  0.5653750000000  0.5148070000000  0.5954170000000 1.0
C      1  0.6065740000000  0.5043400000000  0.5591560000000 1.0
C      1  0.4968920000000  0.6166630000000  0.4621930000000 1.0
C      1  0.4469130000000  0.4386410000000  0.4494530000000 1.0
C      1  0.5329710000000  0.4545360000000  0.4693890000000 1.0
C      1  0.4486790000000  0.4939700000000  0.5980170000000 1.0
C      1  0.5243780000000  0.4124320000000  0.5297860000000 1.0
C      1  0.6076830000000  0.4296610000000  0.4615070000000 1.0
C      1  0.4833040000000  0.5048160000000  0.3820110000000 1.0
C      1  0.5023490000000  0.5719070000000  0.4751380000000 1.0
C      1  0.5066000000000  0.5237360000000  0.6219480000000 1.0
C      1  0.6090160000000  0.4860950000000  0.5351500000000 1.0
C      1  0.5682670000000  0.5054870000000  0.6216680000000 1.0
C      1  0.4761390000000  0.4140420000000  0.5271130000000 1.0
C      1  0.5224340000000  0.4166150000000  0.5593080000000 1.0
C      1  0.5166440000000  0.5413990000000  0.6012430000000 1.0
C      1  0.4802630000000  0.5758340000000  0.5258310000000 1.0
C      1  0.5219780000000  0.5676470000000  0.4952500000000 1.0
C      1  0.5779760000000  0.5705630000000  0.5214000000000 1.0
C      1  0.5746690000000  0.5407040000000  0.4628840000000 1.0
C      1  0.4206110000000  0.4771540000000  0.4608450000000 1.0
C      1  0.5425170000000  0.4522100000000  0.4954350000000 1.0
C      1  0.5630160000000  0.3981380000000  0.4755980000000 1.0
C      1  0.5804760000000  0.5355820000000  0.4338700000000 1.0
C      1  0.5249670000000  0.5362140000000  0.5463170000000 1.0
END
