TITL C-3866676-3738-106 248.112653674272 125000 -1007.7660457362 0 0 165 (C1) n - 1
REM
REM in /home/nfs/bkarasulu/CARBON/AIRSS/Generating-Clusters/LCBOP/Only-C1/SD-CG/HFTN-CG/FIRE-CG
REM
REM
REM
REM
REM
REM ./C.cell (11c1c37f851c82e70ff6c80c92926a4b)
REM AIRSS Version 0.9.1 bugfix July 2018 build 013d7b7c2542+ Fri, 06 Jul 2018 19:26:36 +0100
REM compiler GCC version 9.2.1 20190827 (Red Hat 9.2.1-1)
REM options -cpp -mtune=generic -march=x86-64 -g -O0 -fpre-include=/usr/include/finclude/math-vector-fortran.h
REM seed 804363737 -529761119 288542635 -1185446096 -619659553 -2132688942 1532780779 -1904925692 993908287 1901795480 -295661393 -1308789023 -1015786533 210260090 -1767163343 -657734053 -358705922 81772383 -1094332357 1191818935 673916049 2001582942 -257042498 853974033 101508482 -681989408 -1520614566 1943072044 1085577585 -299381983 121241362 -1255588775 -390377145
REM
CELL 1.54180   50.00000   50.00000   50.00000   90.00000   90.00000   90.00000
LATT -1
SFAC C  
C      1  0.5784680000000  0.5836260000000  0.5231540000000 1.0
C      1  0.4566160000000  0.3686040000000  0.4365950000000 1.0
C      1  0.4055310000000  0.5431640000000  0.4614540000000 1.0
C      1  0.4317680000000  0.6145080000000  0.5023900000000 1.0
C      1  0.4619600000000  0.5660190000000  0.4161680000000 1.0
C      1  0.5154300000000  0.3673210000000  0.5121060000000 1.0
C      1  0.6305350000000  0.5285740000000  0.5556610000000 1.0
C      1  0.5150800000000  0.5665620000000  0.5314360000000 1.0
C      1  0.4758810000000  0.4718580000000  0.4211760000000 1.0
C      1  0.4596960000000  0.6256660000000  0.5701310000000 1.0
C      1  0.4875640000000  0.3707360000000  0.5161780000000 1.0
C      1  0.4113150000000  0.5735130000000  0.5627500000000 1.0
C      1  0.5673190000000  0.5352060000000  0.5633460000000 1.0
C      1  0.5712370000000  0.5441260000000  0.4245600000000 1.0
C      1  0.5802390000000  0.4201110000000  0.5446690000000 1.0
C      1  0.5574950000000  0.4546540000000  0.4162660000000 1.0
C      1  0.4493630000000  0.5366280000000  0.5023410000000 1.0
C      1  0.5012340000000  0.5719240000000  0.5746580000000 1.0
C      1  0.5056870000000  0.5705100000000  0.3900340000000 1.0
C      1  0.5210620000000  0.6174840000000  0.4900310000000 1.0
C      1  0.5870360000000  0.4392450000000  0.5621640000000 1.0
C      1  0.4461270000000  0.5664870000000  0.4413090000000 1.0
C      1  0.5360260000000  0.4754340000000  0.5530390000000 1.0
C      1  0.5319960000000  0.5127750000000  0.4827860000000 1.0
C      1  0.5241850000000  0.6301390000000  0.5485570000000 1.0
C      1  0.3816350000000  0.5484440000000  0.5317690000000 1.0
C      1  0.5474240000000  0.6111070000000  0.4977530000000 1.0
C      1  0.4547420000000  0.4869770000000  0.5451670000000 1.0
C      1  0.5717230000000  0.5348920000000  0.4518220000000 1.0
C      1  0.5390140000000  0.4341480000000  0.4186760000000 1.0
C      1  0.4779770000000  0.3817980000000  0.5406180000000 1.0
C      1  0.4722740000000  0.6117050000000  0.5892000000000 1.0
C      1  0.4895350000000  0.5456660000000  0.5695910000000 1.0
C      1  0.4007710000000  0.3869890000000  0.4820940000000 1.0
C      1  0.4751910000000  0.6321070000000  0.4968710000000 1.0
C      1  0.4639710000000  0.5822220000000  0.5239770000000 1.0
C      1  0.5351960000000  0.6066900000000  0.4284380000000 1.0
C      1  0.4573330000000  0.4086070000000  0.3682420000000 1.0
C      1  0.5124700000000  0.5336380000000  0.4361920000000 1.0
C      1  0.4666320000000  0.4680730000000  0.4481800000000 1.0
C      1  0.5206250000000  0.4898050000000  0.4100290000000 1.0
C      1  0.4399210000000  0.3527080000000  0.5522090000000 1.0
C      1  0.5577690000000  0.4941660000000  0.4399560000000 1.0
C      1  0.5198030000000  0.6278310000000  0.4222440000000 1.0
C      1  0.4383490000000  0.4915960000000  0.4914340000000 1.0
C      1  0.5040910000000  0.4266320000000  0.4529770000000 1.0
C      1  0.4918730000000  0.4034510000000  0.5499450000000 1.0
C      1  0.5453340000000  0.5469200000000  0.6087740000000 1.0
C      1  0.4851280000000  0.5902840000000  0.4701280000000 1.0
C      1  0.5942480000000  0.4950420000000  0.4710060000000 1.0
C      1  0.4626990000000  0.5493840000000  0.4811180000000 1.0
C      1  0.4715040000000  0.4414670000000  0.4884680000000 1.0
C      1  0.4443180000000  0.4795750000000  0.5180290000000 1.0
C      1  0.6123790000000  0.5091990000000  0.5612610000000 1.0
C      1  0.5530190000000  0.4026590000000  0.5063700000000 1.0
C      1  0.5124770000000  0.4294910000000  0.4234590000000 1.0
C      1  0.4811440000000  0.3783560000000  0.4409410000000 1.0
C      1  0.4329780000000  0.3714090000000  0.4490250000000 1.0
C      1  0.5709470000000  0.4993310000000  0.5111240000000 1.0
C      1  0.5779870000000  0.5262790000000  0.5174280000000 1.0
C      1  0.4606140000000  0.5744990000000  0.4663540000000 1.0
C      1  0.4479440000000  0.4884030000000  0.4620950000000 1.0
C      1  0.5755440000000  0.4866460000000  0.5774660000000 1.0
C      1  0.4481870000000  0.6309510000000  0.4882390000000 1.0
C      1  0.5097400000000  0.5125020000000  0.6105940000000 1.0
C      1  0.3952240000000  0.5294280000000  0.5746960000000 1.0
C      1  0.5310370000000  0.4291210000000  0.4700970000000 1.0
C      1  0.5581840000000  0.5496780000000  0.5854820000000 1.0
C      1  0.6170600000000  0.4806060000000  0.5612210000000 1.0
C      1  0.5566860000000  0.5500280000000  0.4017230000000 1.0
C      1  0.4701840000000  0.5385890000000  0.4162220000000 1.0
C      1  0.4864960000000  0.4246580000000  0.5737380000000 1.0
C      1  0.5365690000000  0.6047600000000  0.5468620000000 1.0
C      1  0.3928180000000  0.5519550000000  0.5571730000000 1.0
C      1  0.5143800000000  0.4361700000000  0.5701000000000 1.0
C      1  0.5330320000000  0.5789250000000  0.4257450000000 1.0
C      1  0.5076900000000  0.5741540000000  0.4641630000000 1.0
C      1  0.4621960000000  0.5346860000000  0.5690930000000 1.0
C      1  0.5184350000000  0.4206220000000  0.5443760000000 1.0
C      1  0.4783960000000  0.6370030000000  0.5252910000000 1.0
C      1  0.4395570000000  0.5126500000000  0.4460240000000 1.0
C      1  0.5772030000000  0.4139290000000  0.5172290000000 1.0
C      1  0.4934030000000  0.5205660000000  0.5147690000000 1.0
C      1  0.5331260000000  0.5668140000000  0.3995050000000 1.0
C      1  0.5958070000000  0.4566450000000  0.5020940000000 1.0
C      1  0.4943910000000  0.4236060000000  0.4029610000000 1.0
C      1  0.5091830000000  0.4886650000000  0.4549120000000 1.0
C      1  0.4885160000000  0.5905450000000  0.5913390000000 1.0
C      1  0.4790480000000  0.6102320000000  0.4015440000000 1.0
C      1  0.4803580000000  0.5820550000000  0.4005400000000 1.0
C      1  0.4581290000000  0.5160440000000  0.5471770000000 1.0
C      1  0.4303570000000  0.5678330000000  0.5832380000000 1.0
C      1  0.5056260000000  0.5219210000000  0.5629660000000 1.0
C      1  0.5430940000000  0.4965420000000  0.5051990000000 1.0
C      1  0.5913170000000  0.5412020000000  0.4965550000000 1.0
C      1  0.4840730000000  0.4585350000000  0.5068160000000 1.0
C      1  0.5221720000000  0.4351860000000  0.5201080000000 1.0
C      1  0.4382620000000  0.4007900000000  0.3522790000000 1.0
C      1  0.4686930000000  0.3733570000000  0.4956100000000 1.0
C      1  0.5404080000000  0.3775000000000  0.5098620000000 1.0
C      1  0.4813150000000  0.5007090000000  0.3838450000000 1.0
C      1  0.5923740000000  0.5260080000000  0.4708710000000 1.0
C      1  0.5251630000000  0.4857220000000  0.5270230000000 1.0
C      1  0.4955240000000  0.6293910000000  0.4107470000000 1.0
C      1  0.4294370000000  0.3283870000000  0.5524230000000 1.0
C      1  0.4547770000000  0.4195680000000  0.4934190000000 1.0
C      1  0.5204790000000  0.5818950000000  0.5549900000000 1.0
C      1  0.5098710000000  0.4608870000000  0.5170990000000 1.0
C      1  0.4293410000000  0.5408720000000  0.4456070000000 1.0
C      1  0.6116310000000  0.4151230000000  0.4827840000000 1.0
C      1  0.4939580000000  0.4823990000000  0.4012070000000 1.0
C      1  0.4365490000000  0.4013900000000  0.5565620000000 1.0
C      1  0.4950390000000  0.3976650000000  0.4530210000000 1.0
C      1  0.4189190000000  0.3040650000000  0.5522740000000 1.0
C      1  0.4191900000000  0.5927150000000  0.5442270000000 1.0
C      1  0.5402200000000  0.5528790000000  0.4945290000000 1.0
C      1  0.5031120000000  0.6425740000000  0.5374960000000 1.0
C      1  0.4933680000000  0.6145780000000  0.4838660000000 1.0
C      1  0.5018140000000  0.5039910000000  0.5851580000000 1.0
C      1  0.4038240000000  0.5318620000000  0.4874330000000 1.0
C      1  0.3874030000000  0.2315430000000  0.5516810000000 1.0
C      1  0.5030190000000  0.5215060000000  0.4873640000000 1.0
C      1  0.4839760000000  0.5338230000000  0.4406040000000 1.0
C      1  0.5599690000000  0.5394760000000  0.5359630000000 1.0
C      1  0.4083690000000  0.2797570000000  0.5520900000000 1.0
C      1  0.5843850000000  0.5130750000000  0.5690660000000 1.0
C      1  0.5801490000000  0.4792000000000  0.4507900000000 1.0
C      1  0.5865180000000  0.5875170000000  0.4771470000000 1.0
C      1  0.5216360000000  0.5606740000000  0.4440880000000 1.0
C      1  0.5951430000000  0.4284240000000  0.5000770000000 1.0
C      1  0.4511220000000  0.3780730000000  0.5498250000000 1.0
C      1  0.4666380000000  0.5268080000000  0.5221570000000 1.0
C      1  0.4765070000000  0.4163630000000  0.3848130000000 1.0
C      1  0.5092130000000  0.5104790000000  0.5361330000000 1.0
C      1  0.5500590000000  0.5157390000000  0.4582040000000 1.0
C      1  0.5343370000000  0.4228670000000  0.4978070000000 1.0
C      1  0.5722580000000  0.4523070000000  0.4428760000000 1.0
C      1  0.4825080000000  0.5322880000000  0.4692520000000 1.0
C      1  0.4183310000000  0.5230370000000  0.5878220000000 1.0
C      1  0.3853710000000  0.5397910000000  0.5068170000000 1.0
C      1  0.5899160000000  0.4835750000000  0.4971730000000 1.0
C      1  0.4689460000000  0.4697790000000  0.5648520000000 1.0
C      1  0.5473910000000  0.4815310000000  0.4150500000000 1.0
C      1  0.4802780000000  0.4456470000000  0.4616150000000 1.0
C      1  0.4889250000000  0.5721260000000  0.5217460000000 1.0
C      1  0.5268870000000  0.5309430000000  0.6198300000000 1.0
C      1  0.5159430000000  0.5052840000000  0.4337580000000 1.0
C      1  0.4416650000000  0.6030230000000  0.5282850000000 1.0
C      1  0.5673020000000  0.6068350000000  0.4776210000000 1.0
C      1  0.4697530000000  0.5232060000000  0.3929470000000 1.0
C      1  0.4402130000000  0.5412690000000  0.5854120000000 1.0
C      1  0.5898080000000  0.5701530000000  0.4995790000000 1.0
C      1  0.4264250000000  0.3837820000000  0.4735010000000 1.0
C      1  0.4577550000000  0.6254580000000  0.5420980000000 1.0
C      1  0.5178760000000  0.4632090000000  0.5710350000000 1.0
C      1  0.5552580000000  0.6011790000000  0.5244250000000 1.0
C      1  0.3978010000000  0.2554490000000  0.5518880000000 1.0
C      1  0.4489240000000  0.3924230000000  0.4886910000000 1.0
C      1  0.4635640000000  0.4416200000000  0.5693800000000 1.0
C      1  0.4401160000000  0.4271430000000  0.5636260000000 1.0
C      1  0.5543710000000  0.4345020000000  0.4557220000000 1.0
C      1  0.5376390000000  0.5522120000000  0.5219210000000 1.0
C      1  0.5936120000000  0.4653490000000  0.5692330000000 1.0
C      1  0.4944080000000  0.4783960000000  0.5769760000000 1.0
C      1  0.4279400000000  0.5189610000000  0.4955440000000 1.0
END
