TITL C-3866674-3872-519 0.0146107277253885 125000 -215.323923932829 0 0 37 (C1) n - 1
REM
REM in /home/nfs/bkarasulu/CARBON/AIRSS/Generating-Clusters/LCBOP/Only-C1/SD-CG/FIRE-CG
REM
REM
REM
REM
REM
REM ./C.cell (11c1c37f851c82e70ff6c80c92926a4b)
REM AIRSS Version 0.9.1 bugfix July 2018 build 013d7b7c2542+ Fri, 06 Jul 2018 19:26:36 +0100
REM compiler GCC version 9.2.1 20190827 (Red Hat 9.2.1-1)
REM options -cpp -mtune=generic -march=x86-64 -g -O0 -fpre-include=/usr/include/finclude/math-vector-fortran.h
REM seed -1281985038 -375110524 813973871 1303819073 1967807330 161220237 1035741895 1662382417 1376520132 845262789 278233263 -1154500188 980778002 -877224420 -498692675 1784215804 446008972 -1084216145 -1616099153 753565736 672290817 -366204000 -2053229162 54969921 -1351136583 667469857 360113358 60302362 1584805742 1975886979 -52501908 -1167484135 58281646
REM
CELL 1.54180   50.00000   50.00000   50.00000   90.00000   90.00000   90.00000
LATT -1
SFAC C  
C      1  0.5169280000000  0.5178820000000  0.5552300000000 1.0
C      1  0.5079490000000  0.5560420000000  0.5262890000000 1.0
C      1  0.5222720000000  0.4536710000000  0.5683950000000 1.0
C      1  0.4496480000000  0.4545590000000  0.4442630000000 1.0
C      1  0.4519460000000  0.5255160000000  0.4075910000000 1.0
C      1  0.5211710000000  0.4693660000000  0.5455700000000 1.0
C      1  0.5252770000000  0.4089760000000  0.6335420000000 1.0
C      1  0.5095480000000  0.4608830000000  0.5205030000000 1.0
C      1  0.5283810000000  0.5535460000000  0.4321890000000 1.0
C      1  0.5288310000000  0.4914370000000  0.4481220000000 1.0
C      1  0.5425680000000  0.5025320000000  0.5179350000000 1.0
C      1  0.4760750000000  0.4945780000000  0.4970610000000 1.0
C      1  0.5242870000000  0.4237150000000  0.6120610000000 1.0
C      1  0.4223270000000  0.4787550000000  0.4761920000000 1.0
C      1  0.5152840000000  0.5515950000000  0.4783780000000 1.0
C      1  0.5403540000000  0.4836110000000  0.4246770000000 1.0
C      1  0.5178550000000  0.5394680000000  0.4531880000000 1.0
C      1  0.5232060000000  0.4425720000000  0.5029390000000 1.0
C      1  0.5239120000000  0.5938200000000  0.5005090000000 1.0
C      1  0.5350630000000  0.4795830000000  0.4730590000000 1.0
C      1  0.4984580000000  0.5347980000000  0.5419510000000 1.0
C      1  0.4466460000000  0.4745810000000  0.4625850000000 1.0
C      1  0.5354690000000  0.4516790000000  0.4799260000000 1.0
C      1  0.5315770000000  0.4964770000000  0.5439450000000 1.0
C      1  0.5232790000000  0.4387000000000  0.5902200000000 1.0
C      1  0.5093530000000  0.5124880000000  0.4492850000000 1.0
C      1  0.4683710000000  0.4919760000000  0.4695600000000 1.0
C      1  0.5265750000000  0.4949270000000  0.4957360000000 1.0
C      1  0.4322950000000  0.5045950000000  0.5160110000000 1.0
C      1  0.4814150000000  0.5067540000000  0.4488480000000 1.0
C      1  0.5316460000000  0.6186670000000  0.4990720000000 1.0
C      1  0.4731400000000  0.5243940000000  0.5354880000000 1.0
C      1  0.4662000000000  0.5164800000000  0.4274460000000 1.0
C      1  0.4601090000000  0.5083230000000  0.5166090000000 1.0
C      1  0.5157040000000  0.5671520000000  0.5017360000000 1.0
C      1  0.5007870000000  0.4841730000000  0.5050110000000 1.0
C      1  0.4160950000000  0.4917260000000  0.4988760000000 1.0
END
