TITL C-3866672-3872-74 9.31281925525029e-05 125000 -448.471342525832 0 0 75 (C1) n - 1
REM
REM in /home/nfs/bkarasulu/CARBON/AIRSS/Generating-Clusters/LCBOP/Only-C1/SD-CG/HFTN-CG/FIRE-CG
REM
REM
REM
REM
REM
REM ./C.cell (11c1c37f851c82e70ff6c80c92926a4b)
REM AIRSS Version 0.9.1 bugfix July 2018 build 013d7b7c2542+ Fri, 06 Jul 2018 19:26:36 +0100
REM compiler GCC version 9.2.1 20190827 (Red Hat 9.2.1-1)
REM options -cpp -mtune=generic -march=x86-64 -g -O0 -fpre-include=/usr/include/finclude/math-vector-fortran.h
REM seed -407950826 755496063 -1086179382 1912677180 1141681606 -555031565 -855521599 -1230876198 -1486895503 1739309230 1172591554 -744502283 429667318 -2085971486 -88980392 -1514423783 -603145121 -661093494 1566045243 -1520864417 -1932856858 -1794302640 1027614582 1886010053 1108302874 -1486268548 855049585 -1919999536 1553300857 -1025466115 23046886 -1364627681 -644158254
REM
CELL 1.54180   50.00000   50.00000   50.00000   90.00000   90.00000   90.00000
LATT -1
SFAC C  
C      1  0.4668750000000  0.4696610000000  0.4100970000000 1.0
C      1  0.4951340000000  0.4035430000000  0.4998200000000 1.0
C      1  0.5715050000000  0.5239570000000  0.5218650000000 1.0
C      1  0.5018520000000  0.4456310000000  0.5493360000000 1.0
C      1  0.4711490000000  0.4122660000000  0.5082530000000 1.0
C      1  0.4707050000000  0.5574440000000  0.5713750000000 1.0
C      1  0.4128140000000  0.4696610000000  0.4635190000000 1.0
C      1  0.5822960000000  0.5026920000000  0.4761400000000 1.0
C      1  0.4617420000000  0.5270350000000  0.4695820000000 1.0
C      1  0.4282930000000  0.4836150000000  0.5652850000000 1.0
C      1  0.5154660000000  0.4981550000000  0.5258920000000 1.0
C      1  0.5352530000000  0.5215130000000  0.4296380000000 1.0
C      1  0.4244630000000  0.5333160000000  0.5594700000000 1.0
C      1  0.5193370000000  0.4719730000000  0.4122030000000 1.0
C      1  0.5140760000000  0.4588450000000  0.5714870000000 1.0
C      1  0.4494060000000  0.4722010000000  0.3868800000000 1.0
C      1  0.5517570000000  0.5985960000000  0.5136260000000 1.0
C      1  0.5285300000000  0.5281960000000  0.4550920000000 1.0
C      1  0.5682730000000  0.5501200000000  0.4821850000000 1.0
C      1  0.5622430000000  0.4730570000000  0.5260710000000 1.0
C      1  0.4526690000000  0.5060180000000  0.4851140000000 1.0
C      1  0.5242870000000  0.5118200000000  0.4777860000000 1.0
C      1  0.5491480000000  0.5932420000000  0.5395900000000 1.0
C      1  0.4148860000000  0.4517080000000  0.5083190000000 1.0
C      1  0.5452310000000  0.4701970000000  0.4576940000000 1.0
C      1  0.4611410000000  0.4350410000000  0.5209580000000 1.0
C      1  0.4682560000000  0.4818720000000  0.5332890000000 1.0
C      1  0.5351430000000  0.4789180000000  0.5644610000000 1.0
C      1  0.4947100000000  0.4723860000000  0.3993340000000 1.0
C      1  0.4970100000000  0.5011840000000  0.5732740000000 1.0
C      1  0.5380430000000  0.4825020000000  0.5357690000000 1.0
C      1  0.5599130000000  0.5284610000000  0.5457260000000 1.0
C      1  0.4359170000000  0.4483020000000  0.5265750000000 1.0
C      1  0.5183590000000  0.6061820000000  0.4788950000000 1.0
C      1  0.3969860000000  0.4964670000000  0.5013820000000 1.0
C      1  0.4919760000000  0.4974270000000  0.5447180000000 1.0
C      1  0.4770330000000  0.4587370000000  0.4560970000000 1.0
C      1  0.4973720000000  0.5571500000000  0.5729200000000 1.0
C      1  0.4984930000000  0.5646220000000  0.4657410000000 1.0
C      1  0.5383800000000  0.4294210000000  0.4849200000000 1.0
C      1  0.4585730000000  0.5032780000000  0.5131110000000 1.0
C      1  0.5131060000000  0.5157830000000  0.5034350000000 1.0
C      1  0.4644400000000  0.4760310000000  0.3639080000000 1.0
C      1  0.4094030000000  0.5340230000000  0.5355860000000 1.0
C      1  0.5384520000000  0.5300670000000  0.5645060000000 1.0
C      1  0.5420030000000  0.5931200000000  0.4880090000000 1.0
C      1  0.5698420000000  0.4769120000000  0.4713390000000 1.0
C      1  0.4231100000000  0.5086650000000  0.5731600000000 1.0
C      1  0.5273280000000  0.4524780000000  0.4718800000000 1.0
C      1  0.4453240000000  0.5509510000000  0.5660370000000 1.0
C      1  0.4314100000000  0.4675190000000  0.4445080000000 1.0
C      1  0.5473810000000  0.5678560000000  0.4754060000000 1.0
C      1  0.4823080000000  0.5451400000000  0.4782710000000 1.0
C      1  0.4816960000000  0.4534900000000  0.5307170000000 1.0
C      1  0.5815060000000  0.4527550000000  0.4816420000000 1.0
C      1  0.5665860000000  0.4306830000000  0.4877260000000 1.0
C      1  0.4913430000000  0.4762180000000  0.3706050000000 1.0
C      1  0.3992490000000  0.5187750000000  0.5159940000000 1.0
C      1  0.4702820000000  0.5288950000000  0.5209100000000 1.0
C      1  0.4582330000000  0.4652050000000  0.4364550000000 1.0
C      1  0.6056260000000  0.5071720000000  0.4618650000000 1.0
C      1  0.5204840000000  0.4096560000000  0.4935950000000 1.0
C      1  0.4920530000000  0.5359660000000  0.5042000000000 1.0
C      1  0.5248890000000  0.5552490000000  0.5671780000000 1.0
C      1  0.5266000000000  0.5059880000000  0.5742060000000 1.0
C      1  0.4998400000000  0.4559960000000  0.4691870000000 1.0
C      1  0.4949250000000  0.4752930000000  0.5870620000000 1.0
C      1  0.5386630000000  0.4732070000000  0.4305870000000 1.0
C      1  0.5254990000000  0.5557010000000  0.4611850000000 1.0
C      1  0.4967910000000  0.5926060000000  0.4693510000000 1.0
C      1  0.4058780000000  0.4719160000000  0.4906620000000 1.0
C      1  0.5742320000000  0.5246610000000  0.4936240000000 1.0
C      1  0.5869990000000  0.4658990000000  0.5306910000000 1.0
C      1  0.4411480000000  0.4713820000000  0.5440330000000 1.0
C      1  0.5386770000000  0.5783260000000  0.5589900000000 1.0
END
