TITL C-3866670-4165-661 55917.3678989919 125000 -996.765618156418 0 0 164 (C1) n - 1
REM
REM in /home/nfs/bkarasulu/CARBON/AIRSS/Generating-Clusters/LCBOP/Only-C1/SD-CG/FIRE-CG
REM
REM
REM
REM
REM
REM ./C.cell (11c1c37f851c82e70ff6c80c92926a4b)
REM AIRSS Version 0.9.1 bugfix July 2018 build 013d7b7c2542+ Fri, 06 Jul 2018 19:26:36 +0100
REM compiler GCC version 9.2.1 20190827 (Red Hat 9.2.1-1)
REM options -cpp -mtune=generic -march=x86-64 -g -O0 -fpre-include=/usr/include/finclude/math-vector-fortran.h
REM seed -154315616 1987267258 -1417659787 1051216126 -828311035 469069159 2140738705 212230658 1379984383 1622654227 -71945425 -1646516259 1181018663 -600669245 -2070908418 480897280 1036483011 2005491487 126388868 -1589087999 -636897651 1784264859 1398617308 -302841191 846461732 525950542 789037169 904277863 2068569065 -574701615 132440710 -1007524195 478219200
REM
CELL 1.54180   50.00000   50.00000   50.00000   90.00000   90.00000   90.00000
LATT -1
SFAC C  
C      1  0.5609860000000  0.5039170000000  0.4402450000000 1.0
C      1  0.5049170000000  0.4137750000000  0.5473740000000 1.0
C      1  0.4894100000000  0.4748200000000  0.4152030000000 1.0
C      1  0.5320070000000  0.5815100000000  0.5562180000000 1.0
C      1  0.5832720000000  0.5440480000000  0.5393410000000 1.0
C      1  0.4926470000000  0.4058260000000  0.4746960000000 1.0
C      1  0.4326880000000  0.4005580000000  0.5473750000000 1.0
C      1  0.3800040000000  0.5349420000000  0.5455740000000 1.0
C      1  0.4183130000000  0.5062530000000  0.5423280000000 1.0
C      1  0.4582010000000  0.4789490000000  0.4715920000000 1.0
C      1  0.4853480000000  0.5412920000000  0.4707960000000 1.0
C      1  0.4537120000000  0.4999610000000  0.4539480000000 1.0
C      1  0.5155220000000  0.5521740000000  0.3969120000000 1.0
C      1  0.4887600000000  0.5303260000000  0.4444960000000 1.0
C      1  0.4381340000000  0.4427300000000  0.5097050000000 1.0
C      1  0.5452920000000  0.5260070000000  0.6178280000000 1.0
C      1  0.4968400000000  0.5305110000000  0.3898440000000 1.0
C      1  0.5403530000000  0.4246600000000  0.5196100000000 1.0
C      1  0.4180440000000  0.4866340000000  0.4332850000000 1.0
C      1  0.4482760000000  0.5732730000000  0.4500520000000 1.0
C      1  0.4965280000000  0.4693760000000  0.4430050000000 1.0
C      1  0.4451280000000  0.5245780000000  0.4661670000000 1.0
C      1  0.4781000000000  0.4489760000000  0.5574470000000 1.0
C      1  0.3521060000000  0.4610600000000  0.5618840000000 1.0
C      1  0.5800890000000  0.4296180000000  0.4837940000000 1.0
C      1  0.5180800000000  0.4893590000000  0.5096470000000 1.0
C      1  0.6181990000000  0.4902710000000  0.4571040000000 1.0
C      1  0.4864980000000  0.6107620000000  0.4907430000000 1.0
C      1  0.4775620000000  0.5440420000000  0.5588370000000 1.0
C      1  0.4656070000000  0.4782040000000  0.5911360000000 1.0
C      1  0.6297380000000  0.5010570000000  0.5534380000000 1.0
C      1  0.4775770000000  0.4958900000000  0.5473670000000 1.0
C      1  0.5154970000000  0.4335160000000  0.5293310000000 1.0
C      1  0.4608610000000  0.4709940000000  0.4114940000000 1.0
C      1  0.5468930000000  0.5227810000000  0.6436450000000 1.0
C      1  0.4661250000000  0.5233300000000  0.5402490000000 1.0
C      1  0.5489090000000  0.4133270000000  0.5745660000000 1.0
C      1  0.5229260000000  0.4006740000000  0.3921950000000 1.0
C      1  0.4965070000000  0.5877470000000  0.4304500000000 1.0
C      1  0.5209880000000  0.4199370000000  0.4370270000000 1.0
C      1  0.6138810000000  0.4809750000000  0.4322600000000 1.0
C      1  0.5285320000000  0.4210300000000  0.4094820000000 1.0
C      1  0.4479610000000  0.4842160000000  0.5703520000000 1.0
C      1  0.5645000000000  0.4371750000000  0.5758500000000 1.0
C      1  0.6114410000000  0.5406420000000  0.5340390000000 1.0
C      1  0.4572490000000  0.4053380000000  0.5331000000000 1.0
C      1  0.5147750000000  0.5200460000000  0.4436540000000 1.0
C      1  0.5416110000000  0.4582350000000  0.4595390000000 1.0
C      1  0.5548910000000  0.5063550000000  0.3531570000000 1.0
C      1  0.4786850000000  0.4238910000000  0.4915890000000 1.0
C      1  0.4998450000000  0.6071190000000  0.5177490000000 1.0
C      1  0.5405170000000  0.5876520000000  0.4493440000000 1.0
C      1  0.5774520000000  0.4482220000000  0.5054140000000 1.0
C      1  0.3836120000000  0.4829850000000  0.4974680000000 1.0
C      1  0.5418090000000  0.4729510000000  0.4034180000000 1.0
C      1  0.5740880000000  0.4708550000000  0.6099200000000 1.0
C      1  0.5896620000000  0.4785100000000  0.3252750000000 1.0
C      1  0.5248670000000  0.5056520000000  0.5554800000000 1.0
C      1  0.4667240000000  0.5355670000000  0.4271220000000 1.0
C      1  0.4773030000000  0.4686720000000  0.5334460000000 1.0
C      1  0.4692340000000  0.4261050000000  0.4346830000000 1.0
C      1  0.3419580000000  0.5095830000000  0.5700130000000 1.0
C      1  0.6107970000000  0.4713570000000  0.5196810000000 1.0
C      1  0.4866480000000  0.4987830000000  0.5931250000000 1.0
C      1  0.3918310000000  0.5107160000000  0.5021120000000 1.0
C      1  0.5700930000000  0.5394900000000  0.4890650000000 1.0
C      1  0.4568500000000  0.4213480000000  0.5096880000000 1.0
C      1  0.4709790000000  0.5323490000000  0.3999600000000 1.0
C      1  0.4898050000000  0.5223530000000  0.4921120000000 1.0
C      1  0.5133290000000  0.5646800000000  0.4219630000000 1.0
C      1  0.3692120000000  0.4538530000000  0.5407930000000 1.0
C      1  0.5692080000000  0.4758520000000  0.5013930000000 1.0
C      1  0.5393920000000  0.4071730000000  0.4962420000000 1.0
C      1  0.5291430000000  0.4530310000000  0.6043240000000 1.0
C      1  0.4240730000000  0.4573260000000  0.4383670000000 1.0
C      1  0.5096010000000  0.6152660000000  0.4725790000000 1.0
C      1  0.4458040000000  0.5160210000000  0.4950490000000 1.0
C      1  0.3939780000000  0.5150900000000  0.5303330000000 1.0
C      1  0.4405450000000  0.5807400000000  0.4763290000000 1.0
C      1  0.5759400000000  0.5592810000000  0.5640050000000 1.0
C      1  0.5644630000000  0.5727130000000  0.5861810000000 1.0
C      1  0.5622850000000  0.4989240000000  0.5194020000000 1.0
C      1  0.5233110000000  0.4741370000000  0.4471320000000 1.0
C      1  0.5651250000000  0.4367880000000  0.5279050000000 1.0
C      1  0.5361910000000  0.4953680000000  0.5313480000000 1.0
C      1  0.4866030000000  0.3692210000000  0.5454940000000 1.0
C      1  0.5031510000000  0.4479450000000  0.6002660000000 1.0
C      1  0.6043380000000  0.5034640000000  0.4784270000000 1.0
C      1  0.5667300000000  0.4868630000000  0.4162690000000 1.0
C      1  0.5326240000000  0.4995150000000  0.4415260000000 1.0
C      1  0.3409360000000  0.4829870000000  0.5723380000000 1.0
C      1  0.4827110000000  0.3962840000000  0.5424830000000 1.0
C      1  0.3887780000000  0.4337200000000  0.5438290000000 1.0
C      1  0.4686280000000  0.5870550000000  0.4353400000000 1.0
C      1  0.4066740000000  0.5093580000000  0.4529010000000 1.0
C      1  0.5148170000000  0.6030590000000  0.4469790000000 1.0
C      1  0.4888140000000  0.5651520000000  0.4849020000000 1.0
C      1  0.4362760000000  0.5283710000000  0.5454320000000 1.0
C      1  0.4590420000000  0.5979620000000  0.4931320000000 1.0
C      1  0.5410940000000  0.4303410000000  0.4552640000000 1.0
C      1  0.4104880000000  0.4181870000000  0.5461470000000 1.0
C      1  0.5277130000000  0.5364750000000  0.4635240000000 1.0
C      1  0.4827030000000  0.5248450000000  0.6030140000000 1.0
C      1  0.6172920000000  0.4791230000000  0.5641360000000 1.0
C      1  0.5183560000000  0.5896210000000  0.5799960000000 1.0
C      1  0.4311660000000  0.4820990000000  0.5485350000000 1.0
C      1  0.5365660000000  0.6123900000000  0.4868490000000 1.0
C      1  0.4899150000000  0.4502540000000  0.4894430000000 1.0
C      1  0.4797070000000  0.4533520000000  0.5857320000000 1.0
C      1  0.5595250000000  0.5678040000000  0.4887560000000 1.0
C      1  0.6230060000000  0.5153360000000  0.5292280000000 1.0
C      1  0.4999700000000  0.4977940000000  0.5666400000000 1.0
C      1  0.5126970000000  0.5073990000000  0.3823120000000 1.0
C      1  0.4816890000000  0.4649800000000  0.4670460000000 1.0
C      1  0.5410070000000  0.5844560000000  0.5985840000000 1.0
C      1  0.5562300000000  0.4164350000000  0.4748810000000 1.0
C      1  0.6019840000000  0.4621290000000  0.5468170000000 1.0
C      1  0.4162540000000  0.4449040000000  0.4920530000000 1.0
C      1  0.4502590000000  0.4470620000000  0.4273320000000 1.0
C      1  0.5564400000000  0.4546260000000  0.5969430000000 1.0
C      1  0.5213890000000  0.5550040000000  0.5220050000000 1.0
C      1  0.4917010000000  0.5972820000000  0.5676890000000 1.0
C      1  0.5240200000000  0.4061830000000  0.5671440000000 1.0
C      1  0.6139990000000  0.4978850000000  0.5068030000000 1.0
C      1  0.4964940000000  0.5616680000000  0.5107920000000 1.0
C      1  0.5392840000000  0.5720250000000  0.5086390000000 1.0
C      1  0.3991200000000  0.4639190000000  0.4837730000000 1.0
C      1  0.4302760000000  0.3778740000000  0.5626710000000 1.0
C      1  0.5157470000000  0.5130360000000  0.4916380000000 1.0
C      1  0.4551110000000  0.5895310000000  0.5225220000000 1.0
C      1  0.5375110000000  0.5185530000000  0.3707960000000 1.0
C      1  0.5006280000000  0.4627370000000  0.5144490000000 1.0
C      1  0.5703550000000  0.5276410000000  0.5172400000000 1.0
C      1  0.5136400000000  0.4838320000000  0.3987140000000 1.0
C      1  0.5283120000000  0.5538500000000  0.5492020000000 1.0
C      1  0.4464410000000  0.5453170000000  0.4453500000000 1.0
C      1  0.4803670000000  0.5983620000000  0.5394110000000 1.0
C      1  0.4386530000000  0.4910530000000  0.4116880000000 1.0
C      1  0.5324400000000  0.5604220000000  0.4452970000000 1.0
C      1  0.5784390000000  0.4450580000000  0.5520390000000 1.0
C      1  0.3973970000000  0.5564250000000  0.5519200000000 1.0
C      1  0.3560950000000  0.5291030000000  0.5585520000000 1.0
C      1  0.5723180000000  0.4925900000000  0.3387110000000 1.0
C      1  0.5333290000000  0.5309360000000  0.5652060000000 1.0
C      1  0.5938140000000  0.4791490000000  0.4143600000000 1.0
C      1  0.4330200000000  0.5692410000000  0.5211830000000 1.0
C      1  0.5422880000000  0.4443550000000  0.4011480000000 1.0
C      1  0.5417650000000  0.6033470000000  0.5411620000000 1.0
C      1  0.4244300000000  0.5543890000000  0.5433290000000 1.0
C      1  0.4792520000000  0.5455270000000  0.5858590000000 1.0
C      1  0.4686410000000  0.5237200000000  0.5105820000000 1.0
C      1  0.5416650000000  0.5306460000000  0.5919650000000 1.0
C      1  0.4050960000000  0.5298790000000  0.4823280000000 1.0
C      1  0.3681570000000  0.4704730000000  0.5178550000000 1.0
C      1  0.4235910000000  0.5603800000000  0.4926540000000 1.0
C      1  0.4465990000000  0.4866260000000  0.4969720000000 1.0
C      1  0.4474860000000  0.4688560000000  0.5215950000000 1.0
C      1  0.5308710000000  0.6017470000000  0.5140560000000 1.0
C      1  0.5389930000000  0.5454200000000  0.3815040000000 1.0
C      1  0.4936780000000  0.4146170000000  0.4466800000000 1.0
C      1  0.5551380000000  0.5926880000000  0.4729730000000 1.0
C      1  0.5789360000000  0.5180690000000  0.4683720000000 1.0
C      1  0.5155360000000  0.3942650000000  0.4873450000000 1.0
C      1  0.5579520000000  0.4736800000000  0.4758870000000 1.0
END
