TITL C-3866669-3764-72 18.3724180757223 125000 -395.964578965222 0 0 66 (C1) n - 1
REM
REM in /home/nfs/bkarasulu/CARBON/AIRSS/Generating-Clusters/LCBOP/Only-C1/SD-CG/HFTN-CG/FIRE-CG
REM
REM
REM
REM
REM
REM ./C.cell (11c1c37f851c82e70ff6c80c92926a4b)
REM AIRSS Version 0.9.1 bugfix July 2018 build 013d7b7c2542+ Fri, 06 Jul 2018 19:26:36 +0100
REM compiler GCC version 9.2.1 20190827 (Red Hat 9.2.1-1)
REM options -cpp -mtune=generic -march=x86-64 -g -O0 -fpre-include=/usr/include/finclude/math-vector-fortran.h
REM seed -1392894479 -2047948723 1429760307 -706970443 -759212740 707953904 -778931419 2007830097 995999156 2071496760 707791400 2139637683 -1869721985 626489813 676301436 556986552 90280861 896259512 2064155984 -2138494839 -1946863964 244403822 1891681218 -183221975 85110356 -1072287133 1828188045 2122982219 -850702910 578879933 1997251154 -1201252688 1033033993
REM
CELL 1.54180   50.00000   50.00000   50.00000   90.00000   90.00000   90.00000
LATT -1
SFAC C  
C      1  0.5487850000000  0.5199010000000  0.5128190000000 1.0
C      1  0.4875730000000  0.5389110000000  0.4861350000000 1.0
C      1  0.5119560000000  0.4244620000000  0.4995740000000 1.0
C      1  0.4068980000000  0.4225290000000  0.4051340000000 1.0
C      1  0.4593800000000  0.4540830000000  0.5030530000000 1.0
C      1  0.4711390000000  0.4746780000000  0.5492060000000 1.0
C      1  0.5068130000000  0.4863860000000  0.4574280000000 1.0
C      1  0.4472220000000  0.4330410000000  0.4888560000000 1.0
C      1  0.4253660000000  0.5048670000000  0.4921810000000 1.0
C      1  0.4539700000000  0.5108950000000  0.5806710000000 1.0
C      1  0.5351960000000  0.5947450000000  0.4630500000000 1.0
C      1  0.5767040000000  0.4659280000000  0.4818500000000 1.0
C      1  0.5398490000000  0.4450380000000  0.5358270000000 1.0
C      1  0.5663720000000  0.4525910000000  0.4610120000000 1.0
C      1  0.4953350000000  0.4151320000000  0.4807530000000 1.0
C      1  0.4620620000000  0.5362320000000  0.4753800000000 1.0
C      1  0.5640290000000  0.5915120000000  0.5006600000000 1.0
C      1  0.5238490000000  0.4809420000000  0.4773500000000 1.0
C      1  0.5563730000000  0.6062570000000  0.4787990000000 1.0
C      1  0.4575860000000  0.5142100000000  0.4314690000000 1.0
C      1  0.5245970000000  0.4354600000000  0.4336460000000 1.0
C      1  0.5208240000000  0.5695410000000  0.5027940000000 1.0
C      1  0.4794020000000  0.4827740000000  0.4606170000000 1.0
C      1  0.4360160000000  0.4457390000000  0.4441010000000 1.0
C      1  0.4344550000000  0.5311440000000  0.5438960000000 1.0
C      1  0.4578390000000  0.5358280000000  0.4476180000000 1.0
C      1  0.5342110000000  0.5529740000000  0.5635740000000 1.0
C      1  0.4534530000000  0.4301980000000  0.4610720000000 1.0
C      1  0.5773140000000  0.4815200000000  0.5036640000000 1.0
C      1  0.4464640000000  0.5416530000000  0.5204980000000 1.0
C      1  0.4707680000000  0.4738010000000  0.4862380000000 1.0
C      1  0.5240340000000  0.4461690000000  0.5124880000000 1.0
C      1  0.5185710000000  0.4777480000000  0.5664880000000 1.0
C      1  0.4631170000000  0.4551910000000  0.5305830000000 1.0
C      1  0.4505220000000  0.4901880000000  0.5606780000000 1.0
C      1  0.5565870000000  0.5378810000000  0.5717630000000 1.0
C      1  0.5603390000000  0.4903960000000  0.5498870000000 1.0
C      1  0.4981260000000  0.4835550000000  0.5473970000000 1.0
C      1  0.5483400000000  0.4426520000000  0.4438450000000 1.0
C      1  0.4208740000000  0.4337750000000  0.4240360000000 1.0
C      1  0.5653530000000  0.5394600000000  0.4702740000000 1.0
C      1  0.4194750000000  0.4933750000000  0.5176080000000 1.0
C      1  0.5197300000000  0.5192860000000  0.5172310000000 1.0
C      1  0.4985430000000  0.4289230000000  0.4358410000000 1.0
C      1  0.5532610000000  0.5098940000000  0.5710580000000 1.0
C      1  0.5135460000000  0.5553260000000  0.5468400000000 1.0
C      1  0.5088350000000  0.4931140000000  0.5220660000000 1.0
C      1  0.5186110000000  0.4728770000000  0.5037330000000 1.0
C      1  0.5293360000000  0.4985890000000  0.5831270000000 1.0
C      1  0.5498070000000  0.5673710000000  0.5060420000000 1.0
C      1  0.4810720000000  0.4223870000000  0.4570340000000 1.0
C      1  0.5137690000000  0.5856720000000  0.4801820000000 1.0
C      1  0.5043520000000  0.5473810000000  0.5166970000000 1.0
C      1  0.5591210000000  0.5415850000000  0.4978440000000 1.0
C      1  0.5577360000000  0.5530260000000  0.4481810000000 1.0
C      1  0.4443020000000  0.5349560000000  0.5708740000000 1.0
C      1  0.4590280000000  0.4880580000000  0.4417230000000 1.0
C      1  0.4206770000000  0.4887180000000  0.4689860000000 1.0
C      1  0.5430660000000  0.4665220000000  0.5536310000000 1.0
C      1  0.4349520000000  0.4742550000000  0.4487570000000 1.0
C      1  0.4718890000000  0.5537800000000  0.5239180000000 1.0
C      1  0.5799020000000  0.5495990000000  0.5796410000000 1.0
C      1  0.4416610000000  0.5292060000000  0.4943240000000 1.0
C      1  0.4305400000000  0.5017200000000  0.5419720000000 1.0
C      1  0.5650030000000  0.4983820000000  0.5227260000000 1.0
C      1  0.5441220000000  0.5760100000000  0.4436020000000 1.0
END
