TITL C-3866675-3766-49 10805.7668450751 125000 -899.997350281201 0 0 149 (C1) n - 1
REM
REM in /home/nfs/bkarasulu/CARBON/AIRSS/Generating-Clusters/LCBOP/Only-C1/SD-CG/HFTN-CG/FIRE-CG
REM
REM
REM
REM
REM
REM ./C.cell (11c1c37f851c82e70ff6c80c92926a4b)
REM AIRSS Version 0.9.1 bugfix July 2018 build 013d7b7c2542+ Fri, 06 Jul 2018 19:26:36 +0100
REM compiler GCC version 9.2.1 20190827 (Red Hat 9.2.1-1)
REM options -cpp -mtune=generic -march=x86-64 -g -O0 -fpre-include=/usr/include/finclude/math-vector-fortran.h
REM seed -694196345 716042779 756122841 -414945962 2114470777 1582923477 1958352365 1842090398 -1763271933 1804372344 1270907508 -481955808 1392783470 -1422339236 -9124991 1118211060 781884085 549631837 -1031327808 -1464069628 801009514 -2127076188 -1785184201 1528840095 2116038958 -299559907 -1766463715 -185917610 -1235906498 -1431459428 -1211422305 27047207 -1914403875
REM
CELL 1.54180   50.00000   50.00000   50.00000   90.00000   90.00000   90.00000
LATT -1
SFAC C  
C      1  0.6072800000000  0.4953210000000  0.4480060000000 1.0
C      1  0.4234770000000  0.4361590000000  0.4843400000000 1.0
C      1  0.4268940000000  0.6019160000000  0.4125420000000 1.0
C      1  0.4259360000000  0.5712220000000  0.5365450000000 1.0
C      1  0.4494540000000  0.4467170000000  0.3720850000000 1.0
C      1  0.4791810000000  0.5604650000000  0.5211700000000 1.0
C      1  0.5241940000000  0.5574840000000  0.5448320000000 1.0
C      1  0.4618070000000  0.6031080000000  0.5019950000000 1.0
C      1  0.4579930000000  0.5592090000000  0.4916800000000 1.0
C      1  0.5394380000000  0.5989710000000  0.4984250000000 1.0
C      1  0.4053840000000  0.5127850000000  0.5473170000000 1.0
C      1  0.4163180000000  0.5273850000000  0.5695660000000 1.0
C      1  0.4828060000000  0.6021950000000  0.6369560000000 1.0
C      1  0.5196070000000  0.5555670000000  0.4206020000000 1.0
C      1  0.5166530000000  0.5385960000000  0.6126940000000 1.0
C      1  0.5697940000000  0.4537010000000  0.4626090000000 1.0
C      1  0.4973580000000  0.4130450000000  0.5449630000000 1.0
C      1  0.4582270000000  0.4574030000000  0.5378140000000 1.0
C      1  0.6019350000000  0.5281240000000  0.4938990000000 1.0
C      1  0.5611420000000  0.4771020000000  0.5995740000000 1.0
C      1  0.5007920000000  0.5080890000000  0.6062350000000 1.0
C      1  0.5842060000000  0.5729240000000  0.4926610000000 1.0
C      1  0.5630570000000  0.5038610000000  0.4668620000000 1.0
C      1  0.5844750000000  0.5147460000000  0.4475210000000 1.0
C      1  0.5221890000000  0.4474790000000  0.5988730000000 1.0
C      1  0.4342430000000  0.5058970000000  0.4141750000000 1.0
C      1  0.5881520000000  0.4797720000000  0.5127900000000 1.0
C      1  0.4137320000000  0.5531680000000  0.5167330000000 1.0
C      1  0.4223020000000  0.4901210000000  0.5394240000000 1.0
C      1  0.3917550000000  0.4870830000000  0.4731240000000 1.0
C      1  0.4572620000000  0.5294000000000  0.5890450000000 1.0
C      1  0.5703780000000  0.4477200000000  0.4342440000000 1.0
C      1  0.5502900000000  0.5258340000000  0.4801170000000 1.0
C      1  0.4465020000000  0.4578740000000  0.5947230000000 1.0
C      1  0.4811530000000  0.4322700000000  0.4329530000000 1.0
C      1  0.5348730000000  0.3973040000000  0.5151530000000 1.0
C      1  0.5278170000000  0.4105730000000  0.4640170000000 1.0
C      1  0.4475460000000  0.4935350000000  0.4741080000000 1.0
C      1  0.4813230000000  0.4552920000000  0.4513800000000 1.0
C      1  0.4237370000000  0.5122740000000  0.4406420000000 1.0
C      1  0.5577820000000  0.4231220000000  0.4271410000000 1.0
C      1  0.5449060000000  0.4587350000000  0.5851000000000 1.0
C      1  0.4916870000000  0.5526580000000  0.6188190000000 1.0
C      1  0.4928180000000  0.5386290000000  0.4758540000000 1.0
C      1  0.5908660000000  0.5624940000000  0.5365330000000 1.0
C      1  0.4318970000000  0.4952310000000  0.4963310000000 1.0
C      1  0.4054200000000  0.4904930000000  0.4488310000000 1.0
C      1  0.5481540000000  0.5341980000000  0.5070670000000 1.0
C      1  0.4606850000000  0.5661500000000  0.4361570000000 1.0
C      1  0.5309600000000  0.4157470000000  0.4348260000000 1.0
C      1  0.5877110000000  0.4491120000000  0.5116260000000 1.0
C      1  0.5693740000000  0.4432990000000  0.4894240000000 1.0
C      1  0.4987280000000  0.5373100000000  0.4110650000000 1.0
C      1  0.5351160000000  0.4715110000000  0.4884460000000 1.0
C      1  0.4856760000000  0.4607750000000  0.5477560000000 1.0
C      1  0.5498530000000  0.4775950000000  0.4631930000000 1.0
C      1  0.4353620000000  0.4208130000000  0.4393400000000 1.0
C      1  0.4436600000000  0.5931510000000  0.5226340000000 1.0
C      1  0.5670980000000  0.5032040000000  0.6016330000000 1.0
C      1  0.4977030000000  0.5255410000000  0.4998920000000 1.0
C      1  0.5626170000000  0.4710180000000  0.4207510000000 1.0
C      1  0.4871090000000  0.5778270000000  0.6287820000000 1.0
C      1  0.5071570000000  0.3945820000000  0.5239860000000 1.0
C      1  0.4958810000000  0.4850840000000  0.5921340000000 1.0
C      1  0.5380250000000  0.5351730000000  0.5334570000000 1.0
C      1  0.5525570000000  0.4152590000000  0.5328950000000 1.0
C      1  0.6049960000000  0.4984650000000  0.4968380000000 1.0
C      1  0.4408730000000  0.5035070000000  0.5212980000000 1.0
C      1  0.5327080000000  0.6046750000000  0.4708260000000 1.0
C      1  0.4311470000000  0.4834750000000  0.5972470000000 1.0
C      1  0.5967810000000  0.5517570000000  0.5103630000000 1.0
C      1  0.5097810000000  0.4982080000000  0.4378180000000 1.0
C      1  0.5313200000000  0.4921030000000  0.5049370000000 1.0
C      1  0.5076960000000  0.5043430000000  0.5524290000000 1.0
C      1  0.5629110000000  0.4905510000000  0.5217830000000 1.0
C      1  0.4702190000000  0.4523530000000  0.6102900000000 1.0
C      1  0.4645460000000  0.5720690000000  0.4657560000000 1.0
C      1  0.4969010000000  0.4595130000000  0.6042340000000 1.0
C      1  0.5101290000000  0.5730330000000  0.4439700000000 1.0
C      1  0.5169990000000  0.4861370000000  0.3947220000000 1.0
C      1  0.5044280000000  0.4993290000000  0.5053790000000 1.0
C      1  0.4624010000000  0.4121900000000  0.4406220000000 1.0
C      1  0.4873640000000  0.5006670000000  0.4534710000000 1.0
C      1  0.5362190000000  0.4425500000000  0.5336780000000 1.0
C      1  0.4707170000000  0.5447290000000  0.4166640000000 1.0
C      1  0.4311020000000  0.5510950000000  0.4947100000000 1.0
C      1  0.4516100000000  0.5262200000000  0.4051130000000 1.0
C      1  0.5543400000000  0.6021990000000  0.4522830000000 1.0
C      1  0.5372750000000  0.5452270000000  0.5952170000000 1.0
C      1  0.5088170000000  0.4317540000000  0.4204620000000 1.0
C      1  0.5276490000000  0.4732910000000  0.4407130000000 1.0
C      1  0.4945010000000  0.4299310000000  0.4949230000000 1.0
C      1  0.5386050000000  0.5412680000000  0.4600970000000 1.0
C      1  0.4294790000000  0.4618590000000  0.5322550000000 1.0
C      1  0.4312670000000  0.4764370000000  0.4130710000000 1.0
C      1  0.4785850000000  0.5970780000000  0.4753900000000 1.0
C      1  0.5060630000000  0.4399620000000  0.5424680000000 1.0
C      1  0.4292380000000  0.5547020000000  0.5614810000000 1.0
C      1  0.4177560000000  0.4659970000000  0.4378400000000 1.0
C      1  0.4396390000000  0.4607930000000  0.3916960000000 1.0
C      1  0.4725230000000  0.4784560000000  0.4683390000000 1.0
C      1  0.5601270000000  0.5287860000000  0.5973500000000 1.0
C      1  0.5658200000000  0.5204530000000  0.4234610000000 1.0
C      1  0.4695700000000  0.4058830000000  0.5438830000000 1.0
C      1  0.4498060000000  0.4159830000000  0.5609920000000 1.0
C      1  0.3977990000000  0.5312990000000  0.5263050000000 1.0
C      1  0.4680070000000  0.3940520000000  0.4621800000000 1.0
C      1  0.4593610000000  0.3952060000000  0.4895400000000 1.0
C      1  0.4434080000000  0.5850110000000  0.4235170000000 1.0
C      1  0.5431020000000  0.4947730000000  0.3858620000000 1.0
C      1  0.4742230000000  0.3871960000000  0.5118890000000 1.0
C      1  0.4861150000000  0.4796190000000  0.4957200000000 1.0
C      1  0.5653860000000  0.5900460000000  0.5074910000000 1.0
C      1  0.4932720000000  0.4837700000000  0.5638420000000 1.0
C      1  0.5121080000000  0.4318890000000  0.4744120000000 1.0
C      1  0.5343340000000  0.5112060000000  0.5487650000000 1.0
C      1  0.4697490000000  0.5424440000000  0.5412380000000 1.0
C      1  0.5387430000000  0.3952150000000  0.4860170000000 1.0
C      1  0.5618060000000  0.4960210000000  0.4073850000000 1.0
C      1  0.5172160000000  0.5938050000000  0.5150570000000 1.0
C      1  0.4366050000000  0.4121250000000  0.4926410000000 1.0
C      1  0.5736750000000  0.5844530000000  0.5350450000000 1.0
C      1  0.4739920000000  0.5255530000000  0.4588290000000 1.0
C      1  0.4229110000000  0.4419460000000  0.4544000000000 1.0
C      1  0.5807680000000  0.4262910000000  0.5301210000000 1.0
C      1  0.5097960000000  0.4547600000000  0.4582090000000 1.0
C      1  0.5444170000000  0.5402460000000  0.4309320000000 1.0
C      1  0.5302910000000  0.5607940000000  0.5723670000000 1.0
C      1  0.5136470000000  0.5531930000000  0.4650630000000 1.0
C      1  0.5746640000000  0.5847420000000  0.4479270000000 1.0
C      1  0.4347420000000  0.5111850000000  0.5871650000000 1.0
C      1  0.5867870000000  0.5659720000000  0.4650160000000 1.0
C      1  0.5528120000000  0.4892700000000  0.5475280000000 1.0
C      1  0.5056000000000  0.5976910000000  0.4609920000000 1.0
C      1  0.4404290000000  0.4356900000000  0.5773180000000 1.0
C      1  0.6164780000000  0.4873890000000  0.4727330000000 1.0
C      1  0.4738950000000  0.5315390000000  0.6105330000000 1.0
C      1  0.5054540000000  0.5716770000000  0.5276740000000 1.0
C      1  0.4075650000000  0.4800660000000  0.4950380000000 1.0
C      1  0.4459130000000  0.5176250000000  0.4582770000000 1.0
C      1  0.5060660000000  0.5086520000000  0.4109860000000 1.0
C      1  0.4576250000000  0.5480400000000  0.5665600000000 1.0
C      1  0.5430850000000  0.4489740000000  0.5025850000000 1.0
C      1  0.5953840000000  0.5379310000000  0.4650630000000 1.0
C      1  0.4163790000000  0.4544590000000  0.5057240000000 1.0
C      1  0.4620830000000  0.5176590000000  0.5309560000000 1.0
C      1  0.4081830000000  0.4806290000000  0.6129200000000 1.0
C      1  0.5181930000000  0.4601270000000  0.4117460000000 1.0
C      1  0.5465610000000  0.4623430000000  0.5562980000000 1.0
END
