TITL C-3866675-3766-367 24.2040383694461 125000 -1124.83988720001 0 0 182 (C1) n - 1
REM
REM in /home/nfs/bkarasulu/CARBON/AIRSS/Generating-Clusters/LCBOP/Only-C1/SD-CG/FIRE-CG
REM
REM
REM
REM
REM
REM ./C.cell (11c1c37f851c82e70ff6c80c92926a4b)
REM AIRSS Version 0.9.1 bugfix July 2018 build 013d7b7c2542+ Fri, 06 Jul 2018 19:26:36 +0100
REM compiler GCC version 9.2.1 20190827 (Red Hat 9.2.1-1)
REM options -cpp -mtune=generic -march=x86-64 -g -O0 -fpre-include=/usr/include/finclude/math-vector-fortran.h
REM seed 521650189 -417585252 -851855939 -19662281 1559025287 -1975210341 1357813553 310388883 -1621092895 1897561 -1465471686 357616268 -2089606123 1685093515 -1908976559 -1334325041 1539789555 -1431064677 -1967893814 2144320426 475787926 -1926823506 -262227969 1007121338 -491788742 -924226558 -252924748 -369071753 -488922844 218955600 -1920424986 -219780346 -557299768
REM
CELL 1.54180   50.00000   50.00000   50.00000   90.00000   90.00000   90.00000
LATT -1
SFAC C  
C      1  0.4447880000000  0.5783210000000  0.5676390000000 1.0
C      1  0.4513460000000  0.5289140000000  0.5571590000000 1.0
C      1  0.4520920000000  0.4503520000000  0.5470490000000 1.0
C      1  0.6260800000000  0.4189150000000  0.5167520000000 1.0
C      1  0.6034000000000  0.4638830000000  0.4522330000000 1.0
C      1  0.5573940000000  0.5739530000000  0.4652250000000 1.0
C      1  0.4474580000000  0.5182760000000  0.4588400000000 1.0
C      1  0.4273040000000  0.5892110000000  0.5201110000000 1.0
C      1  0.5078310000000  0.4935150000000  0.6212640000000 1.0
C      1  0.3877870000000  0.5196810000000  0.5328980000000 1.0
C      1  0.5314830000000  0.4357640000000  0.5452660000000 1.0
C      1  0.5436440000000  0.4421930000000  0.5195670000000 1.0
C      1  0.5764990000000  0.5803870000000  0.5110780000000 1.0
C      1  0.4446130000000  0.4850280000000  0.4960880000000 1.0
C      1  0.5488350000000  0.5335850000000  0.4866280000000 1.0
C      1  0.5433660000000  0.5438230000000  0.5110410000000 1.0
C      1  0.4765820000000  0.5162530000000  0.5645520000000 1.0
C      1  0.4355410000000  0.4063300000000  0.5374120000000 1.0
C      1  0.5161090000000  0.5804990000000  0.5937920000000 1.0
C      1  0.5091750000000  0.5176300000000  0.4676740000000 1.0
C      1  0.4292810000000  0.4532120000000  0.6005160000000 1.0
C      1  0.4321010000000  0.6143730000000  0.4789310000000 1.0
C      1  0.3999120000000  0.5064640000000  0.4077720000000 1.0
C      1  0.5036170000000  0.4307790000000  0.4147580000000 1.0
C      1  0.3774960000000  0.4334900000000  0.4875150000000 1.0
C      1  0.4103950000000  0.4291240000000  0.4294530000000 1.0
C      1  0.4813250000000  0.5212650000000  0.4229680000000 1.0
C      1  0.5140640000000  0.4502700000000  0.5645400000000 1.0
C      1  0.4081600000000  0.4507260000000  0.5339230000000 1.0
C      1  0.5985110000000  0.5073480000000  0.5443090000000 1.0
C      1  0.4963370000000  0.4464120000000  0.4775090000000 1.0
C      1  0.5624350000000  0.4387970000000  0.4696070000000 1.0
C      1  0.5338270000000  0.4869770000000  0.4961810000000 1.0
C      1  0.5101010000000  0.4727650000000  0.4850320000000 1.0
C      1  0.5252840000000  0.5139770000000  0.6206790000000 1.0
C      1  0.5176410000000  0.4014810000000  0.4866430000000 1.0
C      1  0.6338160000000  0.4247260000000  0.4670550000000 1.0
C      1  0.4430210000000  0.6081450000000  0.5050900000000 1.0
C      1  0.4386800000000  0.3960520000000  0.5107410000000 1.0
C      1  0.4019090000000  0.4696350000000  0.4554690000000 1.0
C      1  0.4060090000000  0.5785140000000  0.4654280000000 1.0
C      1  0.5170280000000  0.5409060000000  0.4487370000000 1.0
C      1  0.5008630000000  0.5317100000000  0.5671810000000 1.0
C      1  0.6019000000000  0.4275850000000  0.5589460000000 1.0
C      1  0.4718090000000  0.5313160000000  0.3815790000000 1.0
C      1  0.4418470000000  0.5510470000000  0.5737060000000 1.0
C      1  0.4100700000000  0.5399060000000  0.5316090000000 1.0
C      1  0.4580180000000  0.4709980000000  0.5646840000000 1.0
C      1  0.5330210000000  0.5275650000000  0.3524550000000 1.0
C      1  0.4590200000000  0.6004190000000  0.5621220000000 1.0
C      1  0.4612890000000  0.4315470000000  0.4456470000000 1.0
C      1  0.5238460000000  0.6108540000000  0.5232370000000 1.0
C      1  0.4518440000000  0.5726350000000  0.4141000000000 1.0
C      1  0.5064060000000  0.4772700000000  0.5592910000000 1.0
C      1  0.4933750000000  0.5772230000000  0.4782740000000 1.0
C      1  0.5268080000000  0.5204830000000  0.5619120000000 1.0
C      1  0.5549560000000  0.5355810000000  0.4083940000000 1.0
C      1  0.4541380000000  0.4427690000000  0.6049860000000 1.0
C      1  0.6090120000000  0.4912230000000  0.4598730000000 1.0
C      1  0.4291080000000  0.5449040000000  0.5978600000000 1.0
C      1  0.5596520000000  0.4096660000000  0.5724940000000 1.0
C      1  0.5936580000000  0.5620780000000  0.4945230000000 1.0
C      1  0.4941400000000  0.5106450000000  0.3784070000000 1.0
C      1  0.5800650000000  0.5071550000000  0.5926170000000 1.0
C      1  0.5410970000000  0.5363190000000  0.6128570000000 1.0
C      1  0.4185210000000  0.4797110000000  0.5983360000000 1.0
C      1  0.4489690000000  0.5908960000000  0.4380290000000 1.0
C      1  0.5329850000000  0.5666330000000  0.4497110000000 1.0
C      1  0.5675670000000  0.5325080000000  0.6025340000000 1.0
C      1  0.5134730000000  0.3858410000000  0.5116790000000 1.0
C      1  0.5286790000000  0.5618730000000  0.6089650000000 1.0
C      1  0.5318350000000  0.4292740000000  0.4071120000000 1.0
C      1  0.5762820000000  0.4796530000000  0.5966670000000 1.0
C      1  0.4840530000000  0.4783220000000  0.6186830000000 1.0
C      1  0.5832090000000  0.4671210000000  0.5054200000000 1.0
C      1  0.5946290000000  0.5171380000000  0.5702760000000 1.0
C      1  0.5362590000000  0.4885560000000  0.5241990000000 1.0
C      1  0.3898680000000  0.5102910000000  0.4324530000000 1.0
C      1  0.4963380000000  0.5563710000000  0.5291060000000 1.0
C      1  0.5803150000000  0.5137690000000  0.5228040000000 1.0
C      1  0.4743350000000  0.4797600000000  0.4542560000000 1.0
C      1  0.3785330000000  0.5124330000000  0.5060360000000 1.0
C      1  0.5254060000000  0.4043840000000  0.4582450000000 1.0
C      1  0.4675700000000  0.4731390000000  0.5086140000000 1.0
C      1  0.4716270000000  0.5528670000000  0.5166420000000 1.0
C      1  0.4408670000000  0.5331430000000  0.4814090000000 1.0
C      1  0.6037970000000  0.4612880000000  0.5248110000000 1.0
C      1  0.4736850000000  0.6033510000000  0.4479320000000 1.0
C      1  0.4787580000000  0.6012100000000  0.4767930000000 1.0
C      1  0.4591610000000  0.4912730000000  0.6238150000000 1.0
C      1  0.4703810000000  0.4973970000000  0.4124640000000 1.0
C      1  0.5749460000000  0.4590260000000  0.4532300000000 1.0
C      1  0.4873180000000  0.5166610000000  0.4900850000000 1.0
C      1  0.5020350000000  0.5824720000000  0.5692700000000 1.0
C      1  0.4516200000000  0.4916950000000  0.4672310000000 1.0
C      1  0.5053020000000  0.4886010000000  0.4563970000000 1.0
C      1  0.4939520000000  0.6112680000000  0.5278360000000 1.0
C      1  0.6301400000000  0.5065540000000  0.4705680000000 1.0
C      1  0.5797510000000  0.5558300000000  0.4691030000000 1.0
C      1  0.5447540000000  0.6035270000000  0.5422580000000 1.0
C      1  0.4163970000000  0.4564080000000  0.4334440000000 1.0
C      1  0.4976680000000  0.6021710000000  0.4326600000000 1.0
C      1  0.4178260000000  0.4886030000000  0.3984080000000 1.0
C      1  0.4863480000000  0.6026560000000  0.5551930000000 1.0
C      1  0.4094930000000  0.4790100000000  0.5320630000000 1.0
C      1  0.3943400000000  0.4959430000000  0.5505410000000 1.0
C      1  0.4814510000000  0.4518830000000  0.6064230000000 1.0
C      1  0.4293720000000  0.4339600000000  0.5422370000000 1.0
C      1  0.4531390000000  0.3916610000000  0.5548290000000 1.0
C      1  0.4620200000000  0.5321410000000  0.4399370000000 1.0
C      1  0.5076860000000  0.5332010000000  0.4223890000000 1.0
C      1  0.4128250000000  0.5353500000000  0.4826290000000 1.0
C      1  0.4725140000000  0.6104570000000  0.5046970000000 1.0
C      1  0.5762930000000  0.4533040000000  0.5911580000000 1.0
C      1  0.6349250000000  0.4151140000000  0.4919040000000 1.0
C      1  0.4254330000000  0.5250970000000  0.6152010000000 1.0
C      1  0.5589630000000  0.5310700000000  0.5296660000000 1.0
C      1  0.5493490000000  0.4191670000000  0.4525600000000 1.0
C      1  0.4954900000000  0.4201070000000  0.4866390000000 1.0
C      1  0.4655560000000  0.5349440000000  0.4963630000000 1.0
C      1  0.4268860000000  0.5958320000000  0.4572190000000 1.0
C      1  0.5278040000000  0.5333340000000  0.4016450000000 1.0
C      1  0.5795490000000  0.5517100000000  0.5840210000000 1.0
C      1  0.5393320000000  0.4090150000000  0.5528790000000 1.0
C      1  0.5016960000000  0.4412580000000  0.5889270000000 1.0
C      1  0.5274250000000  0.4821980000000  0.4111960000000 1.0
C      1  0.5309860000000  0.3891930000000  0.5342150000000 1.0
C      1  0.4753560000000  0.3787200000000  0.5452710000000 1.0
C      1  0.4341200000000  0.5219130000000  0.5345020000000 1.0
C      1  0.4874650000000  0.4555270000000  0.4033790000000 1.0
C      1  0.5466260000000  0.5308490000000  0.3299610000000 1.0
C      1  0.5349110000000  0.5113050000000  0.4813060000000 1.0
C      1  0.3937360000000  0.5139060000000  0.4815350000000 1.0
C      1  0.5190810000000  0.5574230000000  0.5130300000000 1.0
C      1  0.4801680000000  0.4881500000000  0.5643380000000 1.0
C      1  0.5800590000000  0.4291410000000  0.5766910000000 1.0
C      1  0.5654080000000  0.5824050000000  0.5400500000000 1.0
C      1  0.5628630000000  0.4468250000000  0.4983730000000 1.0
C      1  0.6130330000000  0.4836780000000  0.5394970000000 1.0
C      1  0.5597670000000  0.4838910000000  0.4510810000000 1.0
C      1  0.6110930000000  0.4353270000000  0.5336400000000 1.0
C      1  0.5321690000000  0.4842530000000  0.4393360000000 1.0
C      1  0.4754870000000  0.4522400000000  0.4580050000000 1.0
C      1  0.4004150000000  0.4897700000000  0.5779940000000 1.0
C      1  0.6320370000000  0.5284970000000  0.4862410000000 1.0
C      1  0.5259130000000  0.4947820000000  0.5494310000000 1.0
C      1  0.5743810000000  0.5333080000000  0.4265790000000 1.0
C      1  0.3939460000000  0.4975900000000  0.4574870000000 1.0
C      1  0.5158950000000  0.5766990000000  0.4933450000000 1.0
C      1  0.4325920000000  0.4687520000000  0.4126920000000 1.0
C      1  0.4989030000000  0.5574350000000  0.5566210000000 1.0
C      1  0.4043790000000  0.5616400000000  0.4880940000000 1.0
C      1  0.4741890000000  0.4063410000000  0.4490140000000 1.0
C      1  0.4297370000000  0.4957770000000  0.5190990000000 1.0
C      1  0.5648910000000  0.5610920000000  0.5617010000000 1.0
C      1  0.4111900000000  0.5656810000000  0.5163030000000 1.0
C      1  0.5577650000000  0.5917040000000  0.4895340000000 1.0
C      1  0.6222550000000  0.4434540000000  0.4520130000000 1.0
C      1  0.5808730000000  0.5318300000000  0.4541340000000 1.0
C      1  0.4889470000000  0.4321740000000  0.5262910000000 1.0
C      1  0.5205770000000  0.5880450000000  0.4350430000000 1.0
C      1  0.3912980000000  0.4523880000000  0.4750640000000 1.0
C      1  0.5015160000000  0.4097900000000  0.4378860000000 1.0
C      1  0.5521850000000  0.4232600000000  0.4242290000000 1.0
C      1  0.4636980000000  0.3877590000000  0.4993020000000 1.0
C      1  0.4890660000000  0.4889740000000  0.5008440000000 1.0
C      1  0.4602130000000  0.5537040000000  0.3948380000000 1.0
C      1  0.3643120000000  0.4137910000000  0.4983660000000 1.0
C      1  0.4037080000000  0.4043150000000  0.4250770000000 1.0
C      1  0.5048910000000  0.4789310000000  0.3937770000000 1.0
C      1  0.5805730000000  0.4964150000000  0.4987490000000 1.0
C      1  0.5192930000000  0.5240750000000  0.3762530000000 1.0
C      1  0.5489790000000  0.5372030000000  0.5550560000000 1.0
C      1  0.4331820000000  0.4983300000000  0.6148860000000 1.0
C      1  0.4849410000000  0.3795550000000  0.5182100000000 1.0
C      1  0.4736650000000  0.4023210000000  0.4775580000000 1.0
C      1  0.5810020000000  0.5039190000000  0.4667570000000 1.0
C      1  0.4696650000000  0.4508920000000  0.5252130000000 1.0
C      1  0.5316800000000  0.5997150000000  0.4979300000000 1.0
C      1  0.6184970000000  0.5490430000000  0.4973680000000 1.0
C      1  0.5600610000000  0.5340800000000  0.3078550000000 1.0
C      1  0.4614510000000  0.4699450000000  0.4092830000000 1.0
END
