TITL C-3866674-3872-159 0.00127735878320998 125000 -108.769485206222 0 0 19 (C1) n - 1
REM
REM in /home/nfs/bkarasulu/CARBON/AIRSS/Generating-Clusters/LCBOP/Only-C1/SD-CG/HFTN-CG/FIRE-CG
REM
REM
REM
REM
REM
REM ./C.cell (11c1c37f851c82e70ff6c80c92926a4b)
REM AIRSS Version 0.9.1 bugfix July 2018 build 013d7b7c2542+ Fri, 06 Jul 2018 19:26:36 +0100
REM compiler GCC version 9.2.1 20190827 (Red Hat 9.2.1-1)
REM options -cpp -mtune=generic -march=x86-64 -g -O0 -fpre-include=/usr/include/finclude/math-vector-fortran.h
REM seed -379139977 -1938620706 -1168539021 1445706132 -77812047 1216995758 -1412159139 1617022419 1172061841 -421244958 -1598405 1513771005 1925687412 404797780 1884852252 1511088731 1526812718 -1186393195 1810478412 -747517300 -926455158 1976082008 -926115769 1163728374 -51048935 -1052691141 2101438854 1563952437 856619675 372031704 329698545 1274659325 -1602700083
REM
CELL 1.54180   50.00000   50.00000   50.00000   90.00000   90.00000   90.00000
LATT -1
SFAC C  
C      1  0.4874770000000  0.4636610000000  0.5273620000000 1.0
C      1  0.4753810000000  0.5406870000000  0.4514410000000 1.0
C      1  0.4986080000000  0.5344290000000  0.5306750000000 1.0
C      1  0.4366780000000  0.5244480000000  0.4817310000000 1.0
C      1  0.5319050000000  0.5136780000000  0.4838330000000 1.0
C      1  0.4786430000000  0.4902560000000  0.5233700000000 1.0
C      1  0.4522360000000  0.4973400000000  0.5182460000000 1.0
C      1  0.6105680000000  0.4534400000000  0.5056730000000 1.0
C      1  0.5854070000000  0.4597320000000  0.5083140000000 1.0
C      1  0.5235410000000  0.4997200000000  0.5065840000000 1.0
C      1  0.5233830000000  0.5280290000000  0.4630470000000 1.0
C      1  0.5331840000000  0.4735650000000  0.5132730000000 1.0
C      1  0.4520240000000  0.5354260000000  0.4630260000000 1.0
C      1  0.4308830000000  0.5094270000000  0.5046860000000 1.0
C      1  0.5000760000000  0.5091460000000  0.5204100000000 1.0
C      1  0.5598480000000  0.4661880000000  0.5109510000000 1.0
C      1  0.4052040000000  0.5066560000000  0.5135770000000 1.0
C      1  0.5018850000000  0.5381790000000  0.4510060000000 1.0
C      1  0.5130720000000  0.4559920000000  0.5227950000000 1.0
END
