TITL C-3866669-3764-807 3.5154377445271e-07 125000 -455.31483790394 0 0 76 (C1) n - 1
REM
REM in /home/nfs/bkarasulu/CARBON/AIRSS/Generating-Clusters/LCBOP/Only-C1/SD-CG/FIRE-CG
REM
REM
REM
REM
REM
REM ./C.cell (11c1c37f851c82e70ff6c80c92926a4b)
REM AIRSS Version 0.9.1 bugfix July 2018 build 013d7b7c2542+ Fri, 06 Jul 2018 19:26:36 +0100
REM compiler GCC version 9.2.1 20190827 (Red Hat 9.2.1-1)
REM options -cpp -mtune=generic -march=x86-64 -g -O0 -fpre-include=/usr/include/finclude/math-vector-fortran.h
REM seed 308038897 -1128760374 1580327008 447051996 1538623970 1109670003 2102073935 1628373452 962946455 1055899250 1065992719 1716378237 -417013742 397245229 2008052782 1494669100 930815194 190486975 -1814234250 -1114879467 -741440899 -1477341040 -42896292 627013337 2009339652 -1761388222 -1793550096 -764218419 1562626942 615411457 1652408289 -1068448629 -313807024
REM
CELL 1.54180   50.00000   50.00000   50.00000   90.00000   90.00000   90.00000
LATT -1
SFAC C  
C      1  0.4365560000000  0.5389380000000  0.4801550000000 1.0
C      1  0.4673890000000  0.4582390000000  0.4284130000000 1.0
C      1  0.5115910000000  0.5940620000000  0.4715330000000 1.0
C      1  0.5220590000000  0.5585360000000  0.5070370000000 1.0
C      1  0.5359960000000  0.4714420000000  0.4224530000000 1.0
C      1  0.4871740000000  0.4753300000000  0.5910730000000 1.0
C      1  0.5725420000000  0.4492470000000  0.5648740000000 1.0
C      1  0.5704930000000  0.5274860000000  0.5012430000000 1.0
C      1  0.4336210000000  0.5292760000000  0.4551420000000 1.0
C      1  0.5465780000000  0.5247990000000  0.4562420000000 1.0
C      1  0.4688440000000  0.5720030000000  0.5191970000000 1.0
C      1  0.5256170000000  0.5573080000000  0.5540850000000 1.0
C      1  0.4608390000000  0.4364180000000  0.5210930000000 1.0
C      1  0.4231650000000  0.5542750000000  0.5329610000000 1.0
C      1  0.5655070000000  0.5370600000000  0.4743200000000 1.0
C      1  0.5674370000000  0.4482090000000  0.4572980000000 1.0
C      1  0.5056090000000  0.5143540000000  0.5711220000000 1.0
C      1  0.5050850000000  0.5765280000000  0.5554170000000 1.0
C      1  0.4834920000000  0.4815690000000  0.4276760000000 1.0
C      1  0.4344550000000  0.4745100000000  0.4942050000000 1.0
C      1  0.5105820000000  0.4262850000000  0.5247740000000 1.0
C      1  0.4526590000000  0.4443570000000  0.5486400000000 1.0
C      1  0.5129770000000  0.4547800000000  0.5291990000000 1.0
C      1  0.5690640000000  0.4708980000000  0.5507930000000 1.0
C      1  0.5204150000000  0.5139530000000  0.4542040000000 1.0
C      1  0.5666520000000  0.4327170000000  0.4792410000000 1.0
C      1  0.4352330000000  0.4838770000000  0.4673610000000 1.0
C      1  0.5009270000000  0.4749050000000  0.5459020000000 1.0
C      1  0.4492490000000  0.4891540000000  0.5379950000000 1.0
C      1  0.4597180000000  0.4360490000000  0.4414030000000 1.0
C      1  0.5399470000000  0.5586390000000  0.5288000000000 1.0
C      1  0.4074200000000  0.5087400000000  0.5210980000000 1.0
C      1  0.5603500000000  0.5392860000000  0.5263600000000 1.0
C      1  0.4657000000000  0.4208610000000  0.4629140000000 1.0
C      1  0.5223770000000  0.5083720000000  0.4982800000000 1.0
C      1  0.5346950000000  0.4140850000000  0.5162630000000 1.0
C      1  0.5211990000000  0.4925340000000  0.4735490000000 1.0
C      1  0.5103160000000  0.4786010000000  0.4189160000000 1.0
C      1  0.4796120000000  0.4753550000000  0.5048560000000 1.0
C      1  0.5653950000000  0.4945330000000  0.5368850000000 1.0
C      1  0.4510230000000  0.5560860000000  0.5367610000000 1.0
C      1  0.5523650000000  0.5184390000000  0.5470580000000 1.0
C      1  0.4625380000000  0.4864280000000  0.5820190000000 1.0
C      1  0.4737620000000  0.5053550000000  0.4413970000000 1.0
C      1  0.5053860000000  0.4647960000000  0.5031000000000 1.0
C      1  0.5101700000000  0.4375310000000  0.4675890000000 1.0
C      1  0.4776790000000  0.4877620000000  0.5308400000000 1.0
C      1  0.4889470000000  0.5544810000000  0.4599630000000 1.0
C      1  0.4759540000000  0.5194490000000  0.5718210000000 1.0
C      1  0.5569060000000  0.5734030000000  0.4426110000000 1.0
C      1  0.5756110000000  0.5001000000000  0.5101540000000 1.0
C      1  0.5193040000000  0.5838330000000  0.4951150000000 1.0
C      1  0.4876830000000  0.4234150000000  0.4807660000000 1.0
C      1  0.4552760000000  0.5300020000000  0.4974740000000 1.0
C      1  0.4807560000000  0.5287850000000  0.5055230000000 1.0
C      1  0.4622420000000  0.5395520000000  0.5577210000000 1.0
C      1  0.5085910000000  0.5326800000000  0.5039520000000 1.0
C      1  0.5566240000000  0.4616860000000  0.4366940000000 1.0
C      1  0.4486670000000  0.4715440000000  0.5611900000000 1.0
C      1  0.5160810000000  0.4643960000000  0.4772070000000 1.0
C      1  0.4055640000000  0.5347040000000  0.5276510000000 1.0
C      1  0.4935190000000  0.5258530000000  0.4504080000000 1.0
C      1  0.4462530000000  0.5043980000000  0.4505890000000 1.0
C      1  0.4850460000000  0.4217330000000  0.5104040000000 1.0
C      1  0.4566540000000  0.4582690000000  0.5013610000000 1.0
C      1  0.5064900000000  0.4850390000000  0.5717630000000 1.0
C      1  0.4876650000000  0.5852890000000  0.5364500000000 1.0
C      1  0.5308330000000  0.5727520000000  0.4348140000000 1.0
C      1  0.4281650000000  0.4902270000000  0.5179750000000 1.0
C      1  0.5274550000000  0.4067480000000  0.4271770000000 1.0
C      1  0.4737670000000  0.5683160000000  0.4888530000000 1.0
C      1  0.5719270000000  0.5622560000000  0.4624690000000 1.0
C      1  0.5550920000000  0.4192550000000  0.4994100000000 1.0
C      1  0.5284300000000  0.5289710000000  0.5619710000000 1.0
C      1  0.5215650000000  0.4237240000000  0.4460860000000 1.0
C      1  0.5074780000000  0.5751740000000  0.4506930000000 1.0
END
