TITL C-3866672-3872-454 -0.0017337214150026 125000 -493.167430544913 0 0 82 (C1) n - 1
REM
REM in /home/nfs/bkarasulu/CARBON/AIRSS/Generating-Clusters/LCBOP/Only-C1/SD-CG/FIRE-CG
REM
REM
REM
REM
REM
REM ./C.cell (11c1c37f851c82e70ff6c80c92926a4b)
REM AIRSS Version 0.9.1 bugfix July 2018 build 013d7b7c2542+ Fri, 06 Jul 2018 19:26:36 +0100
REM compiler GCC version 9.2.1 20190827 (Red Hat 9.2.1-1)
REM options -cpp -mtune=generic -march=x86-64 -g -O0 -fpre-include=/usr/include/finclude/math-vector-fortran.h
REM seed -1835510243 -2129090316 138395395 -1046030655 609206779 1129200114 1154939852 -1581933982 -785407836 -137223239 1766526553 857413677 -256124812 214884563 1096294743 998397817 184847633 543511944 1741322275 568750086 -1431839705 508655987 1672770945 179191789 560779913 -950856737 -180767533 -485038335 -663617078 49493062 391183090 -1354780856 -1004468389
REM
CELL 1.54180   50.00000   50.00000   50.00000   90.00000   90.00000   90.00000
LATT -1
SFAC C  
C      1  0.4537940000000  0.5054050000000  0.4432520000000 1.0
C      1  0.5493030000000  0.5405740000000  0.3790930000000 1.0
C      1  0.5703630000000  0.4963400000000  0.5120990000000 1.0
C      1  0.5148110000000  0.5237570000000  0.5347410000000 1.0
C      1  0.5047220000000  0.5090300000000  0.5848000000000 1.0
C      1  0.5624480000000  0.4686010000000  0.5102250000000 1.0
C      1  0.5375990000000  0.4249990000000  0.5267110000000 1.0
C      1  0.4621550000000  0.4563270000000  0.4791260000000 1.0
C      1  0.4684660000000  0.6121010000000  0.4777740000000 1.0
C      1  0.5306930000000  0.5225130000000  0.4473060000000 1.0
C      1  0.5135750000000  0.4352650000000  0.5736660000000 1.0
C      1  0.4570410000000  0.4963660000000  0.5303000000000 1.0
C      1  0.4645870000000  0.4105130000000  0.4982200000000 1.0
C      1  0.6018090000000  0.4174050000000  0.5202480000000 1.0
C      1  0.5475950000000  0.5597690000000  0.5052920000000 1.0
C      1  0.5210650000000  0.5201160000000  0.4207160000000 1.0
C      1  0.4982200000000  0.4611860000000  0.5123830000000 1.0
C      1  0.4435300000000  0.4225780000000  0.5398860000000 1.0
C      1  0.4353380000000  0.4860640000000  0.5133730000000 1.0
C      1  0.4432090000000  0.4766660000000  0.4853870000000 1.0
C      1  0.4652000000000  0.5862300000000  0.4825130000000 1.0
C      1  0.5808420000000  0.4240230000000  0.5039640000000 1.0
C      1  0.4628530000000  0.5607620000000  0.4894020000000 1.0
C      1  0.5179330000000  0.4098750000000  0.5114730000000 1.0
C      1  0.4914510000000  0.4499070000000  0.5800240000000 1.0
C      1  0.5623910000000  0.5523070000000  0.3598420000000 1.0
C      1  0.5300660000000  0.5442320000000  0.5458990000000 1.0
C      1  0.4062420000000  0.5272050000000  0.5262250000000 1.0
C      1  0.5197960000000  0.5324720000000  0.5908480000000 1.0
C      1  0.4888610000000  0.4635900000000  0.4858880000000 1.0
C      1  0.5665870000000  0.5348580000000  0.5748460000000 1.0
C      1  0.5256330000000  0.5853940000000  0.4352090000000 1.0
C      1  0.4981740000000  0.5172510000000  0.5136340000000 1.0
C      1  0.4835320000000  0.5770510000000  0.5424250000000 1.0
C      1  0.5799860000000  0.4154090000000  0.4773890000000 1.0
C      1  0.5009960000000  0.5858880000000  0.4249360000000 1.0
C      1  0.5455110000000  0.5440290000000  0.4590790000000 1.0
C      1  0.5394390000000  0.5418110000000  0.5725170000000 1.0
C      1  0.4630970000000  0.5608770000000  0.5539820000000 1.0
C      1  0.4357840000000  0.5633700000000  0.5472480000000 1.0
C      1  0.5358860000000  0.5293430000000  0.3989820000000 1.0
C      1  0.4558700000000  0.4284190000000  0.4764110000000 1.0
C      1  0.4851030000000  0.4397220000000  0.5251150000000 1.0
C      1  0.5075390000000  0.5815740000000  0.5304080000000 1.0
C      1  0.4716850000000  0.5194750000000  0.4267030000000 1.0
C      1  0.4420960000000  0.4058040000000  0.5168080000000 1.0
C      1  0.4182340000000  0.3977150000000  0.5036990000000 1.0
C      1  0.5817830000000  0.5191280000000  0.5592860000000 1.0
C      1  0.4942650000000  0.4831850000000  0.4028260000000 1.0
C      1  0.4899630000000  0.4150240000000  0.5110270000000 1.0
C      1  0.5557170000000  0.5401310000000  0.4860660000000 1.0
C      1  0.4955950000000  0.5074500000000  0.4165920000000 1.0
C      1  0.4136560000000  0.4046250000000  0.4776850000000 1.0
C      1  0.4784230000000  0.5110780000000  0.5729580000000 1.0
C      1  0.5431310000000  0.5695420000000  0.4476980000000 1.0
C      1  0.4331500000000  0.5214610000000  0.4856870000000 1.0
C      1  0.5197040000000  0.5050550000000  0.4660520000000 1.0
C      1  0.5593370000000  0.4400290000000  0.5140320000000 1.0
C      1  0.4319460000000  0.4193880000000  0.4637840000000 1.0
C      1  0.5914780000000  0.5112490000000  0.4717840000000 1.0
C      1  0.4637580000000  0.4420750000000  0.5436280000000 1.0
C      1  0.4702960000000  0.4609560000000  0.5640260000000 1.0
C      1  0.5277480000000  0.4792310000000  0.5515470000000 1.0
C      1  0.4792340000000  0.5711330000000  0.4204090000000 1.0
C      1  0.4692300000000  0.5376430000000  0.5690310000000 1.0
C      1  0.4557310000000  0.5350900000000  0.4971620000000 1.0
C      1  0.4144360000000  0.5491280000000  0.5394310000000 1.0
C      1  0.4175050000000  0.5095530000000  0.5076040000000 1.0
C      1  0.5313360000000  0.5660450000000  0.5278360000000 1.0
C      1  0.4666580000000  0.4892120000000  0.5572060000000 1.0
C      1  0.5716010000000  0.5159090000000  0.4905550000000 1.0
C      1  0.5312140000000  0.4275720000000  0.5545760000000 1.0
C      1  0.5086560000000  0.5077990000000  0.4898430000000 1.0
C      1  0.5211560000000  0.4879860000000  0.5759030000000 1.0
C      1  0.4928860000000  0.4600280000000  0.3909550000000 1.0
C      1  0.4702800000000  0.5185030000000  0.5160740000000 1.0
C      1  0.5812360000000  0.5048230000000  0.5367760000000 1.0
C      1  0.5178310000000  0.4736960000000  0.5274240000000 1.0
C      1  0.4409580000000  0.5000830000000  0.4674320000000 1.0
C      1  0.5780530000000  0.4077980000000  0.4525400000000 1.0
C      1  0.4727460000000  0.6373090000000  0.4726990000000 1.0
C      1  0.4681890000000  0.5469110000000  0.4217960000000 1.0
END
