TITL C-3866675-3766-681 318582.516994433 125000 -897.502967712282 0 0 147 (C1) n - 1
REM
REM in /home/nfs/bkarasulu/CARBON/AIRSS/Generating-Clusters/LCBOP/Only-C1/SD-CG/FIRE-CG
REM
REM
REM
REM
REM
REM ./C.cell (11c1c37f851c82e70ff6c80c92926a4b)
REM AIRSS Version 0.9.1 bugfix July 2018 build 013d7b7c2542+ Fri, 06 Jul 2018 19:26:36 +0100
REM compiler GCC version 9.2.1 20190827 (Red Hat 9.2.1-1)
REM options -cpp -mtune=generic -march=x86-64 -g -O0 -fpre-include=/usr/include/finclude/math-vector-fortran.h
REM seed 254209507 567081951 -1355236236 1985417751 -610872225 263533505 1745150470 -2046607927 1176595086 -106495430 -1478008699 -335139337 -895838138 686641482 1702111330 -1842865451 -134710266 1130235507 678225138 461969141 1345282727 -1033033804 -210528724 -1037663566 -1203190184 772634565 1477973977 -270324159 395447717 -995092963 883650930 247088374 418250695
REM
CELL 1.54180   50.00000   50.00000   50.00000   90.00000   90.00000   90.00000
LATT -1
SFAC C  
C      1  0.4351380000000  0.4974240000000  0.4945570000000 1.0
C      1  0.5150550000000  0.5279380000000  0.4027310000000 1.0
C      1  0.4205140000000  0.4536740000000  0.4843820000000 1.0
C      1  0.5278530000000  0.4742470000000  0.5615260000000 1.0
C      1  0.5521860000000  0.4934900000000  0.5977440000000 1.0
C      1  0.4203970000000  0.4471400000000  0.5132780000000 1.0
C      1  0.5365470000000  0.5770370000000  0.5323530000000 1.0
C      1  0.4767600000000  0.5635920000000  0.4149900000000 1.0
C      1  0.5204060000000  0.6203750000000  0.5181970000000 1.0
C      1  0.5020150000000  0.5972580000000  0.4526630000000 1.0
C      1  0.4673170000000  0.5843380000000  0.5847490000000 1.0
C      1  0.3639190000000  0.4764450000000  0.4919580000000 1.0
C      1  0.4160920000000  0.5652390000000  0.4493680000000 1.0
C      1  0.4317130000000  0.5664440000000  0.4726830000000 1.0
C      1  0.5689950000000  0.4390020000000  0.5467700000000 1.0
C      1  0.4858120000000  0.6000350000000  0.4768130000000 1.0
C      1  0.4471440000000  0.4354810000000  0.5332500000000 1.0
C      1  0.5531980000000  0.4834150000000  0.5182310000000 1.0
C      1  0.5704620000000  0.5451590000000  0.5522790000000 1.0
C      1  0.4992190000000  0.4260850000000  0.5756850000000 1.0
C      1  0.4478820000000  0.5621230000000  0.4145410000000 1.0
C      1  0.3997410000000  0.4614000000000  0.5271950000000 1.0
C      1  0.4883180000000  0.5426530000000  0.6035350000000 1.0
C      1  0.4942270000000  0.5839030000000  0.4992920000000 1.0
C      1  0.4155160000000  0.5922050000000  0.5335350000000 1.0
C      1  0.5057200000000  0.4031150000000  0.5371210000000 1.0
C      1  0.5456440000000  0.6074690000000  0.4792170000000 1.0
C      1  0.5280020000000  0.4252080000000  0.5798100000000 1.0
C      1  0.4106100000000  0.4772390000000  0.4124620000000 1.0
C      1  0.5758810000000  0.4286030000000  0.5200470000000 1.0
C      1  0.5417490000000  0.4260120000000  0.4306490000000 1.0
C      1  0.5984760000000  0.5453760000000  0.5123630000000 1.0
C      1  0.4242860000000  0.5510020000000  0.4263690000000 1.0
C      1  0.5907750000000  0.4399940000000  0.4349210000000 1.0
C      1  0.5305950000000  0.6002940000000  0.4550990000000 1.0
C      1  0.4617230000000  0.4850020000000  0.5443880000000 1.0
C      1  0.5154460000000  0.4993800000000  0.4091280000000 1.0
C      1  0.4813440000000  0.5331760000000  0.5357660000000 1.0
C      1  0.4685160000000  0.5178710000000  0.4069430000000 1.0
C      1  0.5627090000000  0.5778070000000  0.5161860000000 1.0
C      1  0.5753610000000  0.5153860000000  0.5503400000000 1.0
C      1  0.4778410000000  0.3985700000000  0.5015840000000 1.0
C      1  0.5030980000000  0.4736660000000  0.5751520000000 1.0
C      1  0.5369830000000  0.6269540000000  0.4976750000000 1.0
C      1  0.4456620000000  0.5422250000000  0.4787450000000 1.0
C      1  0.5870700000000  0.5263520000000  0.4954650000000 1.0
C      1  0.5405250000000  0.5400300000000  0.4062890000000 1.0
C      1  0.4671780000000  0.5310700000000  0.4619460000000 1.0
C      1  0.4184710000000  0.5728220000000  0.5517570000000 1.0
C      1  0.4218870000000  0.5984810000000  0.5083980000000 1.0
C      1  0.4907750000000  0.5493880000000  0.5570080000000 1.0
C      1  0.4460430000000  0.5149730000000  0.5895110000000 1.0
C      1  0.5350290000000  0.5133620000000  0.6045930000000 1.0
C      1  0.5180610000000  0.5429410000000  0.5673460000000 1.0
C      1  0.5246650000000  0.4249890000000  0.5343320000000 1.0
C      1  0.4868150000000  0.5347050000000  0.5072680000000 1.0
C      1  0.5019750000000  0.4788470000000  0.3937500000000 1.0
C      1  0.5898670000000  0.4883130000000  0.5471080000000 1.0
C      1  0.4584890000000  0.6064080000000  0.4768890000000 1.0
C      1  0.5041880000000  0.3926870000000  0.5105200000000 1.0
C      1  0.5398080000000  0.5372670000000  0.5054810000000 1.0
C      1  0.6022030000000  0.4065150000000  0.4889080000000 1.0
C      1  0.6029430000000  0.4551260000000  0.4832000000000 1.0
C      1  0.5676740000000  0.3513440000000  0.4528800000000 1.0
C      1  0.4683940000000  0.6107200000000  0.5863140000000 1.0
C      1  0.4137740000000  0.5245320000000  0.4245380000000 1.0
C      1  0.4904350000000  0.5836910000000  0.4300050000000 1.0
C      1  0.5293110000000  0.5209330000000  0.5260880000000 1.0
C      1  0.4878810000000  0.4510010000000  0.5668260000000 1.0
C      1  0.4606550000000  0.4003730000000  0.5639980000000 1.0
C      1  0.4488390000000  0.4655400000000  0.5940840000000 1.0
C      1  0.5521110000000  0.5083250000000  0.5354120000000 1.0
C      1  0.5270660000000  0.5560920000000  0.4912900000000 1.0
C      1  0.4356450000000  0.5253130000000  0.5001220000000 1.0
C      1  0.4416900000000  0.4222830000000  0.5609750000000 1.0
C      1  0.3713870000000  0.4874630000000  0.4683070000000 1.0
C      1  0.4335720000000  0.4426730000000  0.4614610000000 1.0
C      1  0.4566610000000  0.4805250000000  0.5023010000000 1.0
C      1  0.4343030000000  0.4900770000000  0.5488470000000 1.0
C      1  0.5222360000000  0.4468740000000  0.5163490000000 1.0
C      1  0.4096510000000  0.4798450000000  0.5460120000000 1.0
C      1  0.6041910000000  0.4501720000000  0.4555900000000 1.0
C      1  0.5310660000000  0.3928540000000  0.5000190000000 1.0
C      1  0.5256970000000  0.4728570000000  0.5311330000000 1.0
C      1  0.4062420000000  0.4978450000000  0.4319470000000 1.0
C      1  0.5792910000000  0.3896540000000  0.4884910000000 1.0
C      1  0.4588740000000  0.4823810000000  0.4409350000000 1.0
C      1  0.4581380000000  0.4544030000000  0.4519000000000 1.0
C      1  0.4670730000000  0.5024520000000  0.4593590000000 1.0
C      1  0.5201350000000  0.4321240000000  0.4450070000000 1.0
C      1  0.5973800000000  0.4326030000000  0.5004160000000 1.0
C      1  0.5845800000000  0.4815580000000  0.5179520000000 1.0
C      1  0.5089010000000  0.4507550000000  0.4644490000000 1.0
C      1  0.5785490000000  0.5439540000000  0.4451990000000 1.0
C      1  0.5527210000000  0.4756840000000  0.5757860000000 1.0
C      1  0.4686350000000  0.4570430000000  0.5450110000000 1.0
C      1  0.4361320000000  0.5914800000000  0.4853610000000 1.0
C      1  0.5761410000000  0.3675960000000  0.4720530000000 1.0
C      1  0.4887600000000  0.4038410000000  0.5604150000000 1.0
C      1  0.5273230000000  0.4548760000000  0.4886670000000 1.0
C      1  0.3980180000000  0.4908890000000  0.4589930000000 1.0
C      1  0.5989100000000  0.4815110000000  0.4927200000000 1.0
C      1  0.5563790000000  0.3386900000000  0.4330990000000 1.0
C      1  0.4593260000000  0.4145960000000  0.5135030000000 1.0
C      1  0.5639110000000  0.5845150000000  0.4870250000000 1.0
C      1  0.4983250000000  0.5558230000000  0.4896850000000 1.0
C      1  0.5754460000000  0.4654440000000  0.5605780000000 1.0
C      1  0.4635070000000  0.4912700000000  0.4144110000000 1.0
C      1  0.5073220000000  0.4789230000000  0.4551850000000 1.0
C      1  0.4740140000000  0.4722010000000  0.3954060000000 1.0
C      1  0.4905390000000  0.4941120000000  0.4733690000000 1.0
C      1  0.4309070000000  0.5345360000000  0.5265830000000 1.0
C      1  0.5104600000000  0.5245990000000  0.5924780000000 1.0
C      1  0.5439750000000  0.4273820000000  0.5559630000000 1.0
C      1  0.4883140000000  0.5387200000000  0.4060240000000 1.0
C      1  0.4827410000000  0.5039810000000  0.5410510000000 1.0
C      1  0.5188920000000  0.4967490000000  0.4370980000000 1.0
C      1  0.5676990000000  0.4299220000000  0.4261830000000 1.0
C      1  0.5635210000000  0.5400970000000  0.4206380000000 1.0
C      1  0.4511920000000  0.4577720000000  0.3865580000000 1.0
C      1  0.4956460000000  0.5402830000000  0.4627290000000 1.0
C      1  0.4717360000000  0.5556300000000  0.5805800000000 1.0
C      1  0.5238840000000  0.5192560000000  0.4554410000000 1.0
C      1  0.5440090000000  0.4801870000000  0.4881430000000 1.0
C      1  0.5447100000000  0.5064400000000  0.4741850000000 1.0
C      1  0.6002130000000  0.5075100000000  0.4784220000000 1.0
C      1  0.4465180000000  0.5395600000000  0.5751080000000 1.0
C      1  0.4621280000000  0.4917510000000  0.5941030000000 1.0
C      1  0.5135500000000  0.5926200000000  0.5209000000000 1.0
C      1  0.4719200000000  0.4589660000000  0.4962230000000 1.0
C      1  0.4257830000000  0.4624380000000  0.3955800000000 1.0
C      1  0.4795340000000  0.4475980000000  0.4711330000000 1.0
C      1  0.3749580000000  0.4658880000000  0.5142020000000 1.0
C      1  0.4908230000000  0.4946900000000  0.5890480000000 1.0
C      1  0.4953820000000  0.5069670000000  0.4977120000000 1.0
C      1  0.5411750000000  0.5561420000000  0.5548570000000 1.0
C      1  0.4165560000000  0.4825920000000  0.4791780000000 1.0
C      1  0.4396030000000  0.4421720000000  0.5826530000000 1.0
C      1  0.5966420000000  0.5215730000000  0.4528100000000 1.0
C      1  0.5073240000000  0.4972740000000  0.5236790000000 1.0
C      1  0.4307460000000  0.5474140000000  0.5521300000000 1.0
C      1  0.5686860000000  0.5684850000000  0.4598570000000 1.0
C      1  0.5822370000000  0.5606020000000  0.5296480000000 1.0
C      1  0.5492170000000  0.5828050000000  0.4419910000000 1.0
C      1  0.5595570000000  0.5250480000000  0.4903040000000 1.0
C      1  0.5581890000000  0.4013550000000  0.5041380000000 1.0
C      1  0.4719220000000  0.6365650000000  0.5871560000000 1.0
END
