TITL C-3866674-3872-293 89.3898630934446 125000 -963.664979977545 0 0 156 (C1) n - 1
REM
REM in /home/nfs/bkarasulu/CARBON/AIRSS/Generating-Clusters/LCBOP/Only-C1/SD-CG/FIRE-CG
REM
REM
REM
REM
REM
REM ./C.cell (11c1c37f851c82e70ff6c80c92926a4b)
REM AIRSS Version 0.9.1 bugfix July 2018 build 013d7b7c2542+ Fri, 06 Jul 2018 19:26:36 +0100
REM compiler GCC version 9.2.1 20190827 (Red Hat 9.2.1-1)
REM options -cpp -mtune=generic -march=x86-64 -g -O0 -fpre-include=/usr/include/finclude/math-vector-fortran.h
REM seed 1020090334 -349137062 1613031224 -581280306 284723035 338183789 2024620524 -1328245152 -1442453037 1476859243 445860450 1614760807 1137603486 1861098238 -1370689115 -1949341821 1653837898 1251777913 1725241858 1018252946 -1375451942 2107408069 1727522527 -117860224 -1591468874 1677490820 -764715457 -1778060936 1399422852 2057680512 1356926756 -1030146332 784110461
REM
CELL 1.54180   50.00000   50.00000   50.00000   90.00000   90.00000   90.00000
LATT -1
SFAC C  
C      1  0.5034490000000  0.6257290000000  0.5482280000000 1.0
C      1  0.4648020000000  0.4712150000000  0.5309660000000 1.0
C      1  0.4922670000000  0.4081410000000  0.4278830000000 1.0
C      1  0.5406730000000  0.5749340000000  0.5326340000000 1.0
C      1  0.3560890000000  0.4540940000000  0.4193600000000 1.0
C      1  0.4293730000000  0.5961550000000  0.4577820000000 1.0
C      1  0.5607400000000  0.4626530000000  0.4813840000000 1.0
C      1  0.5768360000000  0.4619950000000  0.5788210000000 1.0
C      1  0.5103410000000  0.5438130000000  0.4478890000000 1.0
C      1  0.4116560000000  0.4770550000000  0.5823930000000 1.0
C      1  0.4468460000000  0.5469360000000  0.5943200000000 1.0
C      1  0.4684220000000  0.4500860000000  0.4655330000000 1.0
C      1  0.5829140000000  0.4623740000000  0.3845710000000 1.0
C      1  0.5899420000000  0.4686120000000  0.5307550000000 1.0
C      1  0.4780690000000  0.4245810000000  0.5844680000000 1.0
C      1  0.5828280000000  0.5764390000000  0.4502300000000 1.0
C      1  0.5245050000000  0.4276890000000  0.5110490000000 1.0
C      1  0.4957760000000  0.4360560000000  0.4194030000000 1.0
C      1  0.4424060000000  0.4082620000000  0.4513420000000 1.0
C      1  0.5622170000000  0.4905140000000  0.4875760000000 1.0
C      1  0.5940170000000  0.5339320000000  0.4620280000000 1.0
C      1  0.4175300000000  0.4536220000000  0.4713000000000 1.0
C      1  0.4964320000000  0.5580860000000  0.4674140000000 1.0
C      1  0.5032270000000  0.5074160000000  0.3989640000000 1.0
C      1  0.4609030000000  0.5581240000000  0.4962820000000 1.0
C      1  0.4985130000000  0.5101700000000  0.4850220000000 1.0
C      1  0.4993190000000  0.4266800000000  0.5670570000000 1.0
C      1  0.5546150000000  0.5447890000000  0.4269850000000 1.0
C      1  0.5110460000000  0.4771200000000  0.5769750000000 1.0
C      1  0.5453060000000  0.6015890000000  0.5720710000000 1.0
C      1  0.4874290000000  0.6185280000000  0.4860600000000 1.0
C      1  0.4685550000000  0.5416970000000  0.4146100000000 1.0
C      1  0.4417200000000  0.6086480000000  0.5026870000000 1.0
C      1  0.5286690000000  0.4112900000000  0.4541080000000 1.0
C      1  0.4473490000000  0.5347490000000  0.5095820000000 1.0
C      1  0.5334170000000  0.4851020000000  0.4506630000000 1.0
C      1  0.5795250000000  0.5050970000000  0.5054400000000 1.0
C      1  0.4991960000000  0.4414430000000  0.5079710000000 1.0
C      1  0.5171110000000  0.4468750000000  0.5741040000000 1.0
C      1  0.5062400000000  0.4816870000000  0.4871760000000 1.0
C      1  0.4262430000000  0.5907080000000  0.4860100000000 1.0
C      1  0.5101560000000  0.6025900000000  0.4931730000000 1.0
C      1  0.5411170000000  0.5286790000000  0.4792180000000 1.0
C      1  0.5709040000000  0.6141910000000  0.5285800000000 1.0
C      1  0.5767200000000  0.4436100000000  0.5239660000000 1.0
C      1  0.5233140000000  0.4470480000000  0.4173600000000 1.0
C      1  0.4882510000000  0.4918380000000  0.4188830000000 1.0
C      1  0.4889700000000  0.5975740000000  0.4158530000000 1.0
C      1  0.5442600000000  0.4474310000000  0.6121320000000 1.0
C      1  0.4829120000000  0.5756010000000  0.5686490000000 1.0
C      1  0.4201280000000  0.5076700000000  0.4474010000000 1.0
C      1  0.4149050000000  0.5637610000000  0.4917340000000 1.0
C      1  0.4692270000000  0.5067270000000  0.4868600000000 1.0
C      1  0.5351890000000  0.4371090000000  0.4425350000000 1.0
C      1  0.4185810000000  0.5017340000000  0.5904450000000 1.0
C      1  0.5031730000000  0.5169250000000  0.4552670000000 1.0
C      1  0.4226620000000  0.5125970000000  0.4761780000000 1.0
C      1  0.5525850000000  0.4960440000000  0.5583750000000 1.0
C      1  0.5274180000000  0.4316480000000  0.6295200000000 1.0
C      1  0.5081000000000  0.5566550000000  0.4924690000000 1.0
C      1  0.4448580000000  0.4938570000000  0.4829450000000 1.0
C      1  0.4793840000000  0.6164630000000  0.5354840000000 1.0
C      1  0.5787740000000  0.5760010000000  0.4787720000000 1.0
C      1  0.4123660000000  0.5544070000000  0.4300670000000 1.0
C      1  0.5250940000000  0.6173680000000  0.5626780000000 1.0
C      1  0.5777970000000  0.4804180000000  0.5552480000000 1.0
C      1  0.4975980000000  0.3880440000000  0.5322090000000 1.0
C      1  0.4232590000000  0.5285720000000  0.4277830000000 1.0
C      1  0.5874380000000  0.5492240000000  0.4871210000000 1.0
C      1  0.4639830000000  0.5881750000000  0.4260430000000 1.0
C      1  0.4386540000000  0.4845310000000  0.4389510000000 1.0
C      1  0.4574530000000  0.4435830000000  0.5864600000000 1.0
C      1  0.4582330000000  0.4207140000000  0.4734870000000 1.0
C      1  0.4756370000000  0.4445110000000  0.5255080000000 1.0
C      1  0.4431610000000  0.4691500000000  0.4654210000000 1.0
C      1  0.4777330000000  0.4501100000000  0.4365050000000 1.0
C      1  0.5340270000000  0.4192590000000  0.5369810000000 1.0
C      1  0.4484720000000  0.5219000000000  0.4145190000000 1.0
C      1  0.4680380000000  0.6202890000000  0.5080850000000 1.0
C      1  0.5270200000000  0.5899400000000  0.4481210000000 1.0
C      1  0.4660860000000  0.5218550000000  0.5298190000000 1.0
C      1  0.4020440000000  0.4460180000000  0.5172230000000 1.0
C      1  0.5403700000000  0.4353020000000  0.5862130000000 1.0
C      1  0.4731260000000  0.5898800000000  0.5444100000000 1.0
C      1  0.4547670000000  0.6057770000000  0.4477180000000 1.0
C      1  0.5836540000000  0.5333520000000  0.5109010000000 1.0
C      1  0.5317380000000  0.5607780000000  0.4377260000000 1.0
C      1  0.4884550000000  0.4813880000000  0.5957710000000 1.0
C      1  0.4590910000000  0.4948970000000  0.4208850000000 1.0
C      1  0.4410510000000  0.4227270000000  0.4988450000000 1.0
C      1  0.3755290000000  0.4538130000000  0.4367260000000 1.0
C      1  0.5396560000000  0.4888330000000  0.5850570000000 1.0
C      1  0.5668500000000  0.4408700000000  0.4975500000000 1.0
C      1  0.4641070000000  0.5611350000000  0.4356220000000 1.0
C      1  0.5565510000000  0.5934050000000  0.5180170000000 1.0
C      1  0.5802410000000  0.5492200000000  0.4398850000000 1.0
C      1  0.5696620000000  0.4664550000000  0.4085210000000 1.0
C      1  0.3956560000000  0.4539730000000  0.4539480000000 1.0
C      1  0.5186150000000  0.5300540000000  0.4989510000000 1.0
C      1  0.5011170000000  0.4021700000000  0.4552500000000 1.0
C      1  0.4914990000000  0.5340190000000  0.3985700000000 1.0
C      1  0.5040120000000  0.6061990000000  0.4391670000000 1.0
C      1  0.4445190000000  0.4120240000000  0.5526620000000 1.0
C      1  0.4359290000000  0.4359200000000  0.5690710000000 1.0
C      1  0.4763180000000  0.5705600000000  0.5206830000000 1.0
C      1  0.6009710000000  0.4848530000000  0.5077870000000 1.0
C      1  0.4275870000000  0.3964170000000  0.4334940000000 1.0
C      1  0.5091520000000  0.4110670000000  0.6276470000000 1.0
C      1  0.5303750000000  0.5041560000000  0.5414540000000 1.0
C      1  0.5016720000000  0.3612670000000  0.5358330000000 1.0
C      1  0.4931770000000  0.4571370000000  0.4847940000000 1.0
C      1  0.4901620000000  0.3949280000000  0.6156880000000 1.0
C      1  0.5644770000000  0.4361120000000  0.5708700000000 1.0
C      1  0.5577840000000  0.4720600000000  0.6017560000000 1.0
C      1  0.5645940000000  0.5821790000000  0.5707640000000 1.0
C      1  0.5471160000000  0.4211650000000  0.4950500000000 1.0
C      1  0.4817580000000  0.5444860000000  0.5372120000000 1.0
C      1  0.5840240000000  0.5457420000000  0.5368250000000 1.0
C      1  0.5106220000000  0.4078040000000  0.5489610000000 1.0
C      1  0.5019430000000  0.5793150000000  0.5073930000000 1.0
C      1  0.4650160000000  0.4681020000000  0.5977220000000 1.0
C      1  0.5071870000000  0.4930360000000  0.4409240000000 1.0
C      1  0.5335160000000  0.5971880000000  0.4758980000000 1.0
C      1  0.5860260000000  0.4659050000000  0.4325250000000 1.0
C      1  0.5607830000000  0.4291610000000  0.5438320000000 1.0
C      1  0.5318580000000  0.5000550000000  0.4009760000000 1.0
C      1  0.5259670000000  0.5529140000000  0.5428440000000 1.0
C      1  0.5478060000000  0.5043770000000  0.4676390000000 1.0
C      1  0.4579790000000  0.4183410000000  0.5241980000000 1.0
C      1  0.4157070000000  0.4554730000000  0.5644340000000 1.0
C      1  0.6108040000000  0.5114620000000  0.4660940000000 1.0
C      1  0.5783690000000  0.5624770000000  0.5576330000000 1.0
C      1  0.4172980000000  0.4378550000000  0.4950760000000 1.0
C      1  0.4222690000000  0.5350260000000  0.4942860000000 1.0
C      1  0.4314420000000  0.5250060000000  0.5938460000000 1.0
C      1  0.4370440000000  0.4751640000000  0.5285400000000 1.0
C      1  0.4832570000000  0.4027740000000  0.4798590000000 1.0
C      1  0.5278180000000  0.5282960000000  0.5273500000000 1.0
C      1  0.4804000000000  0.3980750000000  0.5113260000000 1.0
C      1  0.4790310000000  0.4954590000000  0.5374090000000 1.0
C      1  0.5455860000000  0.4030040000000  0.4744620000000 1.0
C      1  0.4137770000000  0.4619540000000  0.5370280000000 1.0
C      1  0.4645530000000  0.5661040000000  0.5879130000000 1.0
C      1  0.4539210000000  0.3900140000000  0.5712270000000 1.0
C      1  0.6097410000000  0.4843980000000  0.4778450000000 1.0
C      1  0.4723950000000  0.3977510000000  0.5929380000000 1.0
C      1  0.5006800000000  0.5551260000000  0.5569000000000 1.0
C      1  0.4678300000000  0.5589850000000  0.4660320000000 1.0
C      1  0.5488380000000  0.5221470000000  0.4099290000000 1.0
C      1  0.4812780000000  0.6159300000000  0.4580970000000 1.0
C      1  0.6010810000000  0.4673640000000  0.4554730000000 1.0
C      1  0.5401480000000  0.4707220000000  0.4063700000000 1.0
C      1  0.4140430000000  0.5793080000000  0.4403610000000 1.0
C      1  0.5437750000000  0.4589700000000  0.4582320000000 1.0
C      1  0.5052780000000  0.4918640000000  0.5501350000000 1.0
C      1  0.5573730000000  0.5902700000000  0.4898490000000 1.0
END
