TITL C-3866673-4222-312 1.23288272231714 125000 -267.599546864371 0 0 45 (C1) n - 1
REM
REM in /home/nfs/bkarasulu/CARBON/AIRSS/Generating-Clusters/LCBOP/Only-C1/SD-CG/FIRE-CG
REM
REM
REM
REM
REM
REM ./C.cell (11c1c37f851c82e70ff6c80c92926a4b)
REM AIRSS Version 0.9.1 bugfix July 2018 build 013d7b7c2542+ Fri, 06 Jul 2018 19:26:36 +0100
REM compiler GCC version 9.2.1 20190827 (Red Hat 9.2.1-1)
REM options -cpp -mtune=generic -march=x86-64 -g -O0 -fpre-include=/usr/include/finclude/math-vector-fortran.h
REM seed -1873125100 303654383 -1949173308 -506210155 -1971677079 -383399464 -456082839 655927333 1371107719 759784453 691277590 1186058595 -958620557 -2130659475 1417437715 -875067537 -1686205519 -526323547 -1679453597 1308596177 1470438813 -978919511 -853790305 211331325 -1699136124 194642061 2079414518 -1482521595 1874956292 1331211437 88040311 395893031 -952377082
REM
CELL 1.54180   50.00000   50.00000   50.00000   90.00000   90.00000   90.00000
LATT -1
SFAC C  
C      1  0.5154930000000  0.5301370000000  0.5086820000000 1.0
C      1  0.4392330000000  0.5219540000000  0.5080210000000 1.0
C      1  0.4429860000000  0.5446640000000  0.5214190000000 1.0
C      1  0.4716120000000  0.4975670000000  0.5698080000000 1.0
C      1  0.5517320000000  0.5248650000000  0.3967920000000 1.0
C      1  0.4759710000000  0.4715470000000  0.4464080000000 1.0
C      1  0.4398590000000  0.4426420000000  0.4622710000000 1.0
C      1  0.5185880000000  0.5741130000000  0.4849880000000 1.0
C      1  0.4601970000000  0.5605330000000  0.5369830000000 1.0
C      1  0.4622060000000  0.3667650000000  0.4793120000000 1.0
C      1  0.5462290000000  0.5704340000000  0.4781840000000 1.0
C      1  0.4457270000000  0.4979770000000  0.4985480000000 1.0
C      1  0.4682790000000  0.5858990000000  0.5277640000000 1.0
C      1  0.4149850000000  0.4488550000000  0.4527260000000 1.0
C      1  0.4699350000000  0.3421080000000  0.4851860000000 1.0
C      1  0.5532550000000  0.5445970000000  0.4681320000000 1.0
C      1  0.5666370000000  0.5259000000000  0.5537900000000 1.0
C      1  0.4793040000000  0.4654050000000  0.5112250000000 1.0
C      1  0.4941540000000  0.4828170000000  0.4307850000000 1.0
C      1  0.4848780000000  0.5997100000000  0.5118660000000 1.0
C      1  0.4468680000000  0.4161220000000  0.4676470000000 1.0
C      1  0.4608970000000  0.4751910000000  0.4925010000000 1.0
C      1  0.4963360000000  0.4691280000000  0.5332000000000 1.0
C      1  0.5833260000000  0.5464280000000  0.5498930000000 1.0
C      1  0.4757460000000  0.5466790000000  0.5565840000000 1.0
C      1  0.5341460000000  0.5099180000000  0.4983800000000 1.0
C      1  0.5037500000000  0.5476760000000  0.5535570000000 1.0
C      1  0.4589440000000  0.4631510000000  0.4668910000000 1.0
C      1  0.5131550000000  0.4961020000000  0.4179530000000 1.0
C      1  0.4544800000000  0.3914230000000  0.4734390000000 1.0
C      1  0.5403900000000  0.4945660000000  0.5227340000000 1.0
C      1  0.5055560000000  0.5498510000000  0.4918050000000 1.0
C      1  0.4661960000000  0.5238210000000  0.5700170000000 1.0
C      1  0.5494590000000  0.5191080000000  0.4766350000000 1.0
C      1  0.4852700000000  0.2931860000000  0.4968410000000 1.0
C      1  0.4776670000000  0.3174440000000  0.4910620000000 1.0
C      1  0.5208500000000  0.5335850000000  0.5368950000000 1.0
C      1  0.5051130000000  0.5969670000000  0.4942970000000 1.0
C      1  0.5885630000000  0.5678750000000  0.5348750000000 1.0
C      1  0.4844420000000  0.4777900000000  0.5572080000000 1.0
C      1  0.5661540000000  0.5845580000000  0.4920520000000 1.0
C      1  0.5429140000000  0.5156480000000  0.5433810000000 1.0
C      1  0.5819210000000  0.5824720000000  0.5135350000000 1.0
C      1  0.5240970000000  0.4724120000000  0.5288900000000 1.0
C      1  0.5325030000000  0.5104110000000  0.4068400000000 1.0
END
