TITL C-3866675-3766-709 0.542025248364748 125000 -721.314355768449 0 0 118 (C1) n - 1
REM
REM in /home/nfs/bkarasulu/CARBON/AIRSS/Generating-Clusters/LCBOP/Only-C1/SD-CG/FIRE-CG
REM
REM
REM
REM
REM
REM ./C.cell (11c1c37f851c82e70ff6c80c92926a4b)
REM AIRSS Version 0.9.1 bugfix July 2018 build 013d7b7c2542+ Fri, 06 Jul 2018 19:26:36 +0100
REM compiler GCC version 9.2.1 20190827 (Red Hat 9.2.1-1)
REM options -cpp -mtune=generic -march=x86-64 -g -O0 -fpre-include=/usr/include/finclude/math-vector-fortran.h
REM seed -1157110239 470679921 -1371702566 1422189777 -1614408436 -1589975994 -20692634 -537018362 775693288 -1765691151 -696992798 -6756591 1250404373 847666714 -113216441 445288708 162294397 1865657081 -115905658 -1238345932 1601891304 -1469232020 1745380328 1470612601 -400188411 -1392751857 591590358 1764995351 1552349872 824153711 -1959680330 -71175482 -1669367243
REM
CELL 1.54180   50.00000   50.00000   50.00000   90.00000   90.00000   90.00000
LATT -1
SFAC C  
C      1  0.4266730000000  0.4303120000000  0.5066940000000 1.0
C      1  0.5740680000000  0.5110700000000  0.5881710000000 1.0
C      1  0.5369490000000  0.4571580000000  0.5298080000000 1.0
C      1  0.5235530000000  0.4718070000000  0.4515880000000 1.0
C      1  0.5378680000000  0.5110770000000  0.5231590000000 1.0
C      1  0.4089640000000  0.4660390000000  0.5730310000000 1.0
C      1  0.4706860000000  0.4834380000000  0.5332070000000 1.0
C      1  0.4561820000000  0.3591500000000  0.4837850000000 1.0
C      1  0.4348080000000  0.5326580000000  0.5046590000000 1.0
C      1  0.3812010000000  0.5102230000000  0.3216690000000 1.0
C      1  0.4843010000000  0.4590880000000  0.5312240000000 1.0
C      1  0.5976090000000  0.5188830000000  0.4921840000000 1.0
C      1  0.5622900000000  0.5706280000000  0.4982330000000 1.0
C      1  0.5702650000000  0.5596900000000  0.5452760000000 1.0
C      1  0.5611890000000  0.4968570000000  0.5165910000000 1.0
C      1  0.5157500000000  0.4590680000000  0.4270400000000 1.0
C      1  0.5040060000000  0.4659870000000  0.4727490000000 1.0
C      1  0.5234470000000  0.3909330000000  0.4763280000000 1.0
C      1  0.4234780000000  0.5375790000000  0.3757340000000 1.0
C      1  0.5279730000000  0.4193780000000  0.4745890000000 1.0
C      1  0.4214070000000  0.4539420000000  0.5956370000000 1.0
C      1  0.5599110000000  0.5666460000000  0.5709850000000 1.0
C      1  0.4803160000000  0.3962250000000  0.4962580000000 1.0
C      1  0.4771360000000  0.5102030000000  0.4800340000000 1.0
C      1  0.4227130000000  0.5496270000000  0.5217330000000 1.0
C      1  0.5749350000000  0.4219230000000  0.4577260000000 1.0
C      1  0.4678990000000  0.5227240000000  0.4319850000000 1.0
C      1  0.4451920000000  0.5780850000000  0.5547700000000 1.0
C      1  0.5536530000000  0.4311250000000  0.4757200000000 1.0
C      1  0.5988500000000  0.4347430000000  0.4632770000000 1.0
C      1  0.4881500000000  0.5889930000000  0.5810490000000 1.0
C      1  0.4479830000000  0.4482230000000  0.5008850000000 1.0
C      1  0.4920370000000  0.5662150000000  0.5179180000000 1.0
C      1  0.4775040000000  0.4105500000000  0.5837950000000 1.0
C      1  0.4786630000000  0.5008690000000  0.6021120000000 1.0
C      1  0.4793530000000  0.5241700000000  0.5544610000000 1.0
C      1  0.5830980000000  0.5333440000000  0.5413530000000 1.0
C      1  0.5672470000000  0.4521240000000  0.4928950000000 1.0
C      1  0.5873660000000  0.5448170000000  0.4500420000000 1.0
C      1  0.4792380000000  0.4817060000000  0.4777600000000 1.0
C      1  0.4906870000000  0.5887570000000  0.5351080000000 1.0
C      1  0.5014410000000  0.4348380000000  0.4741630000000 1.0
C      1  0.4254100000000  0.5591390000000  0.5481950000000 1.0
C      1  0.4845440000000  0.5288640000000  0.4566810000000 1.0
C      1  0.5403960000000  0.5211170000000  0.4090040000000 1.0
C      1  0.4317280000000  0.4030990000000  0.4998800000000 1.0
C      1  0.5114040000000  0.4556840000000  0.5374230000000 1.0
C      1  0.5138940000000  0.5312630000000  0.4500060000000 1.0
C      1  0.5250210000000  0.5093130000000  0.5487210000000 1.0
C      1  0.4857190000000  0.4301490000000  0.4476940000000 1.0
C      1  0.4359540000000  0.3413710000000  0.4800580000000 1.0
C      1  0.5298650000000  0.5481190000000  0.4660440000000 1.0
C      1  0.5471530000000  0.5042350000000  0.5937140000000 1.0
C      1  0.5570960000000  0.4685300000000  0.5134410000000 1.0
C      1  0.4842610000000  0.3545610000000  0.4773090000000 1.0
C      1  0.5346160000000  0.5406260000000  0.6234950000000 1.0
C      1  0.4643460000000  0.5257800000000  0.5040620000000 1.0
C      1  0.5664170000000  0.4999850000000  0.4583930000000 1.0
C      1  0.5711670000000  0.5535390000000  0.4277870000000 1.0
C      1  0.4024730000000  0.4932450000000  0.5744770000000 1.0
C      1  0.5333910000000  0.4951000000000  0.5709050000000 1.0
C      1  0.5060870000000  0.5310880000000  0.5498640000000 1.0
C      1  0.4820060000000  0.5771470000000  0.4484060000000 1.0
C      1  0.4572090000000  0.5452180000000  0.4175800000000 1.0
C      1  0.5284710000000  0.5140500000000  0.4333640000000 1.0
C      1  0.4723360000000  0.4406570000000  0.5138430000000 1.0
C      1  0.5382120000000  0.5760510000000  0.5868340000000 1.0
C      1  0.5044280000000  0.3094030000000  0.4562660000000 1.0
C      1  0.5628170000000  0.5360280000000  0.4073840000000 1.0
C      1  0.5065030000000  0.5904110000000  0.4435540000000 1.0
C      1  0.6256040000000  0.5192020000000  0.4930940000000 1.0
C      1  0.5298610000000  0.5145780000000  0.6141120000000 1.0
C      1  0.4869300000000  0.4233220000000  0.4977170000000 1.0
C      1  0.5360650000000  0.5650150000000  0.6125640000000 1.0
C      1  0.5111650000000  0.5478570000000  0.5273250000000 1.0
C      1  0.4718460000000  0.5179830000000  0.5807060000000 1.0
C      1  0.4888220000000  0.4495290000000  0.4265560000000 1.0
C      1  0.5846060000000  0.5788780000000  0.4835990000000 1.0
C      1  0.4123370000000  0.5439450000000  0.5678210000000 1.0
C      1  0.4042700000000  0.5197330000000  0.5754010000000 1.0
C      1  0.3766880000000  0.5375380000000  0.3185520000000 1.0
C      1  0.4042740000000  0.4511380000000  0.5497060000000 1.0
C      1  0.4713660000000  0.5874300000000  0.5573160000000 1.0
C      1  0.4087960000000  0.4383130000000  0.5267630000000 1.0
C      1  0.4795710000000  0.5572250000000  0.4690170000000 1.0
C      1  0.4061490000000  0.4419270000000  0.6149430000000 1.0
C      1  0.5414000000000  0.5970830000000  0.5325820000000 1.0
C      1  0.5950430000000  0.4525660000000  0.4840870000000 1.0
C      1  0.5831630000000  0.5158520000000  0.5169580000000 1.0
C      1  0.5409840000000  0.4933300000000  0.4484500000000 1.0
C      1  0.4686830000000  0.5113280000000  0.5312070000000 1.0
C      1  0.4762060000000  0.5548740000000  0.4975760000000 1.0
C      1  0.4644920000000  0.4316510000000  0.5918340000000 1.0
C      1  0.4651630000000  0.5709790000000  0.4263990000000 1.0
C      1  0.6516380000000  0.5200140000000  0.4938830000000 1.0
C      1  0.4398280000000  0.5419580000000  0.3960920000000 1.0
C      1  0.4065630000000  0.5323810000000  0.3546070000000 1.0
C      1  0.4994940000000  0.3781190000000  0.4839790000000 1.0
C      1  0.4533130000000  0.3857480000000  0.4948930000000 1.0
C      1  0.5169480000000  0.5966860000000  0.5462360000000 1.0
C      1  0.4698650000000  0.4696170000000  0.4203540000000 1.0
C      1  0.5609560000000  0.5779390000000  0.5252850000000 1.0
C      1  0.5985850000000  0.5665330000000  0.4643220000000 1.0
C      1  0.5165930000000  0.5903180000000  0.5750070000000 1.0
C      1  0.4540470000000  0.4678880000000  0.4815490000000 1.0
C      1  0.3915140000000  0.5513030000000  0.3378780000000 1.0
C      1  0.5322000000000  0.5896190000000  0.4356550000000 1.0
C      1  0.5313640000000  0.5361930000000  0.5111320000000 1.0
C      1  0.4630800000000  0.4779390000000  0.6059120000000 1.0
C      1  0.5874560000000  0.5197510000000  0.5663100000000 1.0
C      1  0.3989210000000  0.5064750000000  0.3429940000000 1.0
C      1  0.4647270000000  0.4958940000000  0.4232620000000 1.0
C      1  0.5425720000000  0.5514940000000  0.4904350000000 1.0
C      1  0.4946780000000  0.3312970000000  0.4665010000000 1.0
C      1  0.5033540000000  0.5046260000000  0.6152570000000 1.0
C      1  0.5555200000000  0.5773320000000  0.4303110000000 1.0
C      1  0.4497580000000  0.4545700000000  0.5980960000000 1.0
C      1  0.5845770000000  0.5203870000000  0.4659920000000 1.0
END
