TITL C-3866672-3872-256 0.235209226236177 125000 -628.953844476697 0 0 104 (C1) n - 1
REM
REM in /home/nfs/bkarasulu/CARBON/AIRSS/Generating-Clusters/LCBOP/Only-C1/SD-CG/HFTN-CG/FIRE-CG
REM
REM
REM
REM
REM
REM ./C.cell (11c1c37f851c82e70ff6c80c92926a4b)
REM AIRSS Version 0.9.1 bugfix July 2018 build 013d7b7c2542+ Fri, 06 Jul 2018 19:26:36 +0100
REM compiler GCC version 9.2.1 20190827 (Red Hat 9.2.1-1)
REM options -cpp -mtune=generic -march=x86-64 -g -O0 -fpre-include=/usr/include/finclude/math-vector-fortran.h
REM seed 1372815113 -1604034541 -1827075705 -1240043218 36203022 -1640154998 -1230538089 -70380871 -346314150 1497015862 1440835129 -1727619422 -748601555 1148969107 1773387889 -728388346 1548919824 2068807403 24795855 15471335 1620407884 357020760 -371030797 -1837967118 905127609 116810453 1889270194 139983857 1524486216 -2049738454 744635957 -17529868 483024151
REM
CELL 1.54180   50.00000   50.00000   50.00000   90.00000   90.00000   90.00000
LATT -1
SFAC C  
C      1  0.3890150000000  0.4959470000000  0.4619250000000 1.0
C      1  0.5639880000000  0.4591520000000  0.5025520000000 1.0
C      1  0.5317940000000  0.4291650000000  0.4580110000000 1.0
C      1  0.5250440000000  0.5439040000000  0.4647980000000 1.0
C      1  0.5772930000000  0.5667960000000  0.5332290000000 1.0
C      1  0.5329210000000  0.4930550000000  0.5429590000000 1.0
C      1  0.4951800000000  0.5049530000000  0.5691550000000 1.0
C      1  0.4553950000000  0.5469390000000  0.4726440000000 1.0
C      1  0.5252980000000  0.5277390000000  0.3956470000000 1.0
C      1  0.4872660000000  0.5731450000000  0.4392970000000 1.0
C      1  0.5555800000000  0.5415880000000  0.4322570000000 1.0
C      1  0.4863680000000  0.5224600000000  0.4998810000000 1.0
C      1  0.5354730000000  0.5962860000000  0.5469140000000 1.0
C      1  0.5467080000000  0.5204670000000  0.4150260000000 1.0
C      1  0.4933440000000  0.4898730000000  0.4611960000000 1.0
C      1  0.4179180000000  0.4976990000000  0.6038410000000 1.0
C      1  0.5983560000000  0.4980180000000  0.4519100000000 1.0
C      1  0.5315720000000  0.4450290000000  0.5722550000000 1.0
C      1  0.4987810000000  0.5452840000000  0.5128820000000 1.0
C      1  0.5578400000000  0.5836910000000  0.5399170000000 1.0
C      1  0.5002140000000  0.5003790000000  0.4873890000000 1.0
C      1  0.4597270000000  0.5234740000000  0.4890750000000 1.0
C      1  0.5080160000000  0.4833560000000  0.5543540000000 1.0
C      1  0.5912920000000  0.5451460000000  0.5265660000000 1.0
C      1  0.4347020000000  0.4581610000000  0.5453250000000 1.0
C      1  0.4691640000000  0.4405870000000  0.4529810000000 1.0
C      1  0.5258920000000  0.4878100000000  0.4945870000000 1.0
C      1  0.4644130000000  0.4463150000000  0.5976810000000 1.0
C      1  0.4267580000000  0.4756130000000  0.6161360000000 1.0
C      1  0.4151400000000  0.5604790000000  0.5170620000000 1.0
C      1  0.4448960000000  0.4532960000000  0.4603160000000 1.0
C      1  0.4957230000000  0.5719980000000  0.5036010000000 1.0
C      1  0.5123170000000  0.5528030000000  0.3994550000000 1.0
C      1  0.5198080000000  0.5390530000000  0.5305170000000 1.0
C      1  0.5532290000000  0.4768480000000  0.4456700000000 1.0
C      1  0.4678020000000  0.5092110000000  0.5628270000000 1.0
C      1  0.4946100000000  0.4683090000000  0.4192960000000 1.0
C      1  0.4345640000000  0.5785090000000  0.5082230000000 1.0
C      1  0.5454180000000  0.5106690000000  0.5832810000000 1.0
C      1  0.5515550000000  0.4637820000000  0.5798630000000 1.0
C      1  0.5774500000000  0.4772800000000  0.5416870000000 1.0
C      1  0.5430660000000  0.4129930000000  0.5088860000000 1.0
C      1  0.5559570000000  0.4886140000000  0.5627530000000 1.0
C      1  0.4792900000000  0.4886070000000  0.4354640000000 1.0
C      1  0.4500660000000  0.4974550000000  0.4853150000000 1.0
C      1  0.3825320000000  0.5110870000000  0.4847120000000 1.0
C      1  0.5331490000000  0.4580380000000  0.4531290000000 1.0
C      1  0.4756600000000  0.5486850000000  0.4515680000000 1.0
C      1  0.5542180000000  0.4258420000000  0.5329020000000 1.0
C      1  0.4873670000000  0.6055390000000  0.5489340000000 1.0
C      1  0.4398350000000  0.5038240000000  0.5585620000000 1.0
C      1  0.4526550000000  0.4947910000000  0.4279540000000 1.0
C      1  0.5693290000000  0.4505660000000  0.5294240000000 1.0
C      1  0.5361310000000  0.4595900000000  0.4962620000000 1.0
C      1  0.4149260000000  0.4699870000000  0.4946140000000 1.0
C      1  0.4394390000000  0.6022070000000  0.5234650000000 1.0
C      1  0.4028890000000  0.5043400000000  0.4379110000000 1.0
C      1  0.5951950000000  0.5246810000000  0.4549250000000 1.0
C      1  0.5336840000000  0.5589450000000  0.4410080000000 1.0
C      1  0.5131570000000  0.5027140000000  0.3883600000000 1.0
C      1  0.5328040000000  0.4303000000000  0.4880080000000 1.0
C      1  0.5394670000000  0.2803920000000  0.4946170000000 1.0
C      1  0.4626670000000  0.6040640000000  0.5391840000000 1.0
C      1  0.5418490000000  0.3589370000000  0.5034480000000 1.0
C      1  0.3964110000000  0.5121230000000  0.5096890000000 1.0
C      1  0.5410510000000  0.3326150000000  0.5004890000000 1.0
C      1  0.5433040000000  0.4919220000000  0.4226080000000 1.0
C      1  0.5778010000000  0.4817420000000  0.4628180000000 1.0
C      1  0.5063430000000  0.4571550000000  0.5664270000000 1.0
C      1  0.5428140000000  0.5115680000000  0.4991380000000 1.0
C      1  0.5134980000000  0.6094670000000  0.5583340000000 1.0
C      1  0.4993050000000  0.5342540000000  0.4588000000000 1.0
C      1  0.4519500000000  0.5720350000000  0.4868310000000 1.0
C      1  0.5182650000000  0.4812470000000  0.4077890000000 1.0
C      1  0.5885410000000  0.4929830000000  0.5175950000000 1.0
C      1  0.4779000000000  0.5853780000000  0.4859550000000 1.0
C      1  0.4286120000000  0.4846430000000  0.5397840000000 1.0
C      1  0.5691430000000  0.5345800000000  0.4573470000000 1.0
C      1  0.4445960000000  0.4560580000000  0.6125750000000 1.0
C      1  0.5177690000000  0.6270150000000  0.5797020000000 1.0
C      1  0.5218100000000  0.6433440000000  0.5996080000000 1.0
C      1  0.5408080000000  0.4230240000000  0.5575070000000 1.0
C      1  0.4254610000000  0.4874010000000  0.4311930000000 1.0
C      1  0.5116150000000  0.5671090000000  0.4242110000000 1.0
C      1  0.4833740000000  0.4475520000000  0.5790660000000 1.0
C      1  0.5402530000000  0.3062870000000  0.4975290000000 1.0
C      1  0.5364580000000  0.5167710000000  0.5267270000000 1.0
C      1  0.4111240000000  0.4884430000000  0.5168470000000 1.0
C      1  0.4889330000000  0.4448570000000  0.4738290000000 1.0
C      1  0.4429620000000  0.4697510000000  0.4851610000000 1.0
C      1  0.4025700000000  0.5372870000000  0.5200040000000 1.0
C      1  0.5426010000000  0.3852540000000  0.5063250000000 1.0
C      1  0.5804420000000  0.4794260000000  0.4920770000000 1.0
C      1  0.5963660000000  0.5196750000000  0.5205990000000 1.0
C      1  0.5177120000000  0.5165840000000  0.5846170000000 1.0
C      1  0.5068990000000  0.4649140000000  0.4630900000000 1.0
C      1  0.4857670000000  0.5935300000000  0.4595780000000 1.0
C      1  0.4007950000000  0.4699210000000  0.4685110000000 1.0
C      1  0.4230490000000  0.5100030000000  0.5805490000000 1.0
C      1  0.5116440000000  0.4217250000000  0.4371780000000 1.0
C      1  0.4210390000000  0.4625960000000  0.4468720000000 1.0
C      1  0.4216800000000  0.6230110000000  0.5224670000000 1.0
C      1  0.5477530000000  0.5303030000000  0.4777180000000 1.0
C      1  0.4884280000000  0.4399870000000  0.4292570000000 1.0
END
