TITL C-3866670-4165-254 8.81102948010579e-05 125000 -441.199926248865 0 0 74 (C1) n - 1
REM
REM in /home/nfs/bkarasulu/CARBON/AIRSS/Generating-Clusters/LCBOP/Only-C1/SD-CG/HFTN-CG/FIRE-CG
REM
REM
REM
REM
REM
REM ./C.cell (11c1c37f851c82e70ff6c80c92926a4b)
REM AIRSS Version 0.9.1 bugfix July 2018 build 013d7b7c2542+ Fri, 06 Jul 2018 19:26:36 +0100
REM compiler GCC version 9.2.1 20190827 (Red Hat 9.2.1-1)
REM options -cpp -mtune=generic -march=x86-64 -g -O0 -fpre-include=/usr/include/finclude/math-vector-fortran.h
REM seed 397270759 914979111 -2011084836 975611877 -239143476 -2125095337 1365069151 -1001408891 2112630960 638938421 1875656113 1902710630 294783507 590845909 133142631 -1236585737 959960226 -684694756 -648448042 -1615975724 -673017891 -849980636 -238695468 -2055407941 419421020 -972352713 489656074 -702507541 -1240077934 2079411830 -690784969 1363207193 -385712432
REM
CELL 1.54180   50.00000   50.00000   50.00000   90.00000   90.00000   90.00000
LATT -1
SFAC C  
C      1  0.4630170000000  0.3740900000000  0.5550900000000 1.0
C      1  0.4420780000000  0.5599820000000  0.4830500000000 1.0
C      1  0.5168500000000  0.4404910000000  0.5587600000000 1.0
C      1  0.5447610000000  0.5701890000000  0.5155570000000 1.0
C      1  0.5429960000000  0.5197270000000  0.5146050000000 1.0
C      1  0.4203050000000  0.5002850000000  0.4616520000000 1.0
C      1  0.4778040000000  0.4643160000000  0.6462180000000 1.0
C      1  0.5156490000000  0.5152940000000  0.5711870000000 1.0
C      1  0.4855060000000  0.5120420000000  0.4497920000000 1.0
C      1  0.4805310000000  0.4263010000000  0.5062520000000 1.0
C      1  0.5717610000000  0.5031740000000  0.4233600000000 1.0
C      1  0.5102850000000  0.4876170000000  0.5764330000000 1.0
C      1  0.5879620000000  0.5328490000000  0.4622450000000 1.0
C      1  0.5564690000000  0.4977890000000  0.4666750000000 1.0
C      1  0.4420450000000  0.5343940000000  0.4353680000000 1.0
C      1  0.5304540000000  0.5570250000000  0.4703170000000 1.0
C      1  0.5088880000000  0.5483040000000  0.4874640000000 1.0
C      1  0.5164090000000  0.4215590000000  0.5374800000000 1.0
C      1  0.4059150000000  0.4875760000000  0.4828660000000 1.0
C      1  0.5638120000000  0.5113300000000  0.5331800000000 1.0
C      1  0.5507210000000  0.4786500000000  0.4853820000000 1.0
C      1  0.4992100000000  0.4797750000000  0.6007700000000 1.0
C      1  0.5782620000000  0.5083470000000  0.4509910000000 1.0
C      1  0.5361680000000  0.4250220000000  0.5160680000000 1.0
C      1  0.4958870000000  0.5062730000000  0.5098690000000 1.0
C      1  0.5417210000000  0.5250540000000  0.5754480000000 1.0
C      1  0.4492630000000  0.5598390000000  0.5354990000000 1.0
C      1  0.4833750000000  0.4868970000000  0.4922420000000 1.0
C      1  0.5191440000000  0.5738070000000  0.5301330000000 1.0
C      1  0.4826410000000  0.5128710000000  0.5348790000000 1.0
C      1  0.5364590000000  0.4140800000000  0.4674450000000 1.0
C      1  0.4409850000000  0.4932210000000  0.5167940000000 1.0
C      1  0.5164710000000  0.5246150000000  0.5031230000000 1.0
C      1  0.5162600000000  0.4686930000000  0.5560470000000 1.0
C      1  0.4262290000000  0.5084370000000  0.4338690000000 1.0
C      1  0.5231250000000  0.4772700000000  0.5299230000000 1.0
C      1  0.5558210000000  0.4458820000000  0.5194870000000 1.0
C      1  0.4630140000000  0.5438840000000  0.4186680000000 1.0
C      1  0.5625590000000  0.5241280000000  0.5584390000000 1.0
C      1  0.4452740000000  0.5391840000000  0.4645810000000 1.0
C      1  0.4499860000000  0.4657420000000  0.4182530000000 1.0
C      1  0.5791070000000  0.4868710000000  0.5326010000000 1.0
C      1  0.4420570000000  0.5670890000000  0.5090460000000 1.0
C      1  0.5469450000000  0.4989570000000  0.4123170000000 1.0
C      1  0.4535500000000  0.5100880000000  0.5366040000000 1.0
C      1  0.4884170000000  0.4720090000000  0.6236830000000 1.0
C      1  0.5780590000000  0.4593470000000  0.5314380000000 1.0
C      1  0.4405460000000  0.5341220000000  0.5441290000000 1.0
C      1  0.5243630000000  0.4254950000000  0.4891050000000 1.0
C      1  0.4336410000000  0.4871050000000  0.4168620000000 1.0
C      1  0.4136520000000  0.4854340000000  0.5109620000000 1.0
C      1  0.5001690000000  0.5577940000000  0.5474470000000 1.0
C      1  0.4732990000000  0.5689570000000  0.5478790000000 1.0
C      1  0.4924990000000  0.4641370000000  0.4757540000000 1.0
C      1  0.5779640000000  0.5528240000000  0.4780010000000 1.0
C      1  0.4902290000000  0.4126830000000  0.5293050000000 1.0
C      1  0.5006000000000  0.4928580000000  0.4363640000000 1.0
C      1  0.5406900000000  0.4690230000000  0.5094540000000 1.0
C      1  0.3963700000000  0.4766410000000  0.5301850000000 1.0
C      1  0.4914710000000  0.5698650000000  0.4929920000000 1.0
C      1  0.5196610000000  0.5056960000000  0.4180370000000 1.0
C      1  0.5005060000000  0.5871420000000  0.5120940000000 1.0
C      1  0.4923190000000  0.4671850000000  0.4464240000000 1.0
C      1  0.4761120000000  0.3927590000000  0.5424740000000 1.0
C      1  0.5532180000000  0.5635560000000  0.4875950000000 1.0
C      1  0.5352340000000  0.5144850000000  0.4596800000000 1.0
C      1  0.4715540000000  0.4556570000000  0.4309140000000 1.0
C      1  0.4984420000000  0.4385800000000  0.4878050000000 1.0
C      1  0.5152680000000  0.5353500000000  0.4225780000000 1.0
C      1  0.4435590000000  0.5123210000000  0.4748490000000 1.0
C      1  0.4991610000000  0.5291900000000  0.5526600000000 1.0
C      1  0.4559890000000  0.4948050000000  0.4924770000000 1.0
C      1  0.4898660000000  0.5459720000000  0.4152660000000 1.0
C      1  0.5294100000000  0.5399940000000  0.4475580000000 1.0
END
