TITL C-3866676-3738-638 3.83627930165474e-05 125000 -729.766971353146 0 0 120 (C1) n - 1
REM
REM in /home/nfs/bkarasulu/CARBON/AIRSS/Generating-Clusters/LCBOP/Only-C1/SD-CG/FIRE-CG
REM
REM
REM
REM
REM
REM ./C.cell (11c1c37f851c82e70ff6c80c92926a4b)
REM AIRSS Version 0.9.1 bugfix July 2018 build 013d7b7c2542+ Fri, 06 Jul 2018 19:26:36 +0100
REM compiler GCC version 9.2.1 20190827 (Red Hat 9.2.1-1)
REM options -cpp -mtune=generic -march=x86-64 -g -O0 -fpre-include=/usr/include/finclude/math-vector-fortran.h
REM seed -214659872 308035687 1442098597 1942608587 -2135342703 -1694596669 527263461 836454619 -805971179 -595685741 774769120 -898107328 -1174200801 87041690 1335613336 -1678627027 -1735693693 -1621082595 1955832322 -1084192299 -1871514874 -1240788883 533374818 -2115420388 -477060221 1111081539 1953940245 584526807 599215591 -1097845297 2040536211 315564182 -1294400820
REM
CELL 1.54180   50.00000   50.00000   50.00000   90.00000   90.00000   90.00000
LATT -1
SFAC C  
C      1  0.4517280000000  0.5153960000000  0.4906730000000 1.0
C      1  0.4346140000000  0.4914340000000  0.5505620000000 1.0
C      1  0.5573600000000  0.4761660000000  0.5726770000000 1.0
C      1  0.5440520000000  0.5247470000000  0.6102110000000 1.0
C      1  0.4818190000000  0.5756470000000  0.5293540000000 1.0
C      1  0.4194420000000  0.5693200000000  0.5007930000000 1.0
C      1  0.5213770000000  0.5481680000000  0.4190970000000 1.0
C      1  0.4396210000000  0.4651440000000  0.5627560000000 1.0
C      1  0.5803240000000  0.5935560000000  0.5103190000000 1.0
C      1  0.5227300000000  0.4059310000000  0.5082460000000 1.0
C      1  0.5987250000000  0.5751130000000  0.4989500000000 1.0
C      1  0.5193410000000  0.4830580000000  0.4554410000000 1.0
C      1  0.5839490000000  0.5336330000000  0.4356340000000 1.0
C      1  0.4951200000000  0.4045370000000  0.5020060000000 1.0
C      1  0.4725970000000  0.5020770000000  0.4769160000000 1.0
C      1  0.5404730000000  0.4390180000000  0.4318780000000 1.0
C      1  0.5186050000000  0.4916250000000  0.5218360000000 1.0
C      1  0.5208830000000  0.5728940000000  0.5586110000000 1.0
C      1  0.5525840000000  0.5163010000000  0.5419460000000 1.0
C      1  0.5695260000000  0.4109820000000  0.4970020000000 1.0
C      1  0.4963350000000  0.4138000000000  0.4459850000000 1.0
C      1  0.4392480000000  0.5791980000000  0.4858020000000 1.0
C      1  0.5422900000000  0.5911150000000  0.4467620000000 1.0
C      1  0.5297830000000  0.4707950000000  0.4784660000000 1.0
C      1  0.5673870000000  0.5195970000000  0.5176830000000 1.0
C      1  0.4598260000000  0.5027160000000  0.5428320000000 1.0
C      1  0.5691760000000  0.4407880000000  0.5388740000000 1.0
C      1  0.4965270000000  0.4763650000000  0.5300980000000 1.0
C      1  0.4533690000000  0.4428050000000  0.4950380000000 1.0
C      1  0.5312550000000  0.5623990000000  0.5138320000000 1.0
C      1  0.4774210000000  0.5635490000000  0.4355440000000 1.0
C      1  0.5581650000000  0.5167640000000  0.4360600000000 1.0
C      1  0.5621840000000  0.5210080000000  0.5903910000000 1.0
C      1  0.5599450000000  0.4285870000000  0.4756820000000 1.0
C      1  0.5473220000000  0.5941680000000  0.4748860000000 1.0
C      1  0.5379410000000  0.5699920000000  0.4877490000000 1.0
C      1  0.4672740000000  0.5818950000000  0.4834330000000 1.0
C      1  0.4624970000000  0.4972490000000  0.4241760000000 1.0
C      1  0.4051010000000  0.4396870000000  0.5116210000000 1.0
C      1  0.5110600000000  0.4354280000000  0.4336410000000 1.0
C      1  0.4255050000000  0.4295160000000  0.5293240000000 1.0
C      1  0.4094970000000  0.5000870000000  0.5341600000000 1.0
C      1  0.5008290000000  0.5457260000000  0.4717060000000 1.0
C      1  0.5755190000000  0.4578960000000  0.5602660000000 1.0
C      1  0.4760450000000  0.4384830000000  0.5886880000000 1.0
C      1  0.5477710000000  0.3926530000000  0.5041250000000 1.0
C      1  0.5824370000000  0.4240300000000  0.5196510000000 1.0
C      1  0.5337430000000  0.4663550000000  0.5873900000000 1.0
C      1  0.5044810000000  0.5056000000000  0.4466720000000 1.0
C      1  0.4921720000000  0.4270430000000  0.5475840000000 1.0
C      1  0.4792070000000  0.5937130000000  0.5071810000000 1.0
C      1  0.5320640000000  0.5649900000000  0.4397460000000 1.0
C      1  0.5643740000000  0.4859170000000  0.4344550000000 1.0
C      1  0.5185460000000  0.4856950000000  0.6026030000000 1.0
C      1  0.5590180000000  0.4252640000000  0.4479190000000 1.0
C      1  0.4252240000000  0.4421860000000  0.5546450000000 1.0
C      1  0.4920270000000  0.5793360000000  0.5563320000000 1.0
C      1  0.5415040000000  0.4423150000000  0.5332960000000 1.0
C      1  0.5255880000000  0.5022530000000  0.3999280000000 1.0
C      1  0.6032730000000  0.5605200000000  0.4767310000000 1.0
C      1  0.5589260000000  0.5078250000000  0.4912200000000 1.0
C      1  0.5602350000000  0.5046240000000  0.5672710000000 1.0
C      1  0.4855210000000  0.5158370000000  0.4252470000000 1.0
C      1  0.4108650000000  0.4893230000000  0.5052990000000 1.0
C      1  0.4986620000000  0.4600110000000  0.4217200000000 1.0
C      1  0.5382640000000  0.4451050000000  0.4855830000000 1.0
C      1  0.5224870000000  0.5174350000000  0.5359960000000 1.0
C      1  0.4816300000000  0.5660700000000  0.4639750000000 1.0
C      1  0.4669160000000  0.4589680000000  0.5698260000000 1.0
C      1  0.5065790000000  0.5235780000000  0.5608260000000 1.0
C      1  0.5179240000000  0.5131580000000  0.6111220000000 1.0
C      1  0.5981860000000  0.5481880000000  0.4533830000000 1.0
C      1  0.4820180000000  0.5524400000000  0.6004610000000 1.0
C      1  0.4017760000000  0.5482810000000  0.5068700000000 1.0
C      1  0.4876610000000  0.4560330000000  0.5476090000000 1.0
C      1  0.5813010000000  0.4906790000000  0.4798050000000 1.0
C      1  0.5303150000000  0.5500610000000  0.4669530000000 1.0
C      1  0.5238170000000  0.4392620000000  0.5845240000000 1.0
C      1  0.4752400000000  0.4720540000000  0.4340800000000 1.0
C      1  0.3846300000000  0.4901310000000  0.5482390000000 1.0
C      1  0.5372270000000  0.5242850000000  0.4143850000000 1.0
C      1  0.5652310000000  0.5886280000000  0.5342120000000 1.0
C      1  0.4920750000000  0.5438010000000  0.4201630000000 1.0
C      1  0.3840990000000  0.5419430000000  0.4857080000000 1.0
C      1  0.4937840000000  0.5189050000000  0.4698610000000 1.0
C      1  0.4265240000000  0.5035540000000  0.4850660000000 1.0
C      1  0.3836280000000  0.5392290000000  0.4590450000000 1.0
C      1  0.4516270000000  0.4236840000000  0.5167030000000 1.0
C      1  0.4731940000000  0.4764000000000  0.4629830000000 1.0
C      1  0.4619660000000  0.5350690000000  0.5085250000000 1.0
C      1  0.3966940000000  0.5338370000000  0.4363110000000 1.0
C      1  0.4177410000000  0.4612440000000  0.4683310000000 1.0
C      1  0.4997540000000  0.4249210000000  0.5768760000000 1.0
C      1  0.4905450000000  0.4090860000000  0.4738270000000 1.0
C      1  0.5351670000000  0.4897080000000  0.4987760000000 1.0
C      1  0.4384390000000  0.4415720000000  0.4707920000000 1.0
C      1  0.4845700000000  0.5483780000000  0.5196750000000 1.0
C      1  0.5287940000000  0.4342550000000  0.5101090000000 1.0
C      1  0.5826070000000  0.4791220000000  0.4553120000000 1.0
C      1  0.4714890000000  0.4869290000000  0.5216920000000 1.0
C      1  0.5202640000000  0.5469490000000  0.5712700000000 1.0
C      1  0.4173930000000  0.5207710000000  0.4252040000000 1.0
C      1  0.5127790000000  0.5407730000000  0.5186150000000 1.0
C      1  0.5396210000000  0.5766620000000  0.5372560000000 1.0
C      1  0.4254510000000  0.4882450000000  0.4591670000000 1.0
C      1  0.4351600000000  0.5008640000000  0.4345180000000 1.0
C      1  0.4955180000000  0.5312420000000  0.6112490000000 1.0
C      1  0.4873910000000  0.6197260000000  0.5080020000000 1.0
C      1  0.4789910000000  0.5159980000000  0.5595360000000 1.0
C      1  0.5218580000000  0.4758290000000  0.4095970000000 1.0
C      1  0.4781670000000  0.4138480000000  0.5244320000000 1.0
C      1  0.4783490000000  0.5708630000000  0.5804480000000 1.0
C      1  0.4587640000000  0.4687250000000  0.5047940000000 1.0
C      1  0.4765510000000  0.3770410000000  0.4113930000000 1.0
C      1  0.5481730000000  0.5248920000000  0.4662120000000 1.0
C      1  0.5660390000000  0.6082550000000  0.4902670000000 1.0
C      1  0.4861310000000  0.3945300000000  0.4281710000000 1.0
C      1  0.5468150000000  0.4658380000000  0.4220970000000 1.0
C      1  0.4064140000000  0.5302210000000  0.5284550000000 1.0
C      1  0.4042640000000  0.4628820000000  0.4950940000000 1.0
END
