TITL C-3866674-3872-640 -48.834686154278 125000 -1005.84951273892 0 0 165 (C1) n - 1
REM
REM in /home/nfs/bkarasulu/CARBON/AIRSS/Generating-Clusters/LCBOP/Only-C1/SD-CG/FIRE-CG
REM
REM
REM
REM
REM
REM ./C.cell (11c1c37f851c82e70ff6c80c92926a4b)
REM AIRSS Version 0.9.1 bugfix July 2018 build 013d7b7c2542+ Fri, 06 Jul 2018 19:26:36 +0100
REM compiler GCC version 9.2.1 20190827 (Red Hat 9.2.1-1)
REM options -cpp -mtune=generic -march=x86-64 -g -O0 -fpre-include=/usr/include/finclude/math-vector-fortran.h
REM seed -1565295473 714201163 363037550 919271784 1839494568 1116932436 1241098851 -882225482 -775220752 1521963124 1100831645 -1381870449 -2102213794 1039134287 -1507496752 280840306 727622177 -1697812053 -1436429795 -1874901977 1021409080 856391097 1202302615 959788164 -1959476636 -695330730 652127325 -1719317718 -720834349 1263545534 1418328115 -1698528423 1731330855
REM
CELL 1.54180   50.00000   50.00000   50.00000   90.00000   90.00000   90.00000
LATT -1
SFAC C  
C      1  0.5630620000000  0.4967080000000  0.4912770000000 1.0
C      1  0.4971600000000  0.6363820000000  0.5050300000000 1.0
C      1  0.3942090000000  0.5200840000000  0.4013920000000 1.0
C      1  0.5733610000000  0.5302770000000  0.3980680000000 1.0
C      1  0.5356330000000  0.4136760000000  0.5641290000000 1.0
C      1  0.4139480000000  0.5429060000000  0.4726460000000 1.0
C      1  0.5596950000000  0.4107790000000  0.5217560000000 1.0
C      1  0.4156640000000  0.5934340000000  0.5371370000000 1.0
C      1  0.5041530000000  0.5663640000000  0.4948090000000 1.0
C      1  0.4176510000000  0.5702370000000  0.5505960000000 1.0
C      1  0.4658120000000  0.4112360000000  0.4195490000000 1.0
C      1  0.5440510000000  0.4529400000000  0.5983470000000 1.0
C      1  0.5835080000000  0.4200190000000  0.5098370000000 1.0
C      1  0.4645820000000  0.5391020000000  0.4354280000000 1.0
C      1  0.4360560000000  0.4475180000000  0.4248790000000 1.0
C      1  0.4429950000000  0.5217290000000  0.5893620000000 1.0
C      1  0.4839890000000  0.3996960000000  0.4385680000000 1.0
C      1  0.5232780000000  0.4090090000000  0.4882770000000 1.0
C      1  0.5157700000000  0.4815790000000  0.4590510000000 1.0
C      1  0.5353180000000  0.4964450000000  0.6155380000000 1.0
C      1  0.5058700000000  0.5310710000000  0.4637990000000 1.0
C      1  0.5674250000000  0.5514110000000  0.3830940000000 1.0
C      1  0.4534840000000  0.4530880000000  0.4021510000000 1.0
C      1  0.4960360000000  0.3917850000000  0.5822280000000 1.0
C      1  0.6098170000000  0.4768540000000  0.5326100000000 1.0
C      1  0.4472290000000  0.5446330000000  0.5018240000000 1.0
C      1  0.5728680000000  0.5135280000000  0.4203870000000 1.0
C      1  0.4388660000000  0.4313680000000  0.5635040000000 1.0
C      1  0.3769140000000  0.5329870000000  0.3867640000000 1.0
C      1  0.4383720000000  0.4221450000000  0.5330010000000 1.0
C      1  0.4540710000000  0.5406030000000  0.5715020000000 1.0
C      1  0.5139630000000  0.4973950000000  0.5566950000000 1.0
C      1  0.5557670000000  0.5753290000000  0.3814740000000 1.0
C      1  0.4894860000000  0.4415870000000  0.4607560000000 1.0
C      1  0.5278780000000  0.4185480000000  0.4345210000000 1.0
C      1  0.5433710000000  0.5350870000000  0.5032150000000 1.0
C      1  0.4440960000000  0.5689450000000  0.3950780000000 1.0
C      1  0.5697120000000  0.5503420000000  0.4612650000000 1.0
C      1  0.5026160000000  0.4450160000000  0.3964540000000 1.0
C      1  0.4048160000000  0.4551250000000  0.5407740000000 1.0
C      1  0.4779400000000  0.4525260000000  0.5372100000000 1.0
C      1  0.4273970000000  0.4685140000000  0.4422730000000 1.0
C      1  0.3940050000000  0.5233120000000  0.5125490000000 1.0
C      1  0.4820980000000  0.5365060000000  0.5630590000000 1.0
C      1  0.4988850000000  0.5037000000000  0.4625770000000 1.0
C      1  0.4155520000000  0.4385820000000  0.5188440000000 1.0
C      1  0.4619920000000  0.4674950000000  0.4935970000000 1.0
C      1  0.4878970000000  0.5812350000000  0.6088850000000 1.0
C      1  0.5952990000000  0.5197630000000  0.5167410000000 1.0
C      1  0.4162890000000  0.4809660000000  0.5406950000000 1.0
C      1  0.4155240000000  0.4649860000000  0.4694020000000 1.0
C      1  0.5941120000000  0.4671960000000  0.4293120000000 1.0
C      1  0.5483500000000  0.4751900000000  0.5000920000000 1.0
C      1  0.4322610000000  0.4962420000000  0.4323040000000 1.0
C      1  0.4663780000000  0.4443830000000  0.4770690000000 1.0
C      1  0.4975290000000  0.5259720000000  0.6180730000000 1.0
C      1  0.4810940000000  0.3999430000000  0.5125920000000 1.0
C      1  0.4538640000000  0.4105520000000  0.5102840000000 1.0
C      1  0.4980240000000  0.4555120000000  0.6113220000000 1.0
C      1  0.4125390000000  0.5078890000000  0.4161230000000 1.0
C      1  0.5356130000000  0.5829600000000  0.4458120000000 1.0
C      1  0.5256220000000  0.4472250000000  0.5314030000000 1.0
C      1  0.5308940000000  0.4367290000000  0.4806250000000 1.0
C      1  0.5119610000000  0.4556250000000  0.4698420000000 1.0
C      1  0.4565190000000  0.4457740000000  0.5837150000000 1.0
C      1  0.5433900000000  0.5615090000000  0.4618140000000 1.0
C      1  0.5728930000000  0.5239210000000  0.4476020000000 1.0
C      1  0.5863220000000  0.5598030000000  0.4837180000000 1.0
C      1  0.6026870000000  0.4575420000000  0.4830970000000 1.0
C      1  0.6435790000000  0.5197330000000  0.5051810000000 1.0
C      1  0.5830450000000  0.4626660000000  0.5712320000000 1.0
C      1  0.5347570000000  0.5563560000000  0.5617520000000 1.0
C      1  0.4487490000000  0.4708950000000  0.3820990000000 1.0
C      1  0.5546510000000  0.4500020000000  0.4880940000000 1.0
C      1  0.4968930000000  0.5135430000000  0.5727740000000 1.0
C      1  0.5705630000000  0.5225290000000  0.5768200000000 1.0
C      1  0.4910840000000  0.5536300000000  0.6152600000000 1.0
C      1  0.5040000000000  0.5629570000000  0.5235650000000 1.0
C      1  0.5611350000000  0.5460520000000  0.5608290000000 1.0
C      1  0.6020480000000  0.4589360000000  0.5527610000000 1.0
C      1  0.3562060000000  0.5327520000000  0.5478010000000 1.0
C      1  0.5811670000000  0.4404380000000  0.4904880000000 1.0
C      1  0.5580060000000  0.5018820000000  0.5959200000000 1.0
C      1  0.4855130000000  0.3855750000000  0.4636410000000 1.0
C      1  0.4124260000000  0.5162240000000  0.4899140000000 1.0
C      1  0.4587270000000  0.4993710000000  0.5973510000000 1.0
C      1  0.4002030000000  0.6028490000000  0.3382030000000 1.0
C      1  0.4790950000000  0.5920220000000  0.5839670000000 1.0
C      1  0.4427880000000  0.5149860000000  0.4988970000000 1.0
C      1  0.4155750000000  0.5922430000000  0.3570110000000 1.0
C      1  0.5421840000000  0.4265050000000  0.5885370000000 1.0
C      1  0.5426580000000  0.5928630000000  0.3967770000000 1.0
C      1  0.4555000000000  0.5548970000000  0.4144160000000 1.0
C      1  0.5339080000000  0.5987950000000  0.5392490000000 1.0
C      1  0.4939880000000  0.5993070000000  0.6287520000000 1.0
C      1  0.5546200000000  0.4653610000000  0.3995470000000 1.0
C      1  0.4201020000000  0.4430140000000  0.4897030000000 1.0
C      1  0.6022360000000  0.5037270000000  0.5389280000000 1.0
C      1  0.5716480000000  0.5022010000000  0.4656790000000 1.0
C      1  0.4847910000000  0.5132420000000  0.5233220000000 1.0
C      1  0.4434230000000  0.4845190000000  0.5346070000000 1.0
C      1  0.4845400000000  0.4089510000000  0.5994410000000 1.0
C      1  0.4558740000000  0.5116920000000  0.4392680000000 1.0
C      1  0.4962740000000  0.4083500000000  0.5359290000000 1.0
C      1  0.5264230000000  0.4738570000000  0.5184610000000 1.0
C      1  0.5379320000000  0.6219170000000  0.5266940000000 1.0
C      1  0.5107880000000  0.3986910000000  0.5592760000000 1.0
C      1  0.4566410000000  0.4931990000000  0.4823370000000 1.0
C      1  0.4710680000000  0.4997840000000  0.4597770000000 1.0
C      1  0.5267070000000  0.4582850000000  0.3961720000000 1.0
C      1  0.4754430000000  0.6216840000000  0.5128830000000 1.0
C      1  0.4507220000000  0.4731650000000  0.5904320000000 1.0
C      1  0.4588600000000  0.4642790000000  0.5217510000000 1.0
C      1  0.5960500000000  0.4453000000000  0.4102850000000 1.0
C      1  0.4107380000000  0.4410440000000  0.5653690000000 1.0
C      1  0.5231530000000  0.6378540000000  0.5110940000000 1.0
C      1  0.5451020000000  0.4270530000000  0.5402630000000 1.0
C      1  0.4445840000000  0.4238530000000  0.4831010000000 1.0
C      1  0.4839830000000  0.5490420000000  0.4547510000000 1.0
C      1  0.4565650000000  0.5525730000000  0.5270160000000 1.0
C      1  0.4358450000000  0.4099800000000  0.4582590000000 1.0
C      1  0.4366080000000  0.6073300000000  0.5260670000000 1.0
C      1  0.4046140000000  0.4896850000000  0.4787800000000 1.0
C      1  0.5359480000000  0.4810560000000  0.5623710000000 1.0
C      1  0.6181520000000  0.5289890000000  0.5015810000000 1.0
C      1  0.5781850000000  0.5665070000000  0.5114460000000 1.0
C      1  0.5580010000000  0.4740260000000  0.5812240000000 1.0
C      1  0.4356170000000  0.5607520000000  0.4811860000000 1.0
C      1  0.5304910000000  0.5258390000000  0.6542690000000 1.0
C      1  0.5742700000000  0.4444080000000  0.3933070000000 1.0
C      1  0.4713970000000  0.6071050000000  0.5629400000000 1.0
C      1  0.5722290000000  0.4844190000000  0.4169390000000 1.0
C      1  0.3746640000000  0.5282700000000  0.5299470000000 1.0
C      1  0.5348870000000  0.5952290000000  0.4222050000000 1.0
C      1  0.4967430000000  0.3961100000000  0.4882200000000 1.0
C      1  0.5672270000000  0.5189360000000  0.5081550000000 1.0
C      1  0.4849320000000  0.5427330000000  0.5335060000000 1.0
C      1  0.5227020000000  0.5733490000000  0.5423780000000 1.0
C      1  0.4863610000000  0.5077780000000  0.5987980000000 1.0
C      1  0.6154270000000  0.4690600000000  0.5058010000000 1.0
C      1  0.4553410000000  0.5819250000000  0.4787620000000 1.0
C      1  0.4402580000000  0.5540010000000  0.5508020000000 1.0
C      1  0.5716960000000  0.3900620000000  0.4314530000000 1.0
C      1  0.4793890000000  0.4366070000000  0.5991670000000 1.0
C      1  0.4515380000000  0.6057970000000  0.4925720000000 1.0
C      1  0.5756180000000  0.5585550000000  0.5380300000000 1.0
C      1  0.5948720000000  0.5125580000000  0.5646840000000 1.0
C      1  0.5430230000000  0.3960050000000  0.5041630000000 1.0
C      1  0.4407490000000  0.4198030000000  0.4322180000000 1.0
C      1  0.5253050000000  0.5476920000000  0.4816410000000 1.0
C      1  0.4556380000000  0.5074320000000  0.5247110000000 1.0
C      1  0.6126670000000  0.5496280000000  0.4834150000000 1.0
C      1  0.4305010000000  0.5812120000000  0.3759240000000 1.0
C      1  0.3850330000000  0.6132340000000  0.3197180000000 1.0
C      1  0.5508550000000  0.4057240000000  0.4310800000000 1.0
C      1  0.5074950000000  0.4956150000000  0.5284050000000 1.0
C      1  0.5239500000000  0.4681920000000  0.6128770000000 1.0
C      1  0.5331100000000  0.4839440000000  0.4384350000000 1.0
C      1  0.5214940000000  0.5165810000000  0.6302560000000 1.0
C      1  0.4818760000000  0.5705080000000  0.4749460000000 1.0
C      1  0.4762390000000  0.4344410000000  0.4024230000000 1.0
C      1  0.5014430000000  0.4218920000000  0.4430530000000 1.0
C      1  0.4613970000000  0.6160540000000  0.5382130000000 1.0
C      1  0.4997780000000  0.4367090000000  0.5352220000000 1.0
C      1  0.6042350000000  0.4651040000000  0.4556700000000 1.0
END
