TITL C-3866672-3872-82 -0.152984992598723 125000 -545.65311778943 0 0 89 (C1) n - 1
REM
REM in /home/nfs/bkarasulu/CARBON/AIRSS/Generating-Clusters/LCBOP/Only-C1/SD-CG/HFTN-CG/FIRE-CG
REM
REM
REM
REM
REM
REM ./C.cell (11c1c37f851c82e70ff6c80c92926a4b)
REM AIRSS Version 0.9.1 bugfix July 2018 build 013d7b7c2542+ Fri, 06 Jul 2018 19:26:36 +0100
REM compiler GCC version 9.2.1 20190827 (Red Hat 9.2.1-1)
REM options -cpp -mtune=generic -march=x86-64 -g -O0 -fpre-include=/usr/include/finclude/math-vector-fortran.h
REM seed -1096948988 1661631628 -1386142624 1300536059 -348902802 1547051 1072637475 -507894347 -1433400760 1101291777 1694653856 919492941 212814442 1237362432 -1651519519 -1767186213 1562949945 -1254722994 1115304501 1638372143 -879401577 -1613409749 -863823829 -1921466411 -755662812 1916130240 -1844573949 -620863470 -1676210745 1404509752 -380457703 -1918467712 1684609386
REM
CELL 1.54180   50.00000   50.00000   50.00000   90.00000   90.00000   90.00000
LATT -1
SFAC C  
C      1  0.5747880000000  0.4951470000000  0.4660400000000 1.0
C      1  0.4002150000000  0.4200650000000  0.5358670000000 1.0
C      1  0.4794160000000  0.5293150000000  0.4514460000000 1.0
C      1  0.5238150000000  0.5760660000000  0.6155240000000 1.0
C      1  0.4456370000000  0.4885230000000  0.4624350000000 1.0
C      1  0.5422100000000  0.4274040000000  0.4870440000000 1.0
C      1  0.5455620000000  0.4462870000000  0.5338860000000 1.0
C      1  0.4585200000000  0.5277410000000  0.4082630000000 1.0
C      1  0.5402790000000  0.5539590000000  0.5705530000000 1.0
C      1  0.4967830000000  0.4181600000000  0.5354680000000 1.0
C      1  0.4434960000000  0.4745810000000  0.4380180000000 1.0
C      1  0.5604010000000  0.5125740000000  0.4472740000000 1.0
C      1  0.5923980000000  0.5075610000000  0.5140150000000 1.0
C      1  0.4662930000000  0.5445810000000  0.6027840000000 1.0
C      1  0.5577380000000  0.5631750000000  0.5503030000000 1.0
C      1  0.4944640000000  0.5366110000000  0.5633320000000 1.0
C      1  0.5460580000000  0.4872050000000  0.5093390000000 1.0
C      1  0.4728100000000  0.4644200000000  0.4909300000000 1.0
C      1  0.4658980000000  0.4331810000000  0.4314450000000 1.0
C      1  0.5549940000000  0.5385250000000  0.4605900000000 1.0
C      1  0.4352860000000  0.5819910000000  0.4257160000000 1.0
C      1  0.4910640000000  0.4210600000000  0.4725630000000 1.0
C      1  0.5361050000000  0.5046020000000  0.5650060000000 1.0
C      1  0.5114920000000  0.5927010000000  0.4742210000000 1.0
C      1  0.5264860000000  0.4537530000000  0.5545300000000 1.0
C      1  0.5039580000000  0.4360270000000  0.5562020000000 1.0
C      1  0.5838240000000  0.5068290000000  0.5396200000000 1.0
C      1  0.4722090000000  0.4836550000000  0.5808140000000 1.0
C      1  0.5482840000000  0.4342110000000  0.4393820000000 1.0
C      1  0.4835560000000  0.4158610000000  0.4452330000000 1.0
C      1  0.5703800000000  0.4670810000000  0.4679030000000 1.0
C      1  0.4909530000000  0.6397270000000  0.4629010000000 1.0
C      1  0.5849670000000  0.5132840000000  0.4873070000000 1.0
C      1  0.4492370000000  0.5235150000000  0.4976460000000 1.0
C      1  0.4587920000000  0.5065880000000  0.5710610000000 1.0
C      1  0.5164610000000  0.5533860000000  0.5035160000000 1.0
C      1  0.5773550000000  0.5603250000000  0.5020180000000 1.0
C      1  0.4661540000000  0.5104570000000  0.4724230000000 1.0
C      1  0.4742470000000  0.4242950000000  0.5190420000000 1.0
C      1  0.4214390000000  0.4811360000000  0.5536550000000 1.0
C      1  0.4985450000000  0.4791760000000  0.5832540000000 1.0
C      1  0.4386990000000  0.5497780000000  0.4948670000000 1.0
C      1  0.4478340000000  0.4237760000000  0.5285070000000 1.0
C      1  0.5228050000000  0.5308800000000  0.5672800000000 1.0
C      1  0.5002190000000  0.5089910000000  0.5068050000000 1.0
C      1  0.4857770000000  0.5448890000000  0.5379550000000 1.0
C      1  0.5586250000000  0.4674120000000  0.5216520000000 1.0
C      1  0.4224160000000  0.4354700000000  0.5319170000000 1.0
C      1  0.4883850000000  0.4911050000000  0.4856450000000 1.0
C      1  0.5412510000000  0.4241300000000  0.5160510000000 1.0
C      1  0.5076350000000  0.5332640000000  0.4442680000000 1.0
C      1  0.5376720000000  0.5353720000000  0.5107510000000 1.0
C      1  0.4765050000000  0.5611900000000  0.6210120000000 1.0
C      1  0.4370760000000  0.5610480000000  0.4692620000000 1.0
C      1  0.4400080000000  0.5035380000000  0.5497700000000 1.0
C      1  0.5089090000000  0.4840440000000  0.4653870000000 1.0
C      1  0.4721080000000  0.5301430000000  0.5796990000000 1.0
C      1  0.5147720000000  0.4751350000000  0.4412080000000 1.0
C      1  0.4994860000000  0.5737760000000  0.6263220000000 1.0
C      1  0.5276350000000  0.5485040000000  0.4589070000000 1.0
C      1  0.4300030000000  0.5638370000000  0.5166640000000 1.0
C      1  0.4607420000000  0.5411840000000  0.4328380000000 1.0
C      1  0.5384590000000  0.5681690000000  0.5947080000000 1.0
C      1  0.4789130000000  0.4366650000000  0.4933480000000 1.0
C      1  0.4626870000000  0.4781010000000  0.4158860000000 1.0
C      1  0.5184330000000  0.5662980000000  0.4789020000000 1.0
C      1  0.4313200000000  0.4797160000000  0.5095650000000 1.0
C      1  0.5448920000000  0.5090310000000  0.4239620000000 1.0
C      1  0.5636780000000  0.5050370000000  0.5574480000000 1.0
C      1  0.4410560000000  0.5059790000000  0.5195480000000 1.0
C      1  0.4621160000000  0.5019800000000  0.4015520000000 1.0
C      1  0.5067540000000  0.4093920000000  0.4290310000000 1.0
C      1  0.5182880000000  0.4152840000000  0.4772280000000 1.0
C      1  0.5015940000000  0.6166400000000  0.4686780000000 1.0
C      1  0.5562520000000  0.4422420000000  0.4660770000000 1.0
C      1  0.5240480000000  0.4317580000000  0.4244310000000 1.0
C      1  0.5196250000000  0.5193110000000  0.4223370000000 1.0
C      1  0.4937790000000  0.5376760000000  0.5124170000000 1.0
C      1  0.4413820000000  0.4455000000000  0.4397200000000 1.0
C      1  0.4207260000000  0.4636010000000  0.5309460000000 1.0
C      1  0.4801680000000  0.4547050000000  0.4161640000000 1.0
C      1  0.5225270000000  0.4790970000000  0.5681580000000 1.0
C      1  0.5290200000000  0.5083860000000  0.5099700000000 1.0
C      1  0.5746230000000  0.5405290000000  0.4821380000000 1.0
C      1  0.4446860000000  0.4714310000000  0.4864600000000 1.0
C      1  0.5203630000000  0.4062860000000  0.5247040000000 1.0
C      1  0.5083720000000  0.4560450000000  0.4218270000000 1.0
C      1  0.5711540000000  0.5669580000000  0.5273660000000 1.0
C      1  0.4439580000000  0.5619730000000  0.4420940000000 1.0
END
