TITL C-3866670-4165-67 0.159951144726056 125000 -185.146908048251 0 0 31 (C1) n - 1
REM
REM in /home/nfs/bkarasulu/CARBON/AIRSS/Generating-Clusters/LCBOP/Only-C1/SD-CG/HFTN-CG/FIRE-CG
REM
REM
REM
REM
REM
REM ./C.cell (11c1c37f851c82e70ff6c80c92926a4b)
REM AIRSS Version 0.9.1 bugfix July 2018 build 013d7b7c2542+ Fri, 06 Jul 2018 19:26:36 +0100
REM compiler GCC version 9.2.1 20190827 (Red Hat 9.2.1-1)
REM options -cpp -mtune=generic -march=x86-64 -g -O0 -fpre-include=/usr/include/finclude/math-vector-fortran.h
REM seed 286423024 1448278900 18167569 542788911 -902171676 554589973 320549227 -351996682 911787092 -276365571 1375058594 1160816285 -1017780920 -769633062 -1322094711 -168927186 -1961654331 -816635384 -1769534238 1753239622 163418827 1816250617 1442258965 -673004063 1343731952 1271752291 -1720913507 -88138665 429623571 -1789281245 -1700102870 -361163435 1850022561
REM
CELL 1.54180   50.00000   50.00000   50.00000   90.00000   90.00000   90.00000
LATT -1
SFAC C  
C      1  0.5578310000000  0.4968810000000  0.4974220000000 1.0
C      1  0.4481430000000  0.5082770000000  0.4263120000000 1.0
C      1  0.4693250000000  0.4931490000000  0.4209270000000 1.0
C      1  0.5381820000000  0.4547410000000  0.5144890000000 1.0
C      1  0.5540300000000  0.4950110000000  0.4708750000000 1.0
C      1  0.5144150000000  0.4395200000000  0.4435830000000 1.0
C      1  0.5304470000000  0.4529690000000  0.4625280000000 1.0
C      1  0.5303350000000  0.4934540000000  0.5408080000000 1.0
C      1  0.4399320000000  0.5527930000000  0.5120090000000 1.0
C      1  0.4267250000000  0.5371140000000  0.4639310000000 1.0
C      1  0.5039010000000  0.5390180000000  0.5288270000000 1.0
C      1  0.5056350000000  0.5375250000000  0.4753240000000 1.0
C      1  0.4834930000000  0.5527150000000  0.5431620000000 1.0
C      1  0.4931390000000  0.4809580000000  0.4287540000000 1.0
C      1  0.5069720000000  0.5210840000000  0.4544500000000 1.0
C      1  0.4291000000000  0.5469380000000  0.4884860000000 1.0
C      1  0.5063710000000  0.5434060000000  0.5012260000000 1.0
C      1  0.4861920000000  0.4742880000000  0.6284240000000 1.0
C      1  0.5340750000000  0.4810880000000  0.4567400000000 1.0
C      1  0.5088130000000  0.4710340000000  0.5810890000000 1.0
C      1  0.5193670000000  0.5190180000000  0.5409490000000 1.0
C      1  0.4332220000000  0.5237740000000  0.4419040000000 1.0
C      1  0.5252690000000  0.4476500000000  0.5392410000000 1.0
C      1  0.4884210000000  0.5638210000000  0.5676370000000 1.0
C      1  0.5122500000000  0.4953460000000  0.4446720000000 1.0
C      1  0.5203710000000  0.4706950000000  0.5560310000000 1.0
C      1  0.4973720000000  0.4529820000000  0.4273470000000 1.0
C      1  0.4582460000000  0.5546970000000  0.5311340000000 1.0
C      1  0.5360290000000  0.4442540000000  0.4886800000000 1.0
C      1  0.5449670000000  0.4832120000000  0.5180760000000 1.0
C      1  0.4974300000000  0.4725890000000  0.6049620000000 1.0
END
