TITL C-3866676-3738-772 2202.18794516314 125000 -1113.13104463526 0 0 183 (C1) n - 1
REM
REM in /home/nfs/bkarasulu/CARBON/AIRSS/Generating-Clusters/LCBOP/Only-C1/SD-CG/FIRE-CG
REM
REM
REM
REM
REM
REM ./C.cell (11c1c37f851c82e70ff6c80c92926a4b)
REM AIRSS Version 0.9.1 bugfix July 2018 build 013d7b7c2542+ Fri, 06 Jul 2018 19:26:36 +0100
REM compiler GCC version 9.2.1 20190827 (Red Hat 9.2.1-1)
REM options -cpp -mtune=generic -march=x86-64 -g -O0 -fpre-include=/usr/include/finclude/math-vector-fortran.h
REM seed -1218574867 -1736458619 417325827 1739382860 -1540343587 1106360698 312027949 -1314990973 1032030861 -265653742 570987253 -1990981190 -1066685470 753133594 -1921165389 911355195 -1607630161 749005915 899983945 1815645099 -38297892 1919391643 -1037141545 1928127764 -513279451 1706403489 222999747 -629135099 609055736 1310033079 -2053572115 -31184955 1167894706
REM
CELL 1.54180   50.00000   50.00000   50.00000   90.00000   90.00000   90.00000
LATT -1
SFAC C  
C      1  0.5770070000000  0.5128290000000  0.4056900000000 1.0
C      1  0.4928000000000  0.4563700000000  0.4972320000000 1.0
C      1  0.4374830000000  0.4432520000000  0.5679160000000 1.0
C      1  0.4830380000000  0.4180040000000  0.5397520000000 1.0
C      1  0.4760750000000  0.5219080000000  0.4354070000000 1.0
C      1  0.5626960000000  0.5266400000000  0.4636050000000 1.0
C      1  0.5033050000000  0.5275180000000  0.5156390000000 1.0
C      1  0.5795960000000  0.4257310000000  0.4435870000000 1.0
C      1  0.5032270000000  0.5107410000000  0.4269530000000 1.0
C      1  0.5896940000000  0.4991160000000  0.4940650000000 1.0
C      1  0.4678150000000  0.5554140000000  0.4035870000000 1.0
C      1  0.6017940000000  0.4548440000000  0.5150130000000 1.0
C      1  0.4985330000000  0.4532790000000  0.4699550000000 1.0
C      1  0.5931550000000  0.5080450000000  0.4283800000000 1.0
C      1  0.5716230000000  0.5867970000000  0.4833680000000 1.0
C      1  0.5157910000000  0.5478880000000  0.5556440000000 1.0
C      1  0.4802760000000  0.5992160000000  0.4961210000000 1.0
C      1  0.4015630000000  0.4346840000000  0.5095550000000 1.0
C      1  0.5997880000000  0.4500460000000  0.5660150000000 1.0
C      1  0.4878990000000  0.3956230000000  0.5562880000000 1.0
C      1  0.5912090000000  0.4908300000000  0.5191640000000 1.0
C      1  0.4041600000000  0.5505170000000  0.4912360000000 1.0
C      1  0.4455410000000  0.5727530000000  0.4148480000000 1.0
C      1  0.5392770000000  0.5125460000000  0.4554920000000 1.0
C      1  0.5676680000000  0.5447080000000  0.5080710000000 1.0
C      1  0.5313320000000  0.4898590000000  0.5018400000000 1.0
C      1  0.4075570000000  0.4848280000000  0.5715400000000 1.0
C      1  0.4462870000000  0.5393040000000  0.5162670000000 1.0
C      1  0.4835630000000  0.5972800000000  0.5668970000000 1.0
C      1  0.5333820000000  0.5825770000000  0.5793240000000 1.0
C      1  0.4328980000000  0.3969810000000  0.5623500000000 1.0
C      1  0.5332240000000  0.5225140000000  0.3734760000000 1.0
C      1  0.4819170000000  0.4238060000000  0.6159440000000 1.0
C      1  0.5275760000000  0.5100430000000  0.5249640000000 1.0
C      1  0.5533810000000  0.6055950000000  0.4960430000000 1.0
C      1  0.4637320000000  0.4696610000000  0.5368350000000 1.0
C      1  0.4295390000000  0.5291580000000  0.4058140000000 1.0
C      1  0.4917170000000  0.6133850000000  0.4735280000000 1.0
C      1  0.5176010000000  0.5973780000000  0.5324110000000 1.0
C      1  0.5129700000000  0.4405850000000  0.5123780000000 1.0
C      1  0.4209740000000  0.5565020000000  0.4118480000000 1.0
C      1  0.5082320000000  0.4452920000000  0.4014020000000 1.0
C      1  0.6176150000000  0.4814380000000  0.4619730000000 1.0
C      1  0.5198880000000  0.5712350000000  0.4620650000000 1.0
C      1  0.4660560000000  0.5524190000000  0.5019880000000 1.0
C      1  0.4575830000000  0.4193820000000  0.4874910000000 1.0
C      1  0.4352580000000  0.5917080000000  0.5418660000000 1.0
C      1  0.5650740000000  0.5924060000000  0.5410440000000 1.0
C      1  0.4153450000000  0.4796850000000  0.5202730000000 1.0
C      1  0.5049430000000  0.4596550000000  0.5796480000000 1.0
C      1  0.5275470000000  0.5240050000000  0.4325770000000 1.0
C      1  0.6140490000000  0.4528670000000  0.5422920000000 1.0
C      1  0.3804910000000  0.5082150000000  0.4778800000000 1.0
C      1  0.4053160000000  0.5730700000000  0.5087540000000 1.0
C      1  0.5140820000000  0.4645890000000  0.5520870000000 1.0
C      1  0.4330870000000  0.4717750000000  0.5747610000000 1.0
C      1  0.5552130000000  0.4186580000000  0.4336460000000 1.0
C      1  0.4013190000000  0.4583260000000  0.4436240000000 1.0
C      1  0.5892530000000  0.5839670000000  0.5284910000000 1.0
C      1  0.4732990000000  0.4100840000000  0.4644660000000 1.0
C      1  0.5790520000000  0.4269920000000  0.5193600000000 1.0
C      1  0.5087300000000  0.4336390000000  0.6182660000000 1.0
C      1  0.5524590000000  0.4472510000000  0.4904340000000 1.0
C      1  0.3804950000000  0.5417750000000  0.5383320000000 1.0
C      1  0.5608260000000  0.5456610000000  0.5983320000000 1.0
C      1  0.4936720000000  0.4937800000000  0.3846610000000 1.0
C      1  0.5687010000000  0.5210590000000  0.5866660000000 1.0
C      1  0.5273740000000  0.4146410000000  0.4389630000000 1.0
C      1  0.4510990000000  0.4391370000000  0.4228780000000 1.0
C      1  0.5091940000000  0.5553720000000  0.5063060000000 1.0
C      1  0.5274290000000  0.5558830000000  0.4839330000000 1.0
C      1  0.5219650000000  0.5003680000000  0.4757570000000 1.0
C      1  0.5093680000000  0.5839180000000  0.4385160000000 1.0
C      1  0.3880560000000  0.4968950000000  0.5564160000000 1.0
C      1  0.4073720000000  0.5023170000000  0.4359420000000 1.0
C      1  0.5880830000000  0.4453130000000  0.4621470000000 1.0
C      1  0.5486780000000  0.4979200000000  0.5829520000000 1.0
C      1  0.5162820000000  0.5267660000000  0.6308540000000 1.0
C      1  0.4607680000000  0.4840330000000  0.5660260000000 1.0
C      1  0.3788830000000  0.5133590000000  0.5340890000000 1.0
C      1  0.5138850000000  0.5666720000000  0.4151710000000 1.0
C      1  0.3857820000000  0.5375830000000  0.4724950000000 1.0
C      1  0.5691160000000  0.4211120000000  0.5468790000000 1.0
C      1  0.5582670000000  0.4839570000000  0.5549780000000 1.0
C      1  0.4958940000000  0.3932830000000  0.4684850000000 1.0
C      1  0.6143320000000  0.5889190000000  0.5376050000000 1.0
C      1  0.3911610000000  0.4851290000000  0.4518770000000 1.0
C      1  0.5894580000000  0.5210460000000  0.4539240000000 1.0
C      1  0.5508160000000  0.4479290000000  0.5906170000000 1.0
C      1  0.5385480000000  0.4052800000000  0.4880720000000 1.0
C      1  0.5195590000000  0.4528640000000  0.6366760000000 1.0
C      1  0.4107210000000  0.4286130000000  0.4849160000000 1.0
C      1  0.5034940000000  0.5311690000000  0.5740490000000 1.0
C      1  0.4600700000000  0.5143150000000  0.5604850000000 1.0
C      1  0.5446770000000  0.6035790000000  0.5234510000000 1.0
C      1  0.5217370000000  0.4402220000000  0.5929230000000 1.0
C      1  0.5370550000000  0.5306490000000  0.3475120000000 1.0
C      1  0.4614580000000  0.4561800000000  0.4014120000000 1.0
C      1  0.6053840000000  0.4638790000000  0.4130200000000 1.0
C      1  0.4659010000000  0.4108260000000  0.5961280000000 1.0
C      1  0.4116040000000  0.5799400000000  0.5540200000000 1.0
C      1  0.4768980000000  0.5476790000000  0.4510050000000 1.0
C      1  0.4325920000000  0.5154180000000  0.4774910000000 1.0
C      1  0.5551140000000  0.5274620000000  0.5305800000000 1.0
C      1  0.4876380000000  0.4652070000000  0.3931360000000 1.0
C      1  0.6076470000000  0.5074190000000  0.4734130000000 1.0
C      1  0.4889330000000  0.4654740000000  0.4471780000000 1.0
C      1  0.4260330000000  0.5016410000000  0.5303820000000 1.0
C      1  0.4430120000000  0.5957700000000  0.4642210000000 1.0
C      1  0.4228910000000  0.4448450000000  0.4314360000000 1.0
C      1  0.5204970000000  0.5519570000000  0.6214920000000 1.0
C      1  0.5539470000000  0.5743490000000  0.5593390000000 1.0
C      1  0.5367850000000  0.4606080000000  0.5109770000000 1.0
C      1  0.5619590000000  0.4210990000000  0.4965380000000 1.0
C      1  0.4447780000000  0.5213950000000  0.5377520000000 1.0
C      1  0.4108650000000  0.5081990000000  0.4087290000000 1.0
C      1  0.5828540000000  0.5693760000000  0.5048580000000 1.0
C      1  0.5701770000000  0.5794050000000  0.4555780000000 1.0
C      1  0.5501430000000  0.4002620000000  0.5490090000000 1.0
C      1  0.4587120000000  0.5971750000000  0.5564260000000 1.0
C      1  0.5609240000000  0.4501930000000  0.3891340000000 1.0
C      1  0.4440170000000  0.4448890000000  0.5365530000000 1.0
C      1  0.4810360000000  0.3911900000000  0.5819110000000 1.0
C      1  0.4393190000000  0.3969790000000  0.5355210000000 1.0
C      1  0.5031170000000  0.4260140000000  0.4242170000000 1.0
C      1  0.5104570000000  0.4993330000000  0.6253620000000 1.0
C      1  0.4447670000000  0.4616480000000  0.4683470000000 1.0
C      1  0.4307730000000  0.5897250000000  0.5124490000000 1.0
C      1  0.5490860000000  0.4754910000000  0.6035460000000 1.0
C      1  0.5560060000000  0.5154370000000  0.3890440000000 1.0
C      1  0.4714490000000  0.5035820000000  0.4585690000000 1.0
C      1  0.4789220000000  0.4778700000000  0.5133910000000 1.0
C      1  0.4506480000000  0.5961800000000  0.4923390000000 1.0
C      1  0.4421340000000  0.4179660000000  0.5802800000000 1.0
C      1  0.4633250000000  0.4770070000000  0.4541270000000 1.0
C      1  0.4855240000000  0.4946770000000  0.6109790000000 1.0
C      1  0.5344000000000  0.4471130000000  0.3906220000000 1.0
C      1  0.3751080000000  0.5038510000000  0.5063180000000 1.0
C      1  0.4370480000000  0.4365240000000  0.4785900000000 1.0
C      1  0.4736190000000  0.4229990000000  0.4366770000000 1.0
C      1  0.5378520000000  0.5632810000000  0.6019810000000 1.0
C      1  0.5296460000000  0.4778210000000  0.6259390000000 1.0
C      1  0.4262870000000  0.5339640000000  0.4965800000000 1.0
C      1  0.5060280000000  0.5217500000000  0.3835960000000 1.0
C      1  0.4709740000000  0.5188820000000  0.6060700000000 1.0
C      1  0.4174900000000  0.4523160000000  0.5244370000000 1.0
C      1  0.4853820000000  0.5055670000000  0.5050700000000 1.0
C      1  0.5590320000000  0.5653550000000  0.4348030000000 1.0
C      1  0.3969670000000  0.5597210000000  0.4262490000000 1.0
C      1  0.5694230000000  0.4869020000000  0.4786480000000 1.0
C      1  0.4756710000000  0.5286500000000  0.5796990000000 1.0
C      1  0.4578490000000  0.5281070000000  0.4115910000000 1.0
C      1  0.4930030000000  0.5053930000000  0.4773220000000 1.0
C      1  0.3831420000000  0.5504400000000  0.4474110000000 1.0
C      1  0.4978420000000  0.6082460000000  0.4473710000000 1.0
C      1  0.5657420000000  0.4608860000000  0.4710900000000 1.0
C      1  0.6096570000000  0.4567900000000  0.4790540000000 1.0
C      1  0.5879530000000  0.5188110000000  0.5650500000000 1.0
C      1  0.4998480000000  0.5835090000000  0.5133570000000 1.0
C      1  0.5730970000000  0.4388350000000  0.5706830000000 1.0
C      1  0.4956720000000  0.5526890000000  0.3974690000000 1.0
C      1  0.4456740000000  0.5897100000000  0.4378680000000 1.0
C      1  0.5229520000000  0.4009990000000  0.4642140000000 1.0
C      1  0.5115170000000  0.5950000000000  0.5617670000000 1.0
C      1  0.6092510000000  0.4836480000000  0.4327200000000 1.0
C      1  0.4828630000000  0.4761730000000  0.5879670000000 1.0
C      1  0.4722740000000  0.5550790000000  0.4760710000000 1.0
C      1  0.5212130000000  0.4109210000000  0.5103490000000 1.0
C      1  0.4274040000000  0.5128940000000  0.4518970000000 1.0
C      1  0.5526210000000  0.5427710000000  0.4844590000000 1.0
C      1  0.5435730000000  0.5495700000000  0.5490170000000 1.0
C      1  0.5044980000000  0.4822520000000  0.4306720000000 1.0
C      1  0.5285200000000  0.3962760000000  0.5335090000000 1.0
C      1  0.4570740000000  0.4188960000000  0.5235190000000 1.0
C      1  0.3943040000000  0.5663180000000  0.5354660000000 1.0
C      1  0.5862640000000  0.4543070000000  0.3967430000000 1.0
C      1  0.5365820000000  0.5502800000000  0.4239000000000 1.0
C      1  0.5006640000000  0.4404610000000  0.5389910000000 1.0
C      1  0.5136150000000  0.4949260000000  0.5494430000000 1.0
C      1  0.3982570000000  0.4958180000000  0.3881220000000 1.0
C      1  0.5758940000000  0.5048810000000  0.5406420000000 1.0
C      1  0.5204260000000  0.5077410000000  0.5746820000000 1.0
C      1  0.5431360000000  0.4629990000000  0.5411020000000 1.0
END
