TITL C-3866673-4222-487 -0.396502233715028 125000 -1147.33063072565 0 0 185 (C1) n - 1
REM
REM in /home/nfs/bkarasulu/CARBON/AIRSS/Generating-Clusters/LCBOP/Only-C1/SD-CG/FIRE-CG
REM
REM
REM
REM
REM
REM ./C.cell (11c1c37f851c82e70ff6c80c92926a4b)
REM AIRSS Version 0.9.1 bugfix July 2018 build 013d7b7c2542+ Fri, 06 Jul 2018 19:26:36 +0100
REM compiler GCC version 9.2.1 20190827 (Red Hat 9.2.1-1)
REM options -cpp -mtune=generic -march=x86-64 -g -O0 -fpre-include=/usr/include/finclude/math-vector-fortran.h
REM seed 1859859656 825283473 849520390 -1861827725 1466877131 -131887582 -1745596164 -399071294 -1242580280 2060592742 717963238 1241034125 140012657 -499140058 478489491 1166394348 -1396394401 620171156 351470068 -239588289 1493764532 -755139971 1499217007 -2089584396 1450883105 659356174 1508110866 1751830348 -1649238799 -1269140661 -212834072 1419719993 -925827977
REM
CELL 1.54180   50.00000   50.00000   50.00000   90.00000   90.00000   90.00000
LATT -1
SFAC C  
C      1  0.5486170000000  0.4975970000000  0.6035190000000 1.0
C      1  0.5253730000000  0.5192120000000  0.5049650000000 1.0
C      1  0.4883200000000  0.5606660000000  0.4640970000000 1.0
C      1  0.4669650000000  0.3845140000000  0.4958810000000 1.0
C      1  0.4730440000000  0.5350390000000  0.3262280000000 1.0
C      1  0.3969400000000  0.4614970000000  0.5025910000000 1.0
C      1  0.5479720000000  0.4242880000000  0.6036480000000 1.0
C      1  0.4886330000000  0.5375630000000  0.6215960000000 1.0
C      1  0.4563500000000  0.4553540000000  0.4096150000000 1.0
C      1  0.6219260000000  0.4693140000000  0.5374650000000 1.0
C      1  0.5220780000000  0.4013020000000  0.5094070000000 1.0
C      1  0.5800110000000  0.4316490000000  0.4976110000000 1.0
C      1  0.5233010000000  0.4594240000000  0.5539030000000 1.0
C      1  0.5063290000000  0.3875630000000  0.4610890000000 1.0
C      1  0.4618220000000  0.5344420000000  0.6196150000000 1.0
C      1  0.5598870000000  0.5514180000000  0.5298280000000 1.0
C      1  0.5767000000000  0.3728600000000  0.5660760000000 1.0
C      1  0.4511990000000  0.4891370000000  0.6067100000000 1.0
C      1  0.5601180000000  0.4338850000000  0.4317300000000 1.0
C      1  0.5810760000000  0.5388760000000  0.4266490000000 1.0
C      1  0.5372200000000  0.5243270000000  0.6092600000000 1.0
C      1  0.4997930000000  0.5223810000000  0.5775100000000 1.0
C      1  0.5103890000000  0.5667830000000  0.4212930000000 1.0
C      1  0.4979730000000  0.6716320000000  0.5294340000000 1.0
C      1  0.5192010000000  0.4261910000000  0.6057250000000 1.0
C      1  0.5762790000000  0.4554090000000  0.5723580000000 1.0
C      1  0.6029460000000  0.5364200000000  0.4731560000000 1.0
C      1  0.5137390000000  0.4861240000000  0.5422360000000 1.0
C      1  0.5372190000000  0.3761770000000  0.4258780000000 1.0
C      1  0.4873710000000  0.5092930000000  0.3697360000000 1.0
C      1  0.5634840000000  0.4415230000000  0.5193020000000 1.0
C      1  0.5040180000000  0.5938730000000  0.4303930000000 1.0
C      1  0.4281520000000  0.4728930000000  0.6087490000000 1.0
C      1  0.4341420000000  0.4395490000000  0.4164660000000 1.0
C      1  0.4756040000000  0.5153290000000  0.5389730000000 1.0
C      1  0.4277680000000  0.4547570000000  0.5866420000000 1.0
C      1  0.5558470000000  0.5459700000000  0.6042770000000 1.0
C      1  0.5355740000000  0.4069520000000  0.5589970000000 1.0
C      1  0.4849120000000  0.5366390000000  0.5197270000000 1.0
C      1  0.4780640000000  0.3841940000000  0.4687940000000 1.0
C      1  0.4785310000000  0.5072430000000  0.4733990000000 1.0
C      1  0.5064260000000  0.4396330000000  0.4440640000000 1.0
C      1  0.4832400000000  0.3748970000000  0.5168470000000 1.0
C      1  0.4455770000000  0.4329360000000  0.5938940000000 1.0
C      1  0.6038190000000  0.4981130000000  0.4385040000000 1.0
C      1  0.4852660000000  0.4288680000000  0.4561080000000 1.0
C      1  0.5891530000000  0.5822780000000  0.4884230000000 1.0
C      1  0.4108540000000  0.5942870000000  0.4616650000000 1.0
C      1  0.5533540000000  0.4136040000000  0.4527570000000 1.0
C      1  0.5152660000000  0.4558940000000  0.6119540000000 1.0
C      1  0.3943840000000  0.4585500000000  0.4731210000000 1.0
C      1  0.5408500000000  0.4702200000000  0.6077510000000 1.0
C      1  0.3985760000000  0.5749860000000  0.5042540000000 1.0
C      1  0.5212700000000  0.5069250000000  0.4340920000000 1.0
C      1  0.5409690000000  0.5315900000000  0.3998860000000 1.0
C      1  0.4929130000000  0.5490290000000  0.4361150000000 1.0
C      1  0.5284450000000  0.5825340000000  0.5006210000000 1.0
C      1  0.5261280000000  0.6248800000000  0.4631050000000 1.0
C      1  0.5574900000000  0.5468260000000  0.4787330000000 1.0
C      1  0.4982470000000  0.6445160000000  0.5329290000000 1.0
C      1  0.4237770000000  0.4250830000000  0.4386050000000 1.0
C      1  0.6143340000000  0.5160970000000  0.5467650000000 1.0
C      1  0.5691220000000  0.5219650000000  0.4054810000000 1.0
C      1  0.5195810000000  0.4613490000000  0.4518490000000 1.0
C      1  0.6122730000000  0.5235450000000  0.4981320000000 1.0
C      1  0.5378780000000  0.5271160000000  0.4807030000000 1.0
C      1  0.5744740000000  0.4583710000000  0.4391940000000 1.0
C      1  0.4055320000000  0.4357270000000  0.5132610000000 1.0
C      1  0.5104510000000  0.5791610000000  0.4759820000000 1.0
C      1  0.4007590000000  0.5702600000000  0.4747470000000 1.0
C      1  0.4651870000000  0.5587160000000  0.5146590000000 1.0
C      1  0.4592490000000  0.5547510000000  0.4676060000000 1.0
C      1  0.4222070000000  0.5032510000000  0.5001590000000 1.0
C      1  0.5310560000000  0.4712170000000  0.4977300000000 1.0
C      1  0.4606670000000  0.5851100000000  0.5238950000000 1.0
C      1  0.4374180000000  0.4598190000000  0.5371790000000 1.0
C      1  0.5639670000000  0.4128890000000  0.4805240000000 1.0
C      1  0.5167660000000  0.5995770000000  0.4554080000000 1.0
C      1  0.4195900000000  0.5346800000000  0.4434120000000 1.0
C      1  0.4217590000000  0.4139990000000  0.5098940000000 1.0
C      1  0.5743910000000  0.5578980000000  0.5883980000000 1.0
C      1  0.5608440000000  0.4497060000000  0.5970640000000 1.0
C      1  0.4745510000000  0.5017760000000  0.4179960000000 1.0
C      1  0.5655110000000  0.5039800000000  0.5183690000000 1.0
C      1  0.3974860000000  0.4888690000000  0.4358360000000 1.0
C      1  0.5468360000000  0.3960440000000  0.4969180000000 1.0
C      1  0.5092520000000  0.3974030000000  0.5535260000000 1.0
C      1  0.5879210000000  0.5560700000000  0.5374290000000 1.0
C      1  0.5389510000000  0.4353710000000  0.5561520000000 1.0
C      1  0.6396840000000  0.4519010000000  0.5488840000000 1.0
C      1  0.5465620000000  0.6055130000000  0.5009240000000 1.0
C      1  0.4232930000000  0.4999880000000  0.5605320000000 1.0
C      1  0.4578000000000  0.4897110000000  0.4725720000000 1.0
C      1  0.3820300000000  0.4778890000000  0.4567630000000 1.0
C      1  0.5662940000000  0.4424850000000  0.5481480000000 1.0
C      1  0.4488110000000  0.4633560000000  0.5116410000000 1.0
C      1  0.3978410000000  0.5477200000000  0.4581210000000 1.0
C      1  0.4819200000000  0.4386010000000  0.5499810000000 1.0
C      1  0.4935570000000  0.4170120000000  0.5941540000000 1.0
C      1  0.3582750000000  0.4914190000000  0.4630190000000 1.0
C      1  0.4778230000000  0.6057460000000  0.4332210000000 1.0
C      1  0.5015070000000  0.4655140000000  0.3916540000000 1.0
C      1  0.5362350000000  0.4469490000000  0.5103830000000 1.0
C      1  0.5203870000000  0.5089440000000  0.5613700000000 1.0
C      1  0.6054380000000  0.4449210000000  0.4970180000000 1.0
C      1  0.5379320000000  0.6285020000000  0.4870690000000 1.0
C      1  0.4865780000000  0.4584880000000  0.6096250000000 1.0
C      1  0.5621120000000  0.5614380000000  0.4274760000000 1.0
C      1  0.4180030000000  0.5741840000000  0.5478460000000 1.0
C      1  0.4729830000000  0.4759270000000  0.5915260000000 1.0
C      1  0.4007380000000  0.5606730000000  0.5293860000000 1.0
C      1  0.5702210000000  0.4929700000000  0.4046210000000 1.0
C      1  0.4014650000000  0.4896180000000  0.5153230000000 1.0
C      1  0.5565490000000  0.3892200000000  0.5637590000000 1.0
C      1  0.5648000000000  0.5007050000000  0.5790970000000 1.0
C      1  0.4710350000000  0.5294370000000  0.4288240000000 1.0
C      1  0.4658920000000  0.6079360000000  0.5067740000000 1.0
C      1  0.6167240000000  0.4689660000000  0.5089990000000 1.0
C      1  0.5375520000000  0.4707820000000  0.4707060000000 1.0
C      1  0.5286960000000  0.5159950000000  0.4574000000000 1.0
C      1  0.4717790000000  0.5246790000000  0.5656910000000 1.0
C      1  0.4843450000000  0.5225000000000  0.4935000000000 1.0
C      1  0.5339010000000  0.5623070000000  0.5206140000000 1.0
C      1  0.4119070000000  0.5107240000000  0.4305520000000 1.0
C      1  0.4904740000000  0.4148650000000  0.5656600000000 1.0
C      1  0.5298380000000  0.4589770000000  0.3960480000000 1.0
C      1  0.5837340000000  0.5566690000000  0.4788020000000 1.0
C      1  0.4074760000000  0.6012750000000  0.4351200000000 1.0
C      1  0.5145290000000  0.4288790000000  0.5113290000000 1.0
C      1  0.4237630000000  0.6101340000000  0.4822460000000 1.0
C      1  0.5362280000000  0.5570260000000  0.4136640000000 1.0
C      1  0.4606110000000  0.4684300000000  0.4556110000000 1.0
C      1  0.5742390000000  0.6005580000000  0.5011510000000 1.0
C      1  0.5317820000000  0.3931120000000  0.4472630000000 1.0
C      1  0.5089760000000  0.5290180000000  0.6041090000000 1.0
C      1  0.4801130000000  0.5221580000000  0.3477620000000 1.0
C      1  0.4020560000000  0.5065760000000  0.5404620000000 1.0
C      1  0.4763110000000  0.4668280000000  0.5621700000000 1.0
C      1  0.4721060000000  0.4325340000000  0.6054470000000 1.0
C      1  0.5990080000000  0.5255020000000  0.4459110000000 1.0
C      1  0.5578060000000  0.5233820000000  0.5363390000000 1.0
C      1  0.4276560000000  0.4702120000000  0.5616500000000 1.0
C      1  0.4624360000000  0.4764200000000  0.4281310000000 1.0
C      1  0.5225780000000  0.4923720000000  0.5140130000000 1.0
C      1  0.5852090000000  0.4825720000000  0.5699180000000 1.0
C      1  0.4428910000000  0.4855430000000  0.4952780000000 1.0
C      1  0.5144220000000  0.5415270000000  0.5205310000000 1.0
C      1  0.4085340000000  0.6029420000000  0.5057600000000 1.0
C      1  0.5482170000000  0.5145590000000  0.5606110000000 1.0
C      1  0.5236380000000  0.5064500000000  0.4043990000000 1.0
C      1  0.5064920000000  0.3859410000000  0.5276900000000 1.0
C      1  0.4836790000000  0.4877780000000  0.5428470000000 1.0
C      1  0.5866610000000  0.4797760000000  0.4240610000000 1.0
C      1  0.4439560000000  0.5191210000000  0.5745670000000 1.0
C      1  0.5437790000000  0.4839700000000  0.3979650000000 1.0
C      1  0.4520850000000  0.6121000000000  0.4815690000000 1.0
C      1  0.4419650000000  0.5864160000000  0.5451590000000 1.0
C      1  0.3544050000000  0.5179600000000  0.4615040000000 1.0
C      1  0.5886410000000  0.5626070000000  0.5656530000000 1.0
C      1  0.4685430000000  0.4459620000000  0.5004980000000 1.0
C      1  0.4077220000000  0.4376720000000  0.4584910000000 1.0
C      1  0.5433580000000  0.4371230000000  0.4083660000000 1.0
C      1  0.5794100000000  0.4931200000000  0.4987820000000 1.0
C      1  0.4478720000000  0.5505950000000  0.4931660000000 1.0
C      1  0.4469900000000  0.5168460000000  0.6034910000000 1.0
C      1  0.4284890000000  0.5304530000000  0.4974520000000 1.0
C      1  0.6077700000000  0.4941930000000  0.4980660000000 1.0
C      1  0.6080620000000  0.4891890000000  0.5534440000000 1.0
C      1  0.4478150000000  0.5401600000000  0.4447720000000 1.0
C      1  0.4879410000000  0.4369050000000  0.5200410000000 1.0
C      1  0.4959190000000  0.4968570000000  0.3952460000000 1.0
C      1  0.4641470000000  0.6132440000000  0.4556360000000 1.0
C      1  0.5642830000000  0.4687200000000  0.4632870000000 1.0
C      1  0.3714620000000  0.5379210000000  0.4565600000000 1.0
C      1  0.4054620000000  0.6063760000000  0.4096450000000 1.0
C      1  0.4577280000000  0.3859150000000  0.4490290000000 1.0
C      1  0.4779500000000  0.4499080000000  0.3922130000000 1.0
C      1  0.3938950000000  0.5339300000000  0.5364790000000 1.0
C      1  0.5140060000000  0.6329140000000  0.5529220000000 1.0
C      1  0.4683100000000  0.4450310000000  0.4709840000000 1.0
C      1  0.4828080000000  0.6279400000000  0.5165500000000 1.0
C      1  0.4420490000000  0.3974910000000  0.5025100000000 1.0
C      1  0.6075750000000  0.5355900000000  0.5262310000000 1.0
C      1  0.4356970000000  0.3998240000000  0.4426580000000 1.0
C      1  0.5288660000000  0.6195870000000  0.5696840000000 1.0
END
