TITL C-3866674-3872-221 0.00693193199636597 125000 -576.508512172552 0 0 94 (C1) n - 1
REM
REM in /home/nfs/bkarasulu/CARBON/AIRSS/Generating-Clusters/LCBOP/Only-C1/SD-CG/HFTN-CG/FIRE-CG
REM
REM
REM
REM
REM
REM ./C.cell (11c1c37f851c82e70ff6c80c92926a4b)
REM AIRSS Version 0.9.1 bugfix July 2018 build 013d7b7c2542+ Fri, 06 Jul 2018 19:26:36 +0100
REM compiler GCC version 9.2.1 20190827 (Red Hat 9.2.1-1)
REM options -cpp -mtune=generic -march=x86-64 -g -O0 -fpre-include=/usr/include/finclude/math-vector-fortran.h
REM seed -1375234130 -580070706 -1992037932 -667091225 -1154115602 1828498370 -1742976809 543245971 1491972570 -851608508 645835037 1410609455 1929500571 -449922874 -1491534587 1659054716 -1086966712 -1721656051 -405708452 2077855203 1775807339 -743003160 942835718 -1055289144 -680506711 603758262 2108040079 1662710757 -424510680 2063608518 -419339549 -773795810 -1225282861
REM
CELL 1.54180   50.00000   50.00000   50.00000   90.00000   90.00000   90.00000
LATT -1
SFAC C  
C      1  0.4944460000000  0.5134350000000  0.6180420000000 1.0
C      1  0.4818030000000  0.4642130000000  0.4685040000000 1.0
C      1  0.5156870000000  0.5739590000000  0.5169820000000 1.0
C      1  0.4516710000000  0.5670340000000  0.4220920000000 1.0
C      1  0.5275470000000  0.5875470000000  0.4954790000000 1.0
C      1  0.4235000000000  0.5352190000000  0.4543130000000 1.0
C      1  0.4363290000000  0.4349310000000  0.5058940000000 1.0
C      1  0.6083030000000  0.4736550000000  0.5362400000000 1.0
C      1  0.4593570000000  0.5136690000000  0.5347530000000 1.0
C      1  0.5207240000000  0.4447200000000  0.5710510000000 1.0
C      1  0.6499800000000  0.3325640000000  0.4806470000000 1.0
C      1  0.5191150000000  0.4080840000000  0.4912960000000 1.0
C      1  0.5898400000000  0.3836410000000  0.4856690000000 1.0
C      1  0.4984400000000  0.5236430000000  0.5937620000000 1.0
C      1  0.5444050000000  0.5506200000000  0.4319360000000 1.0
C      1  0.4211180000000  0.4704830000000  0.5631090000000 1.0
C      1  0.4015550000000  0.5384860000000  0.5262560000000 1.0
C      1  0.5175410000000  0.4894420000000  0.4492570000000 1.0
C      1  0.4535800000000  0.4622070000000  0.4653820000000 1.0
C      1  0.4253000000000  0.4919520000000  0.5027510000000 1.0
C      1  0.4869650000000  0.5283310000000  0.4613460000000 1.0
C      1  0.4763390000000  0.6148380000000  0.3409560000000 1.0
C      1  0.4954610000000  0.4518340000000  0.5766910000000 1.0
C      1  0.5532830000000  0.5307900000000  0.4499170000000 1.0
C      1  0.5214430000000  0.5185900000000  0.5174490000000 1.0
C      1  0.5363320000000  0.5257960000000  0.4727170000000 1.0
C      1  0.4235040000000  0.5809630000000  0.5122910000000 1.0
C      1  0.5073010000000  0.4317820000000  0.4930930000000 1.0
C      1  0.4758310000000  0.5789190000000  0.4131090000000 1.0
C      1  0.6124410000000  0.4968620000000  0.5492410000000 1.0
C      1  0.4075150000000  0.4715570000000  0.5021750000000 1.0
C      1  0.5625840000000  0.5057890000000  0.4397870000000 1.0
C      1  0.4720120000000  0.5965110000000  0.5136540000000 1.0
C      1  0.4939740000000  0.5884530000000  0.5302670000000 1.0
C      1  0.5818760000000  0.4891310000000  0.5000400000000 1.0
C      1  0.5415660000000  0.4390880000000  0.5552760000000 1.0
C      1  0.6099580000000  0.3664950000000  0.4839840000000 1.0
C      1  0.4869180000000  0.5775750000000  0.5556050000000 1.0
C      1  0.4713150000000  0.4581510000000  0.5633030000000 1.0
C      1  0.5117620000000  0.5140640000000  0.4634090000000 1.0
C      1  0.4893320000000  0.5267960000000  0.5677960000000 1.0
C      1  0.4256060000000  0.5483290000000  0.4796320000000 1.0
C      1  0.5228980000000  0.5630480000000  0.4217040000000 1.0
C      1  0.4747630000000  0.5249240000000  0.4369380000000 1.0
C      1  0.5435870000000  0.5184460000000  0.4992870000000 1.0
C      1  0.4594480000000  0.4787120000000  0.6254150000000 1.0
C      1  0.5908530000000  0.4670990000000  0.5151160000000 1.0
C      1  0.4347050000000  0.5060310000000  0.5248770000000 1.0
C      1  0.4463180000000  0.4651780000000  0.5764040000000 1.0
C      1  0.4929010000000  0.4704230000000  0.5180650000000 1.0
C      1  0.4133320000000  0.4480400000000  0.5168650000000 1.0
C      1  0.5696300000000  0.4446790000000  0.4640120000000 1.0
C      1  0.5457850000000  0.4831910000000  0.4433680000000 1.0
C      1  0.4382900000000  0.4832700000000  0.4541760000000 1.0
C      1  0.4587310000000  0.4350090000000  0.5228570000000 1.0
C      1  0.4258600000000  0.5070510000000  0.4521510000000 1.0
C      1  0.4124190000000  0.5161610000000  0.5403330000000 1.0
C      1  0.5698350000000  0.5133610000000  0.5075770000000 1.0
C      1  0.4517350000000  0.5622660000000  0.4815190000000 1.0
C      1  0.5099830000000  0.5454670000000  0.5155150000000 1.0
C      1  0.5421010000000  0.3947200000000  0.4890660000000 1.0
C      1  0.5046560000000  0.5959270000000  0.4500170000000 1.0
C      1  0.5004900000000  0.5792610000000  0.4277220000000 1.0
C      1  0.4498700000000  0.5847290000000  0.5006870000000 1.0
C      1  0.4843920000000  0.5055640000000  0.5480130000000 1.0
C      1  0.5340640000000  0.4391760000000  0.4305090000000 1.0
C      1  0.6110860000000  0.5430220000000  0.5645720000000 1.0
C      1  0.4787420000000  0.4962730000000  0.6311620000000 1.0
C      1  0.5832850000000  0.5279190000000  0.5276090000000 1.0
C      1  0.5736910000000  0.4302310000000  0.4879650000000 1.0
C      1  0.4321730000000  0.5515810000000  0.4324450000000 1.0
C      1  0.5077670000000  0.4462860000000  0.4306830000000 1.0
C      1  0.4656990000000  0.5414300000000  0.5309560000000 1.0
C      1  0.4091010000000  0.4969060000000  0.5613680000000 1.0
C      1  0.4111530000000  0.5552940000000  0.5050770000000 1.0
C      1  0.4777170000000  0.5510510000000  0.5563780000000 1.0
C      1  0.6025920000000  0.5233250000000  0.5477620000000 1.0
C      1  0.4827040000000  0.5436420000000  0.5083640000000 1.0
C      1  0.5530770000000  0.4555140000000  0.4440850000000 1.0
C      1  0.5194280000000  0.5979020000000  0.4721910000000 1.0
C      1  0.4413570000000  0.4401320000000  0.4784250000000 1.0
C      1  0.4759260000000  0.6032040000000  0.3642820000000 1.0
C      1  0.5756370000000  0.4433470000000  0.5132820000000 1.0
C      1  0.4956430000000  0.4574180000000  0.4927720000000 1.0
C      1  0.4110540000000  0.4508810000000  0.5450020000000 1.0
C      1  0.5589130000000  0.4368820000000  0.5350830000000 1.0
C      1  0.5691410000000  0.4020650000000  0.4875010000000 1.0
C      1  0.6301340000000  0.3493890000000  0.4823020000000 1.0
C      1  0.4739060000000  0.4555800000000  0.5350430000000 1.0
C      1  0.4471150000000  0.4678730000000  0.6044110000000 1.0
C      1  0.4755730000000  0.5913950000000  0.3879950000000 1.0
C      1  0.5036500000000  0.4962990000000  0.5280590000000 1.0
C      1  0.4746950000000  0.5450480000000  0.4814890000000 1.0
C      1  0.4988300000000  0.4682360000000  0.4463870000000 1.0
END
