TITL C-3866671-3735-681 0.0107173159583512 125000 -191.266873743884 0 0 33 (C1) n - 1
REM
REM in /home/nfs/bkarasulu/CARBON/AIRSS/Generating-Clusters/LCBOP/Only-C1/SD-CG/FIRE-CG
REM
REM
REM
REM
REM
REM ./C.cell (11c1c37f851c82e70ff6c80c92926a4b)
REM AIRSS Version 0.9.1 bugfix July 2018 build 013d7b7c2542+ Fri, 06 Jul 2018 19:26:36 +0100
REM compiler GCC version 9.2.1 20190827 (Red Hat 9.2.1-1)
REM options -cpp -mtune=generic -march=x86-64 -g -O0 -fpre-include=/usr/include/finclude/math-vector-fortran.h
REM seed 1805456626 1215195532 -1638359043 -1958363241 -447947112 -1878911364 1136178226 -1933472518 -1372456134 1215884924 1063891482 -608933164 -132581517 135082069 785974842 -235402435 -2044394668 356838104 1396944550 871280360 -154772257 -1781702837 1726295746 -728045252 1549970357 -2019304482 -1690202754 620933964 -1335902174 -1314659279 -1025230417 236387866 -1841859791
REM
CELL 1.54180   50.00000   50.00000   50.00000   90.00000   90.00000   90.00000
LATT -1
SFAC C  
C      1  0.4670950000000  0.5097690000000  0.5569760000000 1.0
C      1  0.5111950000000  0.5536300000000  0.5491950000000 1.0
C      1  0.5270190000000  0.5345900000000  0.5597820000000 1.0
C      1  0.5830000000000  0.4775060000000  0.4926230000000 1.0
C      1  0.4637990000000  0.5092330000000  0.5044160000000 1.0
C      1  0.4986450000000  0.5395370000000  0.4663430000000 1.0
C      1  0.4905310000000  0.5100350000000  0.5046590000000 1.0
C      1  0.5253200000000  0.4886820000000  0.5384890000000 1.0
C      1  0.4325050000000  0.4768310000000  0.4842230000000 1.0
C      1  0.4674540000000  0.5356330000000  0.5492550000000 1.0
C      1  0.5000260000000  0.4745370000000  0.5376800000000 1.0
C      1  0.4856120000000  0.5582680000000  0.4835020000000 1.0
C      1  0.6052980000000  0.4698550000000  0.4814940000000 1.0
C      1  0.4401980000000  0.4979860000000  0.4988940000000 1.0
C      1  0.5725240000000  0.5456850000000  0.4612970000000 1.0
C      1  0.5182430000000  0.5115170000000  0.4978490000000 1.0
C      1  0.4763830000000  0.4682410000000  0.4678200000000 1.0
C      1  0.4310460000000  0.4171610000000  0.4414280000000 1.0
C      1  0.4823460000000  0.4921320000000  0.4535030000000 1.0
C      1  0.5602520000000  0.4857800000000  0.5033840000000 1.0
C      1  0.4942720000000  0.4594780000000  0.5141150000000 1.0
C      1  0.4856760000000  0.5536280000000  0.5368310000000 1.0
C      1  0.5236410000000  0.5301550000000  0.4772670000000 1.0
C      1  0.5358630000000  0.4951800000000  0.5126420000000 1.0
C      1  0.5128290000000  0.4374330000000  0.4755380000000 1.0
C      1  0.4791410000000  0.4859470000000  0.5531710000000 1.0
C      1  0.4854540000000  0.5189730000000  0.4516570000000 1.0
C      1  0.4393530000000  0.4381260000000  0.4544890000000 1.0
C      1  0.5485850000000  0.5385790000000  0.4687490000000 1.0
C      1  0.4945040000000  0.4550440000000  0.4859320000000 1.0
C      1  0.4823370000000  0.5626500000000  0.5100690000000 1.0
C      1  0.5310230000000  0.5079880000000  0.5583460000000 1.0
C      1  0.4488350000000  0.4602140000000  0.4683800000000 1.0
END
