TITL C-3866673-4222-227 0.000434705611849914 125000 -558.303575089026 0 0 93 (C1) n - 1
REM
REM in /home/nfs/bkarasulu/CARBON/AIRSS/Generating-Clusters/LCBOP/Only-C1/SD-CG/HFTN-CG/FIRE-CG
REM
REM
REM
REM
REM
REM ./C.cell (11c1c37f851c82e70ff6c80c92926a4b)
REM AIRSS Version 0.9.1 bugfix July 2018 build 013d7b7c2542+ Fri, 06 Jul 2018 19:26:36 +0100
REM compiler GCC version 9.2.1 20190827 (Red Hat 9.2.1-1)
REM options -cpp -mtune=generic -march=x86-64 -g -O0 -fpre-include=/usr/include/finclude/math-vector-fortran.h
REM seed -1227393106 -937648178 -1352708468 -250364985 1430333882 -1399165498 -468750620 1919654895 -1317592700 836340299 -2052922040 -1791844638 1637687540 1666217395 601670741 1138727725 143473923 -532494269 1265618105 -1438113896 610684266 -1602092122 -1825113728 -809507593 1690502746 1844846958 -215740090 -1052076219 -746702051 -947707528 -623983367 1540044933 2045836128
REM
CELL 1.54180   50.00000   50.00000   50.00000   90.00000   90.00000   90.00000
LATT -1
SFAC C  
C      1  0.5681320000000  0.5526960000000  0.5503060000000 1.0
C      1  0.4387380000000  0.4472010000000  0.5367430000000 1.0
C      1  0.5389870000000  0.5408630000000  0.4642400000000 1.0
C      1  0.5200190000000  0.5420230000000  0.4196360000000 1.0
C      1  0.4199700000000  0.5008120000000  0.5205740000000 1.0
C      1  0.5171250000000  0.4537080000000  0.5062970000000 1.0
C      1  0.4781620000000  0.4158930000000  0.4829880000000 1.0
C      1  0.4437520000000  0.5157980000000  0.5882650000000 1.0
C      1  0.4972120000000  0.5531540000000  0.4067300000000 1.0
C      1  0.4797660000000  0.4639430000000  0.6269450000000 1.0
C      1  0.5014680000000  0.5263930000000  0.5022680000000 1.0
C      1  0.4712050000000  0.5504420000000  0.4180450000000 1.0
C      1  0.4553630000000  0.5264340000000  0.4131600000000 1.0
C      1  0.5171420000000  0.5251760000000  0.5258740000000 1.0
C      1  0.4736630000000  0.5051020000000  0.4074920000000 1.0
C      1  0.4940750000000  0.4997270000000  0.4280250000000 1.0
C      1  0.4713140000000  0.5564220000000  0.4457680000000 1.0
C      1  0.5611350000000  0.5235430000000  0.4686350000000 1.0
C      1  0.5631340000000  0.5134570000000  0.4961440000000 1.0
C      1  0.5702210000000  0.5730520000000  0.5310750000000 1.0
C      1  0.4918490000000  0.4106560000000  0.5576410000000 1.0
C      1  0.5659880000000  0.5976570000000  0.4846720000000 1.0
C      1  0.3962950000000  0.5301970000000  0.4872220000000 1.0
C      1  0.5112860000000  0.4269800000000  0.5698190000000 1.0
C      1  0.4304540000000  0.4958840000000  0.4455010000000 1.0
C      1  0.4544680000000  0.5386130000000  0.5029570000000 1.0
C      1  0.4464450000000  0.5592530000000  0.4582920000000 1.0
C      1  0.4421230000000  0.5472540000000  0.5282260000000 1.0
C      1  0.4362730000000  0.5831080000000  0.5020230000000 1.0
C      1  0.4327400000000  0.5216660000000  0.4318820000000 1.0
C      1  0.5461130000000  0.5149790000000  0.5235380000000 1.0
C      1  0.4568160000000  0.4294990000000  0.5245600000000 1.0
C      1  0.4733340000000  0.4918650000000  0.4813890000000 1.0
C      1  0.5645170000000  0.4399260000000  0.4859670000000 1.0
C      1  0.5217310000000  0.4966140000000  0.4721170000000 1.0
C      1  0.4739030000000  0.5176050000000  0.4973850000000 1.0
C      1  0.5470350000000  0.5022150000000  0.4230090000000 1.0
C      1  0.4919960000000  0.3727520000000  0.4997870000000 1.0
C      1  0.5908780000000  0.5080260000000  0.5415630000000 1.0
C      1  0.4010480000000  0.5437070000000  0.4640620000000 1.0
C      1  0.5137130000000  0.5277300000000  0.4747410000000 1.0
C      1  0.5503150000000  0.4171080000000  0.4879110000000 1.0
C      1  0.5786420000000  0.4878120000000  0.4990230000000 1.0
C      1  0.5648960000000  0.4679320000000  0.4832310000000 1.0
C      1  0.4687580000000  0.4690920000000  0.5668010000000 1.0
C      1  0.5594790000000  0.5013320000000  0.4487120000000 1.0
C      1  0.4495580000000  0.5168310000000  0.5605900000000 1.0
C      1  0.4477390000000  0.5622850000000  0.4857900000000 1.0
C      1  0.4682960000000  0.4657570000000  0.4933310000000 1.0
C      1  0.4628700000000  0.4845350000000  0.6248470000000 1.0
C      1  0.4368220000000  0.4968660000000  0.5434710000000 1.0
C      1  0.4458310000000  0.4705640000000  0.5502830000000 1.0
C      1  0.4662980000000  0.4126240000000  0.4577070000000 1.0
C      1  0.5656480000000  0.5589880000000  0.5773690000000 1.0
C      1  0.4523450000000  0.4783640000000  0.4411950000000 1.0
C      1  0.5835810000000  0.4768780000000  0.3560740000000 1.0
C      1  0.4504190000000  0.4522690000000  0.4318020000000 1.0
C      1  0.4747060000000  0.5285300000000  0.5531490000000 1.0
C      1  0.4773770000000  0.4898710000000  0.4513980000000 1.0
C      1  0.5718350000000  0.4850750000000  0.3778570000000 1.0
C      1  0.5269800000000  0.4037530000000  0.4893040000000 1.0
C      1  0.5697300000000  0.5884130000000  0.5093650000000 1.0
C      1  0.5418610000000  0.4851750000000  0.5320470000000 1.0
C      1  0.5130290000000  0.4502560000000  0.4800980000000 1.0
C      1  0.5086910000000  0.5003460000000  0.5680610000000 1.0
C      1  0.5551440000000  0.5733000000000  0.6544120000000 1.0
C      1  0.4554490000000  0.4268430000000  0.4379350000000 1.0
C      1  0.4325420000000  0.5732430000000  0.5274980000000 1.0
C      1  0.4992280000000  0.3977910000000  0.4909860000000 1.0
C      1  0.4174160000000  0.4922320000000  0.4706640000000 1.0
C      1  0.4496360000000  0.5033290000000  0.6112100000000 1.0
C      1  0.4676290000000  0.4373780000000  0.4993710000000 1.0
C      1  0.5292820000000  0.4601730000000  0.5307150000000 1.0
C      1  0.5129220000000  0.4449450000000  0.4544120000000 1.0
C      1  0.4965650000000  0.4455850000000  0.6172020000000 1.0
C      1  0.5586500000000  0.5686310000000  0.6290040000000 1.0
C      1  0.5622120000000  0.5638820000000  0.6031720000000 1.0
C      1  0.4243460000000  0.5443560000000  0.4478220000000 1.0
C      1  0.5088760000000  0.4327480000000  0.5972440000000 1.0
C      1  0.5464000000000  0.4815420000000  0.4655840000000 1.0
C      1  0.5021380000000  0.5214240000000  0.5503820000000 1.0
C      1  0.5357210000000  0.5557250000000  0.4396800000000 1.0
C      1  0.5681220000000  0.5256630000000  0.5419740000000 1.0
C      1  0.4097070000000  0.5060760000000  0.4943760000000 1.0
C      1  0.4924610000000  0.4795840000000  0.5734170000000 1.0
C      1  0.5272170000000  0.4426780000000  0.5526180000000 1.0
C      1  0.4924290000000  0.5449710000000  0.4605800000000 1.0
C      1  0.5579450000000  0.5965420000000  0.4592530000000 1.0
C      1  0.5201100000000  0.5127460000000  0.4223480000000 1.0
C      1  0.5953040000000  0.4892800000000  0.5220010000000 1.0
C      1  0.5598740000000  0.4934080000000  0.3999770000000 1.0
C      1  0.5463380000000  0.5815960000000  0.4402700000000 1.0
C      1  0.4710390000000  0.4116450000000  0.5409170000000 1.0
END
