TITL C-3866669-3764-700 -3.93553077311253e-07 125000 -599.153402938213 0 0 99 (C1) n - 1
REM
REM in /home/nfs/bkarasulu/CARBON/AIRSS/Generating-Clusters/LCBOP/Only-C1/SD-CG/FIRE-CG
REM
REM
REM
REM
REM
REM ./C.cell (11c1c37f851c82e70ff6c80c92926a4b)
REM AIRSS Version 0.9.1 bugfix July 2018 build 013d7b7c2542+ Fri, 06 Jul 2018 19:26:36 +0100
REM compiler GCC version 9.2.1 20190827 (Red Hat 9.2.1-1)
REM options -cpp -mtune=generic -march=x86-64 -g -O0 -fpre-include=/usr/include/finclude/math-vector-fortran.h
REM seed -1643336481 -1507043727 1425495045 787723633 677316953 439726448 -1667173075 1821457671 -2025045457 -1173505705 228919148 1713260284 -120113139 1803326403 161218359 217988629 393549129 -1833391541 1458168316 1503899821 87062209 1024573270 962831203 2030581135 2035251550 -1624516078 48082404 567388087 -386836338 219411994 -553598850 2049438972 1933650910
REM
CELL 1.54180   50.00000   50.00000   50.00000   90.00000   90.00000   90.00000
LATT -1
SFAC C  
C      1  0.5292270000000  0.5004830000000  0.5031420000000 1.0
C      1  0.4656720000000  0.4881040000000  0.5911000000000 1.0
C      1  0.5020260000000  0.4601400000000  0.4748610000000 1.0
C      1  0.5250280000000  0.5646200000000  0.4158430000000 1.0
C      1  0.4069400000000  0.4929450000000  0.4646200000000 1.0
C      1  0.5073620000000  0.4333800000000  0.4822430000000 1.0
C      1  0.5286010000000  0.4886610000000  0.4224430000000 1.0
C      1  0.4717810000000  0.4053820000000  0.4849250000000 1.0
C      1  0.5174120000000  0.5393440000000  0.4297610000000 1.0
C      1  0.4404510000000  0.5241360000000  0.4488450000000 1.0
C      1  0.5298970000000  0.4593660000000  0.5277860000000 1.0
C      1  0.4826060000000  0.5058500000000  0.4305300000000 1.0
C      1  0.5702280000000  0.5305330000000  0.5094810000000 1.0
C      1  0.5468340000000  0.4739150000000  0.5043090000000 1.0
C      1  0.5260400000000  0.4710000000000  0.6054590000000 1.0
C      1  0.4753640000000  0.4488770000000  0.5077480000000 1.0
C      1  0.4188310000000  0.4673740000000  0.4612920000000 1.0
C      1  0.5230970000000  0.5061450000000  0.4752070000000 1.0
C      1  0.5109350000000  0.4108200000000  0.4446210000000 1.0
C      1  0.4259230000000  0.5510220000000  0.4841760000000 1.0
C      1  0.5301120000000  0.4158960000000  0.5225160000000 1.0
C      1  0.5469750000000  0.4504130000000  0.4531350000000 1.0
C      1  0.5809740000000  0.4835800000000  0.5367060000000 1.0
C      1  0.5534710000000  0.5665230000000  0.4272290000000 1.0
C      1  0.5239700000000  0.5449730000000  0.5268720000000 1.0
C      1  0.5622460000000  0.4870350000000  0.5557210000000 1.0
C      1  0.4377390000000  0.4276220000000  0.5211860000000 1.0
C      1  0.5191600000000  0.5346380000000  0.5529220000000 1.0
C      1  0.4450200000000  0.5527300000000  0.5326470000000 1.0
C      1  0.4894010000000  0.5836500000000  0.4550850000000 1.0
C      1  0.5417370000000  0.5274580000000  0.5121090000000 1.0
C      1  0.4657560000000  0.4804890000000  0.5642560000000 1.0
C      1  0.5647640000000  0.4971120000000  0.4505850000000 1.0
C      1  0.5226210000000  0.5498050000000  0.4571010000000 1.0
C      1  0.5024410000000  0.5587540000000  0.5156450000000 1.0
C      1  0.4862550000000  0.5776280000000  0.5287490000000 1.0
C      1  0.5576070000000  0.5565150000000  0.5720730000000 1.0
C      1  0.4303820000000  0.4985050000000  0.5339500000000 1.0
C      1  0.4612270000000  0.5242580000000  0.4298060000000 1.0
C      1  0.4144160000000  0.5128580000000  0.4454470000000 1.0
C      1  0.4711530000000  0.5282460000000  0.4891630000000 1.0
C      1  0.4991590000000  0.4660090000000  0.5272990000000 1.0
C      1  0.3696800000000  0.5083900000000  0.4915830000000 1.0
C      1  0.4716820000000  0.4354300000000  0.5549600000000 1.0
C      1  0.5906640000000  0.5601550000000  0.4712820000000 1.0
C      1  0.4416890000000  0.4748620000000  0.5476850000000 1.0
C      1  0.4856310000000  0.4615260000000  0.5543520000000 1.0
C      1  0.5325090000000  0.4952880000000  0.5922210000000 1.0
C      1  0.4866710000000  0.4119230000000  0.5490550000000 1.0
C      1  0.4460340000000  0.5331980000000  0.4753110000000 1.0
C      1  0.4942530000000  0.4121400000000  0.4682480000000 1.0
C      1  0.4748940000000  0.4824480000000  0.4445600000000 1.0
C      1  0.4903090000000  0.5491120000000  0.4918350000000 1.0
C      1  0.5464050000000  0.5669300000000  0.4568570000000 1.0
C      1  0.4518970000000  0.5884350000000  0.4954940000000 1.0
C      1  0.5320880000000  0.5230780000000  0.5983460000000 1.0
C      1  0.4698800000000  0.5958350000000  0.4732050000000 1.0
C      1  0.4817620000000  0.5025520000000  0.4955830000000 1.0
C      1  0.5422630000000  0.5124300000000  0.4584170000000 1.0
C      1  0.5666200000000  0.5750330000000  0.4749800000000 1.0
C      1  0.4586810000000  0.4633090000000  0.4889040000000 1.0
C      1  0.4570330000000  0.4646820000000  0.4315920000000 1.0
C      1  0.3954070000000  0.4991300000000  0.4901370000000 1.0
C      1  0.4999650000000  0.5606050000000  0.4687650000000 1.0
C      1  0.5826220000000  0.5090090000000  0.4938880000000 1.0
C      1  0.5899080000000  0.5385350000000  0.4523170000000 1.0
C      1  0.5387500000000  0.4360600000000  0.5413970000000 1.0
C      1  0.5356900000000  0.4921530000000  0.5638750000000 1.0
C      1  0.4105150000000  0.4954690000000  0.5138630000000 1.0
C      1  0.4631880000000  0.4216860000000  0.5071770000000 1.0
C      1  0.4394840000000  0.5262060000000  0.5374420000000 1.0
C      1  0.5099680000000  0.5117630000000  0.4244610000000 1.0
C      1  0.5037340000000  0.5845480000000  0.4281180000000 1.0
C      1  0.4195150000000  0.4388770000000  0.5026650000000 1.0
C      1  0.5337590000000  0.5420700000000  0.5767300000000 1.0
C      1  0.5326730000000  0.4277930000000  0.4410080000000 1.0
C      1  0.5636850000000  0.5951880000000  0.4929900000000 1.0
C      1  0.4441060000000  0.4436030000000  0.5447810000000 1.0
C      1  0.5767240000000  0.5568440000000  0.5531360000000 1.0
C      1  0.5751210000000  0.4847210000000  0.5089070000000 1.0
C      1  0.5358880000000  0.4473860000000  0.5929990000000 1.0
C      1  0.4310090000000  0.4599180000000  0.4369480000000 1.0
C      1  0.5856400000000  0.5116560000000  0.4643120000000 1.0
C      1  0.4587570000000  0.5765530000000  0.5218280000000 1.0
C      1  0.4789740000000  0.4798790000000  0.4743490000000 1.0
C      1  0.5149660000000  0.5063450000000  0.5487530000000 1.0
C      1  0.5486140000000  0.4498720000000  0.4835100000000 1.0
C      1  0.5414580000000  0.4356780000000  0.5693340000000 1.0
C      1  0.4312700000000  0.4568190000000  0.4841480000000 1.0
C      1  0.5022920000000  0.4716620000000  0.6205160000000 1.0
C      1  0.4270200000000  0.5777970000000  0.4869370000000 1.0
C      1  0.5769400000000  0.5484350000000  0.4273260000000 1.0
C      1  0.3976440000000  0.5206650000000  0.4253810000000 1.0
C      1  0.5507500000000  0.4749670000000  0.4378050000000 1.0
C      1  0.4781430000000  0.4814810000000  0.6138920000000 1.0
C      1  0.5070360000000  0.4027090000000  0.5332710000000 1.0
C      1  0.5320610000000  0.4276480000000  0.4953800000000 1.0
C      1  0.5825930000000  0.5466940000000  0.5289380000000 1.0
C      1  0.5026430000000  0.4960310000000  0.5196500000000 1.0
END
