TITL C-3866670-4165-515 0.1249601159291 125000 -959.341797467078 0 0 156 (C1) n - 1
REM
REM in /home/nfs/bkarasulu/CARBON/AIRSS/Generating-Clusters/LCBOP/Only-C1/SD-CG/FIRE-CG
REM
REM
REM
REM
REM
REM ./C.cell (11c1c37f851c82e70ff6c80c92926a4b)
REM AIRSS Version 0.9.1 bugfix July 2018 build 013d7b7c2542+ Fri, 06 Jul 2018 19:26:36 +0100
REM compiler GCC version 9.2.1 20190827 (Red Hat 9.2.1-1)
REM options -cpp -mtune=generic -march=x86-64 -g -O0 -fpre-include=/usr/include/finclude/math-vector-fortran.h
REM seed -1987135287 1969216115 -1785596308 1135126500 -1288587433 735654302 -888130232 -2131195119 1075338293 1917074835 -607323162 527225405 2102795925 -181997052 844596796 1994433497 -1426913951 -638404216 -1096508346 319150349 9775836 -1067152963 1167609625 1784561892 -275452566 1619543824 827303795 -1751850445 -1946128034 -2146847989 -284436416 -1313136975 393034679
REM
CELL 1.54180   50.00000   50.00000   50.00000   90.00000   90.00000   90.00000
LATT -1
SFAC C  
C      1  0.5463110000000  0.5623010000000  0.5697330000000 1.0
C      1  0.4702650000000  0.5036180000000  0.4634870000000 1.0
C      1  0.5194510000000  0.5576690000000  0.5704020000000 1.0
C      1  0.4293840000000  0.5480460000000  0.5352100000000 1.0
C      1  0.5953770000000  0.5024330000000  0.5738100000000 1.0
C      1  0.3838480000000  0.4430280000000  0.4564840000000 1.0
C      1  0.3931830000000  0.5304390000000  0.4891210000000 1.0
C      1  0.4573560000000  0.4468730000000  0.4844580000000 1.0
C      1  0.4833100000000  0.5372640000000  0.5415460000000 1.0
C      1  0.4995200000000  0.4456870000000  0.4052270000000 1.0
C      1  0.5312690000000  0.5807240000000  0.5000160000000 1.0
C      1  0.4897890000000  0.4609660000000  0.4276020000000 1.0
C      1  0.4050930000000  0.5315020000000  0.5396440000000 1.0
C      1  0.4811580000000  0.4406450000000  0.6045120000000 1.0
C      1  0.5117990000000  0.6110740000000  0.4599600000000 1.0
C      1  0.4437760000000  0.4309600000000  0.4611200000000 1.0
C      1  0.4623090000000  0.4899210000000  0.5472550000000 1.0
C      1  0.4552050000000  0.4117020000000  0.5197620000000 1.0
C      1  0.5396110000000  0.5225390000000  0.4991440000000 1.0
C      1  0.4926190000000  0.5474480000000  0.5863540000000 1.0
C      1  0.6216350000000  0.4940760000000  0.5691750000000 1.0
C      1  0.5673550000000  0.5035130000000  0.4666630000000 1.0
C      1  0.5892760000000  0.5312290000000  0.5737190000000 1.0
C      1  0.5070510000000  0.4606510000000  0.4505170000000 1.0
C      1  0.4550300000000  0.5949440000000  0.5065520000000 1.0
C      1  0.5538360000000  0.4427290000000  0.5953730000000 1.0
C      1  0.5146580000000  0.5965530000000  0.4136050000000 1.0
C      1  0.5964570000000  0.5653390000000  0.4708940000000 1.0
C      1  0.5521820000000  0.4948030000000  0.5921200000000 1.0
C      1  0.4076530000000  0.5049010000000  0.4495430000000 1.0
C      1  0.5722500000000  0.5882680000000  0.5295650000000 1.0
C      1  0.4430160000000  0.5562900000000  0.5602290000000 1.0
C      1  0.4144130000000  0.4444290000000  0.5131700000000 1.0
C      1  0.5505200000000  0.4642540000000  0.4991500000000 1.0
C      1  0.6019710000000  0.5384640000000  0.4769360000000 1.0
C      1  0.5059330000000  0.5114700000000  0.3700620000000 1.0
C      1  0.4385630000000  0.5498100000000  0.5092800000000 1.0
C      1  0.5060410000000  0.5079300000000  0.4297930000000 1.0
C      1  0.4894020000000  0.4069340000000  0.5559880000000 1.0
C      1  0.4215060000000  0.5497770000000  0.4519750000000 1.0
C      1  0.5382880000000  0.4246460000000  0.5479520000000 1.0
C      1  0.4871850000000  0.6103050000000  0.4737910000000 1.0
C      1  0.4014560000000  0.4654240000000  0.4955670000000 1.0
C      1  0.3998860000000  0.4149050000000  0.6092530000000 1.0
C      1  0.4112550000000  0.4538310000000  0.5405000000000 1.0
C      1  0.4414840000000  0.4909830000000  0.5292240000000 1.0
C      1  0.4752300000000  0.4039000000000  0.5000470000000 1.0
C      1  0.5925250000000  0.4785960000000  0.3857270000000 1.0
C      1  0.5454420000000  0.4688820000000  0.5289660000000 1.0
C      1  0.4569850000000  0.5262640000000  0.4213470000000 1.0
C      1  0.6022670000000  0.5305910000000  0.5045450000000 1.0
C      1  0.5729600000000  0.5783530000000  0.4719930000000 1.0
C      1  0.3942960000000  0.5181480000000  0.5149280000000 1.0
C      1  0.5156220000000  0.4117030000000  0.5537730000000 1.0
C      1  0.4491500000000  0.5273370000000  0.4963990000000 1.0
C      1  0.4600740000000  0.5761130000000  0.4542380000000 1.0
C      1  0.5346700000000  0.4442660000000  0.4841360000000 1.0
C      1  0.5458180000000  0.5487780000000  0.4250830000000 1.0
C      1  0.4772890000000  0.3816600000000  0.4828450000000 1.0
C      1  0.5839400000000  0.5218990000000  0.4059550000000 1.0
C      1  0.5419090000000  0.5213270000000  0.4681060000000 1.0
C      1  0.5275310000000  0.4820690000000  0.5985340000000 1.0
C      1  0.5315170000000  0.6302000000000  0.4635150000000 1.0
C      1  0.4554120000000  0.4214940000000  0.4162230000000 1.0
C      1  0.5106930000000  0.4362620000000  0.4975510000000 1.0
C      1  0.4048840000000  0.5295870000000  0.4631780000000 1.0
C      1  0.5565220000000  0.5272250000000  0.5219360000000 1.0
C      1  0.4386890000000  0.5739250000000  0.4949810000000 1.0
C      1  0.5458880000000  0.5707350000000  0.4762680000000 1.0
C      1  0.4396590000000  0.4678430000000  0.4326290000000 1.0
C      1  0.5193920000000  0.5055500000000  0.4550080000000 1.0
C      1  0.4709690000000  0.5512270000000  0.5640430000000 1.0
C      1  0.4214220000000  0.5525420000000  0.5788000000000 1.0
C      1  0.4385170000000  0.4032850000000  0.4638260000000 1.0
C      1  0.5076630000000  0.4951250000000  0.5562380000000 1.0
C      1  0.4947700000000  0.3628090000000  0.4443590000000 1.0
C      1  0.5066290000000  0.4405940000000  0.6126700000000 1.0
C      1  0.4587900000000  0.3844470000000  0.4601700000000 1.0
C      1  0.4154790000000  0.4817070000000  0.5361160000000 1.0
C      1  0.5041550000000  0.4190230000000  0.4166790000000 1.0
C      1  0.5259430000000  0.4184290000000  0.4367910000000 1.0
C      1  0.4469820000000  0.4989180000000  0.5026740000000 1.0
C      1  0.4622490000000  0.4685540000000  0.5655880000000 1.0
C      1  0.6702150000000  0.4772390000000  0.5582830000000 1.0
C      1  0.5957050000000  0.4820550000000  0.4998260000000 1.0
C      1  0.5326610000000  0.4917740000000  0.5428750000000 1.0
C      1  0.6461960000000  0.4855730000000  0.5640480000000 1.0
C      1  0.4845800000000  0.5076150000000  0.5448850000000 1.0
C      1  0.4402440000000  0.4344260000000  0.5083070000000 1.0
C      1  0.4050090000000  0.5295580000000  0.5699100000000 1.0
C      1  0.5539060000000  0.4483260000000  0.5476510000000 1.0
C      1  0.5443830000000  0.5388040000000  0.6049080000000 1.0
C      1  0.4441090000000  0.6130130000000  0.5240360000000 1.0
C      1  0.5274500000000  0.5467530000000  0.4027850000000 1.0
C      1  0.5240090000000  0.4974290000000  0.4105330000000 1.0
C      1  0.5911640000000  0.5181260000000  0.4602060000000 1.0
C      1  0.4644070000000  0.4078750000000  0.5460160000000 1.0
C      1  0.5457590000000  0.3796380000000  0.4633900000000 1.0
C      1  0.5007130000000  0.5579630000000  0.6139410000000 1.0
C      1  0.5270090000000  0.4405640000000  0.4553500000000 1.0
C      1  0.5273700000000  0.3679380000000  0.4793560000000 1.0
C      1  0.4731270000000  0.5310880000000  0.4773930000000 1.0
C      1  0.5484560000000  0.4904430000000  0.4022210000000 1.0
C      1  0.4614250000000  0.5090350000000  0.6032440000000 1.0
C      1  0.5480590000000  0.5156430000000  0.5471480000000 1.0
C      1  0.5742990000000  0.5549640000000  0.5645260000000 1.0
C      1  0.5001280000000  0.3661760000000  0.4730590000000 1.0
C      1  0.5519150000000  0.6463360000000  0.4685490000000 1.0
C      1  0.5102600000000  0.4822230000000  0.4680170000000 1.0
C      1  0.4831130000000  0.5969520000000  0.4991050000000 1.0
C      1  0.4048540000000  0.4398680000000  0.5632960000000 1.0
C      1  0.4166070000000  0.4782280000000  0.4485770000000 1.0
C      1  0.4933210000000  0.5522370000000  0.5184500000000 1.0
C      1  0.5726540000000  0.6610390000000  0.4743200000000 1.0
C      1  0.4746140000000  0.3812690000000  0.4354760000000 1.0
C      1  0.4843190000000  0.4305290000000  0.4907260000000 1.0
C      1  0.5704950000000  0.4811620000000  0.4862100000000 1.0
C      1  0.5486470000000  0.5942290000000  0.5180630000000 1.0
C      1  0.5018060000000  0.4846420000000  0.3694410000000 1.0
C      1  0.4748160000000  0.5055050000000  0.4329580000000 1.0
C      1  0.5297440000000  0.4544100000000  0.6054000000000 1.0
C      1  0.4121690000000  0.5072430000000  0.5859920000000 1.0
C      1  0.4010790000000  0.4617080000000  0.4670390000000 1.0
C      1  0.5029980000000  0.5778400000000  0.5085200000000 1.0
C      1  0.4875380000000  0.5159910000000  0.5944690000000 1.0
C      1  0.4015730000000  0.4270910000000  0.5862700000000 1.0
C      1  0.4663920000000  0.4777880000000  0.4258550000000 1.0
C      1  0.5814390000000  0.5413420000000  0.5204920000000 1.0
C      1  0.4787420000000  0.4046240000000  0.4196480000000 1.0
C      1  0.5355840000000  0.5502450000000  0.4555510000000 1.0
C      1  0.4587630000000  0.4822770000000  0.4815740000000 1.0
C      1  0.5124400000000  0.5902520000000  0.4401410000000 1.0
C      1  0.4428780000000  0.4395160000000  0.4343800000000 1.0
C      1  0.5015440000000  0.4600550000000  0.3809590000000 1.0
C      1  0.5747550000000  0.4825850000000  0.5795010000000 1.0
C      1  0.5428990000000  0.3968870000000  0.4429160000000 1.0
C      1  0.4353480000000  0.5033230000000  0.5995820000000 1.0
C      1  0.4353520000000  0.5698370000000  0.4666350000000 1.0
C      1  0.3976300000000  0.4895420000000  0.5139640000000 1.0
C      1  0.4355160000000  0.5413200000000  0.4281300000000 1.0
C      1  0.5266530000000  0.5520290000000  0.6207640000000 1.0
C      1  0.5724560000000  0.5426700000000  0.4185070000000 1.0
C      1  0.4804910000000  0.5553660000000  0.4583030000000 1.0
C      1  0.4944030000000  0.5324800000000  0.4982420000000 1.0
C      1  0.5821870000000  0.5634310000000  0.5382750000000 1.0
C      1  0.5755590000000  0.4963540000000  0.3975280000000 1.0
C      1  0.5130480000000  0.5127750000000  0.5032140000000 1.0
C      1  0.5483190000000  0.5208490000000  0.5834550000000 1.0
C      1  0.5074260000000  0.5628900000000  0.4502730000000 1.0
C      1  0.5670370000000  0.4553210000000  0.5727130000000 1.0
C      1  0.4655660000000  0.4518310000000  0.5860000000000 1.0
C      1  0.5150130000000  0.5339240000000  0.3823570000000 1.0
C      1  0.6094600000000  0.5034980000000  0.5090270000000 1.0
C      1  0.4665010000000  0.6035450000000  0.4553200000000 1.0
C      1  0.5068740000000  0.4866790000000  0.4953080000000 1.0
C      1  0.5059520000000  0.4955720000000  0.5853020000000 1.0
END
