TITL C-3866674-3872-342 -0.00138736016040753 125000 -474.755005068238 0 0 79 (C1) n - 1
REM
REM in /home/nfs/bkarasulu/CARBON/AIRSS/Generating-Clusters/LCBOP/Only-C1/SD-CG/FIRE-CG
REM
REM
REM
REM
REM
REM ./C.cell (11c1c37f851c82e70ff6c80c92926a4b)
REM AIRSS Version 0.9.1 bugfix July 2018 build 013d7b7c2542+ Fri, 06 Jul 2018 19:26:36 +0100
REM compiler GCC version 9.2.1 20190827 (Red Hat 9.2.1-1)
REM options -cpp -mtune=generic -march=x86-64 -g -O0 -fpre-include=/usr/include/finclude/math-vector-fortran.h
REM seed 588249351 1212598703 492088551 1397696918 447147646 1220939311 110643430 -1471706349 1848365695 -601840232 711075877 -833557354 -1809136830 921146949 975284867 -807944958 2127621993 457455563 1949810296 61542528 2060840053 1979972856 -1587886916 1075222119 349222948 -1082938357 -737706324 -1170271687 -1794779364 1659231718 1319013952 632112530 -902919481
REM
CELL 1.54180   50.00000   50.00000   50.00000   90.00000   90.00000   90.00000
LATT -1
SFAC C  
C      1  0.5377760000000  0.6073630000000  0.5209350000000 1.0
C      1  0.5110930000000  0.4421370000000  0.4988500000000 1.0
C      1  0.4618850000000  0.6345350000000  0.4908530000000 1.0
C      1  0.5579730000000  0.4763550000000  0.4436760000000 1.0
C      1  0.5057360000000  0.5137040000000  0.5306140000000 1.0
C      1  0.5130620000000  0.4866620000000  0.4596460000000 1.0
C      1  0.4967620000000  0.5567820000000  0.4459730000000 1.0
C      1  0.4847710000000  0.3971760000000  0.4490510000000 1.0
C      1  0.5763150000000  0.4931000000000  0.4536520000000 1.0
C      1  0.5714230000000  0.5816340000000  0.5481930000000 1.0
C      1  0.5058990000000  0.5201150000000  0.5584270000000 1.0
C      1  0.6060230000000  0.4239160000000  0.4848170000000 1.0
C      1  0.5169370000000  0.4321340000000  0.5708030000000 1.0
C      1  0.5076860000000  0.5856620000000  0.4820560000000 1.0
C      1  0.5058900000000  0.3835690000000  0.4925640000000 1.0
C      1  0.4740570000000  0.5037140000000  0.4931990000000 1.0
C      1  0.4622300000000  0.6138790000000  0.4732270000000 1.0
C      1  0.5566730000000  0.6017830000000  0.5388250000000 1.0
C      1  0.5373880000000  0.4760710000000  0.5270550000000 1.0
C      1  0.4748830000000  0.4507550000000  0.5903000000000 1.0
C      1  0.4236930000000  0.5104220000000  0.4930470000000 1.0
C      1  0.3713670000000  0.5651800000000  0.4856990000000 1.0
C      1  0.4593900000000  0.5044540000000  0.5423390000000 1.0
C      1  0.5019410000000  0.4151210000000  0.5536080000000 1.0
C      1  0.5029970000000  0.4524460000000  0.5863420000000 1.0
C      1  0.4791790000000  0.4669730000000  0.4103580000000 1.0
C      1  0.5830570000000  0.4332940000000  0.4928240000000 1.0
C      1  0.4856570000000  0.4410370000000  0.5117920000000 1.0
C      1  0.4463940000000  0.4996810000000  0.4517420000000 1.0
C      1  0.5375390000000  0.5423630000000  0.4665270000000 1.0
C      1  0.4456440000000  0.4665020000000  0.4883850000000 1.0
C      1  0.5501350000000  0.5219420000000  0.5112330000000 1.0
C      1  0.4767110000000  0.5766440000000  0.4470550000000 1.0
C      1  0.4851570000000  0.4928160000000  0.4074640000000 1.0
C      1  0.4756750000000  0.3719960000000  0.4434020000000 1.0
C      1  0.4513220000000  0.5858130000000  0.4379390000000 1.0
C      1  0.3739050000000  0.5894520000000  0.4751360000000 1.0
C      1  0.4143450000000  0.6143240000000  0.4562950000000 1.0
C      1  0.3816310000000  0.5417210000000  0.4927840000000 1.0
C      1  0.4621060000000  0.4483590000000  0.4987410000000 1.0
C      1  0.4775460000000  0.4188970000000  0.4325520000000 1.0
C      1  0.5843520000000  0.4894300000000  0.5941200000000 1.0
C      1  0.5100710000000  0.3793290000000  0.5186910000000 1.0
C      1  0.4467370000000  0.4957260000000  0.4818750000000 1.0
C      1  0.5128060000000  0.4801510000000  0.5848920000000 1.0
C      1  0.5256500000000  0.4411490000000  0.4529700000000 1.0
C      1  0.5351850000000  0.4547090000000  0.5081920000000 1.0
C      1  0.4348150000000  0.5164960000000  0.5420150000000 1.0
C      1  0.4939070000000  0.5173760000000  0.4131980000000 1.0
C      1  0.5664670000000  0.5344790000000  0.5303030000000 1.0
C      1  0.5159600000000  0.5613940000000  0.4688510000000 1.0
C      1  0.5525370000000  0.5242660000000  0.5998230000000 1.0
C      1  0.5213470000000  0.5998050000000  0.5015210000000 1.0
C      1  0.4410690000000  0.6073400000000  0.4543030000000 1.0
C      1  0.4834290000000  0.5948910000000  0.4698760000000 1.0
C      1  0.4581730000000  0.4694250000000  0.5797160000000 1.0
C      1  0.4946480000000  0.5004170000000  0.5755140000000 1.0
C      1  0.5017470000000  0.4018330000000  0.4715080000000 1.0
C      1  0.5422220000000  0.4404180000000  0.5604310000000 1.0
C      1  0.3897940000000  0.6077250000000  0.4641110000000 1.0
C      1  0.4760950000000  0.4421310000000  0.4195530000000 1.0
C      1  0.5337770000000  0.5317790000000  0.4393340000000 1.0
C      1  0.5748050000000  0.5554850000000  0.5442920000000 1.0
C      1  0.5071280000000  0.5361710000000  0.4288370000000 1.0
C      1  0.4957390000000  0.4991610000000  0.4755460000000 1.0
C      1  0.5305160000000  0.5033500000000  0.5206260000000 1.0
C      1  0.4681720000000  0.4925690000000  0.5670000000000 1.0
C      1  0.5098370000000  0.3900920000000  0.5433540000000 1.0
C      1  0.5133090000000  0.4275940000000  0.4741600000000 1.0
C      1  0.4006080000000  0.5233220000000  0.4951810000000 1.0
C      1  0.4790190000000  0.5079560000000  0.5210170000000 1.0
C      1  0.5318090000000  0.4682470000000  0.4494670000000 1.0
C      1  0.5455020000000  0.4679540000000  0.5535800000000 1.0
C      1  0.5591490000000  0.4994700000000  0.5902460000000 1.0
C      1  0.4839530000000  0.4289690000000  0.5369210000000 1.0
C      1  0.5547000000000  0.5278590000000  0.4837460000000 1.0
C      1  0.5596200000000  0.4434840000000  0.4997950000000 1.0
C      1  0.5755070000000  0.5135410000000  0.4709680000000 1.0
C      1  0.5399870000000  0.4840230000000  0.5764890000000 1.0
END
