TITL C-3866669-3764-178 0.00378960341970702 125000 -729.318782020782 0 0 121 (C1) n - 1
REM
REM in /home/nfs/bkarasulu/CARBON/AIRSS/Generating-Clusters/LCBOP/Only-C1/SD-CG/HFTN-CG/FIRE-CG
REM
REM
REM
REM
REM
REM ./C.cell (11c1c37f851c82e70ff6c80c92926a4b)
REM AIRSS Version 0.9.1 bugfix July 2018 build 013d7b7c2542+ Fri, 06 Jul 2018 19:26:36 +0100
REM compiler GCC version 9.2.1 20190827 (Red Hat 9.2.1-1)
REM options -cpp -mtune=generic -march=x86-64 -g -O0 -fpre-include=/usr/include/finclude/math-vector-fortran.h
REM seed 1611927276 -1272780458 1804047050 -776510218 -1175224937 485515932 -1163054642 777410528 -1777726362 195787988 1445954441 715895399 350092543 -343909133 -869780538 -945170672 -2059092952 1113039744 934462082 104760554 1704245067 1553327531 100653500 1732273732 727711727 1726659119 -1606605305 -814797715 -1281840846 -1632708266 1744450753 -1943958411 -1001340237
REM
CELL 1.54180   50.00000   50.00000   50.00000   90.00000   90.00000   90.00000
LATT -1
SFAC C  
C      1  0.4886690000000  0.3686930000000  0.5358010000000 1.0
C      1  0.4886050000000  0.3501930000000  0.5541650000000 1.0
C      1  0.4753200000000  0.5950130000000  0.4917870000000 1.0
C      1  0.5420400000000  0.4672050000000  0.5099160000000 1.0
C      1  0.5290920000000  0.5150040000000  0.5897910000000 1.0
C      1  0.5859100000000  0.5335120000000  0.5437210000000 1.0
C      1  0.5821510000000  0.5658910000000  0.5003870000000 1.0
C      1  0.4374220000000  0.5264580000000  0.4316490000000 1.0
C      1  0.4147450000000  0.5479550000000  0.4678460000000 1.0
C      1  0.4505990000000  0.5741980000000  0.4426100000000 1.0
C      1  0.5507470000000  0.5666760000000  0.4424050000000 1.0
C      1  0.4344790000000  0.5307700000000  0.5385440000000 1.0
C      1  0.6024500000000  0.5604490000000  0.4810610000000 1.0
C      1  0.6061690000000  0.5139940000000  0.5444240000000 1.0
C      1  0.5547350000000  0.5629910000000  0.5672470000000 1.0
C      1  0.4052200000000  0.4592480000000  0.4783540000000 1.0
C      1  0.4500640000000  0.5894950000000  0.5735520000000 1.0
C      1  0.5390720000000  0.5462260000000  0.4253440000000 1.0
C      1  0.4804970000000  0.4808840000000  0.4639050000000 1.0
C      1  0.5370170000000  0.4110510000000  0.4932960000000 1.0
C      1  0.4198620000000  0.3890510000000  0.5273870000000 1.0
C      1  0.5989240000000  0.4882580000000  0.4866730000000 1.0
C      1  0.5876890000000  0.4506440000000  0.5215100000000 1.0
C      1  0.5424090000000  0.5752440000000  0.5896300000000 1.0
C      1  0.4357370000000  0.5693880000000  0.4669540000000 1.0
C      1  0.4654690000000  0.4851670000000  0.4153430000000 1.0
C      1  0.5459930000000  0.4495760000000  0.5507270000000 1.0
C      1  0.5016710000000  0.4930450000000  0.4838220000000 1.0
C      1  0.4442060000000  0.4344300000000  0.5424860000000 1.0
C      1  0.5535500000000  0.5964160000000  0.6027320000000 1.0
C      1  0.5564480000000  0.4136210000000  0.5143690000000 1.0
C      1  0.4494730000000  0.5828440000000  0.4885680000000 1.0
C      1  0.4731760000000  0.5680940000000  0.4284790000000 1.0
C      1  0.4911650000000  0.5208810000000  0.4873190000000 1.0
C      1  0.5354480000000  0.5023750000000  0.5468110000000 1.0
C      1  0.4016010000000  0.5344860000000  0.4904550000000 1.0
C      1  0.5384320000000  0.5795390000000  0.5206330000000 1.0
C      1  0.5405520000000  0.5595540000000  0.5427430000000 1.0
C      1  0.5441470000000  0.5804070000000  0.4676640000000 1.0
C      1  0.5217820000000  0.4212000000000  0.4448430000000 1.0
C      1  0.4886510000000  0.5501670000000  0.5248760000000 1.0
C      1  0.5633580000000  0.5198820000000  0.4741450000000 1.0
C      1  0.5655800000000  0.4345860000000  0.5322800000000 1.0
C      1  0.5149530000000  0.5018120000000  0.5678610000000 1.0
C      1  0.4642090000000  0.4533650000000  0.5802420000000 1.0
C      1  0.4933700000000  0.4723420000000  0.5357610000000 1.0
C      1  0.5401630000000  0.4067700000000  0.4649100000000 1.0
C      1  0.4275680000000  0.4612720000000  0.4318650000000 1.0
C      1  0.5227910000000  0.5291780000000  0.4428380000000 1.0
C      1  0.4732900000000  0.5755370000000  0.5702540000000 1.0
C      1  0.5132540000000  0.4253800000000  0.4998130000000 1.0
C      1  0.5360530000000  0.5301810000000  0.3999780000000 1.0
C      1  0.6078620000000  0.5356880000000  0.4705000000000 1.0
C      1  0.4889380000000  0.4110520000000  0.5016740000000 1.0
C      1  0.4299720000000  0.4600630000000  0.5459140000000 1.0
C      1  0.5178220000000  0.4524930000000  0.5048310000000 1.0
C      1  0.4881620000000  0.3883130000000  0.5180080000000 1.0
C      1  0.6006470000000  0.4746440000000  0.5122040000000 1.0
C      1  0.4987600000000  0.4739510000000  0.5079530000000 1.0
C      1  0.5580170000000  0.5188760000000  0.5852680000000 1.0
C      1  0.4512890000000  0.4944640000000  0.5075470000000 1.0
C      1  0.5399510000000  0.4458400000000  0.4380600000000 1.0
C      1  0.4900930000000  0.4931520000000  0.5560870000000 1.0
C      1  0.4113420000000  0.4722540000000  0.4529900000000 1.0
C      1  0.4033520000000  0.4791020000000  0.5002290000000 1.0
C      1  0.5040380000000  0.5370560000000  0.5053140000000 1.0
C      1  0.4001630000000  0.5054200000000  0.4868950000000 1.0
C      1  0.5144700000000  0.5085670000000  0.4013800000000 1.0
C      1  0.4864940000000  0.4525400000000  0.5981160000000 1.0
C      1  0.4615360000000  0.4963090000000  0.5567090000000 1.0
C      1  0.6118420000000  0.4907210000000  0.5326090000000 1.0
C      1  0.4516380000000  0.5338260000000  0.4081090000000 1.0
C      1  0.4771450000000  0.4997930000000  0.4390010000000 1.0
C      1  0.4568360000000  0.4812330000000  0.4838050000000 1.0
C      1  0.4754080000000  0.4395460000000  0.4190660000000 1.0
C      1  0.4127530000000  0.5459460000000  0.5360020000000 1.0
C      1  0.5307650000000  0.5308920000000  0.5097320000000 1.0
C      1  0.4118680000000  0.4710190000000  0.5265170000000 1.0
C      1  0.5205470000000  0.4423500000000  0.5633650000000 1.0
C      1  0.5289890000000  0.4885880000000  0.4687450000000 1.0
C      1  0.4697640000000  0.4356880000000  0.5563000000000 1.0
C      1  0.4054290000000  0.5010910000000  0.4573240000000 1.0
C      1  0.5668530000000  0.4119920000000  0.4541240000000 1.0
C      1  0.5156590000000  0.5967170000000  0.5220810000000 1.0
C      1  0.4836590000000  0.4652070000000  0.4045350000000 1.0
C      1  0.5446310000000  0.4763640000000  0.5371960000000 1.0
C      1  0.5170520000000  0.5361790000000  0.6039930000000 1.0
C      1  0.4468120000000  0.4390880000000  0.4278890000000 1.0
C      1  0.4786260000000  0.5433170000000  0.4150800000000 1.0
C      1  0.5571060000000  0.5287680000000  0.5001390000000 1.0
C      1  0.5244350000000  0.4671700000000  0.4488910000000 1.0
C      1  0.4669230000000  0.4182840000000  0.4872110000000 1.0
C      1  0.5193190000000  0.5942900000000  0.4655960000000 1.0
C      1  0.5710700000000  0.5388830000000  0.5686700000000 1.0
C      1  0.4956150000000  0.4455870000000  0.5472820000000 1.0
C      1  0.4468710000000  0.4736410000000  0.5671100000000 1.0
C      1  0.4782100000000  0.5605980000000  0.5470090000000 1.0
C      1  0.4137860000000  0.5269590000000  0.4464720000000 1.0
C      1  0.4580650000000  0.5195490000000  0.4505320000000 1.0
C      1  0.5065930000000  0.4810550000000  0.3949120000000 1.0
C      1  0.5173400000000  0.5637880000000  0.5976950000000 1.0
C      1  0.5352730000000  0.5304270000000  0.5377160000000 1.0
C      1  0.4322070000000  0.4113320000000  0.5329170000000 1.0
C      1  0.4680090000000  0.5298950000000  0.4743630000000 1.0
C      1  0.5398000000000  0.5138580000000  0.4592750000000 1.0
C      1  0.4969570000000  0.4583900000000  0.4532230000000 1.0
C      1  0.4498320000000  0.5080830000000  0.5332170000000 1.0
C      1  0.5121970000000  0.4455140000000  0.5908510000000 1.0
C      1  0.4896620000000  0.6007830000000  0.5155990000000 1.0
C      1  0.5666920000000  0.4355490000000  0.4396680000000 1.0
C      1  0.4945130000000  0.4325690000000  0.4399950000000 1.0
C      1  0.5773660000000  0.5421430000000  0.5169350000000 1.0
C      1  0.3966330000000  0.5473360000000  0.5146670000000 1.0
C      1  0.4983200000000  0.5196990000000  0.4262090000000 1.0
C      1  0.4929600000000  0.5969940000000  0.4696090000000 1.0
C      1  0.5912670000000  0.5123750000000  0.4724920000000 1.0
C      1  0.4932900000000  0.5756800000000  0.5898900000000 1.0
C      1  0.4003260000000  0.4325920000000  0.4811640000000 1.0
C      1  0.5558600000000  0.5786350000000  0.4954780000000 1.0
C      1  0.4377230000000  0.4809320000000  0.4136600000000 1.0
C      1  0.5506190000000  0.4787090000000  0.4866330000000 1.0
END
