TITL C-3866670-4165-393 -0.0543331577660379 125000 -99.7396670829173 0 0 19 (C1) n - 1
REM
REM in /home/nfs/bkarasulu/CARBON/AIRSS/Generating-Clusters/LCBOP/Only-C1/SD-CG/FIRE-CG
REM
REM
REM
REM
REM
REM ./C.cell (11c1c37f851c82e70ff6c80c92926a4b)
REM AIRSS Version 0.9.1 bugfix July 2018 build 013d7b7c2542+ Fri, 06 Jul 2018 19:26:36 +0100
REM compiler GCC version 9.2.1 20190827 (Red Hat 9.2.1-1)
REM options -cpp -mtune=generic -march=x86-64 -g -O0 -fpre-include=/usr/include/finclude/math-vector-fortran.h
REM seed 1022613523 -774207474 -1824865994 -51813477 -2039299144 -1663331648 1367189659 777797328 747575680 -1203929454 -1435546109 636949931 -434119381 -1939753073 412045155 829576882 -1440366731 1309641844 767543500 1380292493 -1338914991 -1025363387 -2065908196 -180571163 -25858519 -1336942932 1192945468 997977347 -1264139532 -1770477336 -1368083760 -1744448162 -278455509
REM
CELL 1.54180   50.00000   50.00000   50.00000   90.00000   90.00000   90.00000
LATT -1
SFAC C  
C      1  0.5132580000000  0.5136190000000  0.5324520000000 1.0
C      1  0.4815400000000  0.4593610000000  0.4725080000000 1.0
C      1  0.5005570000000  0.4994580000000  0.4512240000000 1.0
C      1  0.5451500000000  0.4645540000000  0.4872790000000 1.0
C      1  0.4835370000000  0.5504440000000  0.5424010000000 1.0
C      1  0.4849270000000  0.4358060000000  0.4590190000000 1.0
C      1  0.4750970000000  0.5453200000000  0.4639090000000 1.0
C      1  0.4873510000000  0.5235050000000  0.4566180000000 1.0
C      1  0.5015340000000  0.4795060000000  0.4714230000000 1.0
C      1  0.5265520000000  0.5381340000000  0.5990060000000 1.0
C      1  0.4376350000000  0.4699750000000  0.5020750000000 1.0
C      1  0.5661740000000  0.4497180000000  0.4831500000000 1.0
C      1  0.5041960000000  0.5332810000000  0.5500970000000 1.0
C      1  0.5222140000000  0.4800530000000  0.4908740000000 1.0
C      1  0.4642150000000  0.5660870000000  0.5345810000000 1.0
C      1  0.4584500000000  0.4640220000000  0.4875670000000 1.0
C      1  0.5194090000000  0.4962340000000  0.5134560000000 1.0
C      1  0.5124350000000  0.4951410000000  0.4269660000000 1.0
C      1  0.5157690000000  0.5357820000000  0.5753960000000 1.0
END
