TITL C-3866670-4165-27 119767.602430707 125000 -1209.82332494191 0 0 195 (C1) n - 1
REM
REM in /home/nfs/bkarasulu/CARBON/AIRSS/Generating-Clusters/LCBOP/Only-C1/SD-CG/HFTN-CG/FIRE-CG
REM
REM
REM
REM
REM
REM ./C.cell (11c1c37f851c82e70ff6c80c92926a4b)
REM AIRSS Version 0.9.1 bugfix July 2018 build 013d7b7c2542+ Fri, 06 Jul 2018 19:26:36 +0100
REM compiler GCC version 9.2.1 20190827 (Red Hat 9.2.1-1)
REM options -cpp -mtune=generic -march=x86-64 -g -O0 -fpre-include=/usr/include/finclude/math-vector-fortran.h
REM seed -381664340 1277847061 833875651 2095891597 -1191504422 -1890869111 -822707330 215000781 1541679361 -225027339 1849080592 919528552 444322120 -860697093 -2070505079 377885328 -1077765653 -2145277473 -977240605 -1009521557 -1401712202 -375699093 1863424315 1711464051 -975607974 1864506654 1614528014 1134145175 1094330475 -820430084 -2053108122 934715990 -789610382
REM
CELL 1.54180   50.00000   50.00000   50.00000   90.00000   90.00000   90.00000
LATT -1
SFAC C  
C      1  0.4203700000000  0.5183550000000  0.3895070000000 1.0
C      1  0.4165520000000  0.4296110000000  0.4712650000000 1.0
C      1  0.4286860000000  0.4867440000000  0.4365360000000 1.0
C      1  0.4833310000000  0.5883100000000  0.5466480000000 1.0
C      1  0.5291980000000  0.5903130000000  0.4666670000000 1.0
C      1  0.3970540000000  0.4943790000000  0.4953520000000 1.0
C      1  0.4610410000000  0.4143910000000  0.5344310000000 1.0
C      1  0.5202940000000  0.5199750000000  0.3900420000000 1.0
C      1  0.4904350000000  0.5696850000000  0.5253510000000 1.0
C      1  0.5655450000000  0.5212430000000  0.5060690000000 1.0
C      1  0.3984420000000  0.4302030000000  0.5288200000000 1.0
C      1  0.5514420000000  0.4408210000000  0.6098160000000 1.0
C      1  0.3559550000000  0.5327970000000  0.4650590000000 1.0
C      1  0.5906470000000  0.4753070000000  0.5211030000000 1.0
C      1  0.6074140000000  0.5438080000000  0.5385550000000 1.0
C      1  0.3910030000000  0.5360500000000  0.4312170000000 1.0
C      1  0.4544300000000  0.4613700000000  0.4891930000000 1.0
C      1  0.4897780000000  0.3831220000000  0.6022280000000 1.0
C      1  0.5404010000000  0.4542670000000  0.4404480000000 1.0
C      1  0.4393290000000  0.5792120000000  0.4418040000000 1.0
C      1  0.6185740000000  0.4872920000000  0.5628760000000 1.0
C      1  0.4412680000000  0.4004920000000  0.5836350000000 1.0
C      1  0.5022270000000  0.3994760000000  0.4551640000000 1.0
C      1  0.4120170000000  0.5014640000000  0.5205810000000 1.0
C      1  0.5202630000000  0.4058230000000  0.4082270000000 1.0
C      1  0.4887760000000  0.4831120000000  0.6119260000000 1.0
C      1  0.5939990000000  0.5008840000000  0.5611750000000 1.0
C      1  0.5981030000000  0.4540120000000  0.4726600000000 1.0
C      1  0.5081710000000  0.5017400000000  0.4580580000000 1.0
C      1  0.4016790000000  0.5237390000000  0.4080380000000 1.0
C      1  0.4431000000000  0.5498500000000  0.5845340000000 1.0
C      1  0.3375620000000  0.5440560000000  0.4804580000000 1.0
C      1  0.4702500000000  0.5102600000000  0.3733300000000 1.0
C      1  0.4639460000000  0.4774020000000  0.4668250000000 1.0
C      1  0.5304950000000  0.5343940000000  0.6082950000000 1.0
C      1  0.4227540000000  0.5849720000000  0.5058310000000 1.0
C      1  0.6248580000000  0.5235390000000  0.4950550000000 1.0
C      1  0.5284220000000  0.5901370000000  0.4094920000000 1.0
C      1  0.5423550000000  0.4896790000000  0.5676300000000 1.0
C      1  0.5546930000000  0.5022070000000  0.4558110000000 1.0
C      1  0.4189940000000  0.5283020000000  0.5254580000000 1.0
C      1  0.4057170000000  0.4667130000000  0.4923800000000 1.0
C      1  0.5262540000000  0.3842990000000  0.4979530000000 1.0
C      1  0.4399300000000  0.5648980000000  0.4963490000000 1.0
C      1  0.6273330000000  0.5291810000000  0.5227880000000 1.0
C      1  0.5116220000000  0.5118450000000  0.4854020000000 1.0
C      1  0.4191110000000  0.5056790000000  0.5820670000000 1.0
C      1  0.5345100000000  0.5622750000000  0.5692910000000 1.0
C      1  0.5828470000000  0.6375000000000  0.4256490000000 1.0
C      1  0.4370420000000  0.5387070000000  0.5063580000000 1.0
C      1  0.4086920000000  0.4342090000000  0.5566520000000 1.0
C      1  0.5765310000000  0.4265900000000  0.5681960000000 1.0
C      1  0.4487940000000  0.4644020000000  0.5445510000000 1.0
C      1  0.5543510000000  0.5423360000000  0.5226310000000 1.0
C      1  0.5953140000000  0.4614020000000  0.4213430000000 1.0
C      1  0.5312890000000  0.5429100000000  0.4439710000000 1.0
C      1  0.5005350000000  0.4106950000000  0.4283170000000 1.0
C      1  0.4756200000000  0.4837080000000  0.4203950000000 1.0
C      1  0.5173930000000  0.4330650000000  0.5202870000000 1.0
C      1  0.4122530000000  0.6024610000000  0.4093290000000 1.0
C      1  0.3616020000000  0.4588430000000  0.5427920000000 1.0
C      1  0.4966810000000  0.5098120000000  0.3782510000000 1.0
C      1  0.5295060000000  0.4662850000000  0.5783940000000 1.0
C      1  0.4742530000000  0.5470470000000  0.4302410000000 1.0
C      1  0.4850470000000  0.5789600000000  0.4979190000000 1.0
C      1  0.4971950000000  0.6348810000000  0.5581170000000 1.0
C      1  0.5050690000000  0.5470970000000  0.6048130000000 1.0
C      1  0.5335080000000  0.6333670000000  0.4896690000000 1.0
C      1  0.4496030000000  0.5922300000000  0.3799530000000 1.0
C      1  0.5613490000000  0.5043120000000  0.6233360000000 1.0
C      1  0.4665440000000  0.5175750000000  0.4272320000000 1.0
C      1  0.4528100000000  0.4683160000000  0.4385360000000 1.0
C      1  0.4216440000000  0.4138880000000  0.5713700000000 1.0
C      1  0.5633020000000  0.5184490000000  0.4777810000000 1.0
C      1  0.4828020000000  0.4485310000000  0.5725790000000 1.0
C      1  0.4979140000000  0.4333860000000  0.4895030000000 1.0
C      1  0.3220890000000  0.5557550000000  0.4978760000000 1.0
C      1  0.4411740000000  0.4225450000000  0.4569890000000 1.0
C      1  0.3925880000000  0.5012680000000  0.4668110000000 1.0
C      1  0.5423070000000  0.4148140000000  0.3951390000000 1.0
C      1  0.5590370000000  0.4379850000000  0.3941320000000 1.0
C      1  0.5359020000000  0.5557000000000  0.5404170000000 1.0
C      1  0.4932500000000  0.4769260000000  0.4625230000000 1.0
C      1  0.5065370000000  0.4568240000000  0.4772050000000 1.0
C      1  0.5228100000000  0.5023320000000  0.5499020000000 1.0
C      1  0.5170400000000  0.3804290000000  0.4707620000000 1.0
C      1  0.5394670000000  0.4001070000000  0.5879620000000 1.0
C      1  0.4014790000000  0.5676870000000  0.5463320000000 1.0
C      1  0.5518510000000  0.4527890000000  0.4941910000000 1.0
C      1  0.4729680000000  0.4642750000000  0.5953840000000 1.0
C      1  0.4065390000000  0.5861430000000  0.5273180000000 1.0
C      1  0.5717180000000  0.4004620000000  0.4809250000000 1.0
C      1  0.5125130000000  0.4573820000000  0.5358140000000 1.0
C      1  0.5091670000000  0.4538250000000  0.5636840000000 1.0
C      1  0.4850510000000  0.5632490000000  0.4082460000000 1.0
C      1  0.5071020000000  0.5655820000000  0.5824700000000 1.0
C      1  0.4829210000000  0.5771310000000  0.5726840000000 1.0
C      1  0.4843150000000  0.6163500000000  0.5413900000000 1.0
C      1  0.5745360000000  0.5099110000000  0.5994240000000 1.0
C      1  0.5078170000000  0.5489950000000  0.5344830000000 1.0
C      1  0.4022290000000  0.4597610000000  0.5701520000000 1.0
C      1  0.5570160000000  0.4737830000000  0.4540540000000 1.0
C      1  0.6005610000000  0.5068190000000  0.4267350000000 1.0
C      1  0.5364890000000  0.5075200000000  0.4100730000000 1.0
C      1  0.5182040000000  0.6512460000000  0.5546030000000 1.0
C      1  0.6087050000000  0.4658200000000  0.4484090000000 1.0
C      1  0.4827480000000  0.6232290000000  0.5138240000000 1.0
C      1  0.4240130000000  0.5322730000000  0.5734620000000 1.0
C      1  0.5498020000000  0.4021420000000  0.4991960000000 1.0
C      1  0.4655070000000  0.3921430000000  0.5911390000000 1.0
C      1  0.4642230000000  0.5687080000000  0.4810150000000 1.0
C      1  0.4487010000000  0.3914350000000  0.4944680000000 1.0
C      1  0.5213340000000  0.4919840000000  0.5028440000000 1.0
C      1  0.4856240000000  0.4136230000000  0.4738670000000 1.0
C      1  0.5971540000000  0.4091240000000  0.4903360000000 1.0
C      1  0.5312470000000  0.5131940000000  0.4398510000000 1.0
C      1  0.5896140000000  0.4333500000000  0.5453990000000 1.0
C      1  0.5155470000000  0.4090350000000  0.5367800000000 1.0
C      1  0.5165810000000  0.4846010000000  0.5289560000000 1.0
C      1  0.5237520000000  0.4602630000000  0.4173640000000 1.0
C      1  0.4615260000000  0.5641970000000  0.4519520000000 1.0
C      1  0.4829360000000  0.5337450000000  0.6154060000000 1.0
C      1  0.6041130000000  0.4363520000000  0.4953270000000 1.0
C      1  0.4934680000000  0.6060860000000  0.4941010000000 1.0
C      1  0.4426930000000  0.5119760000000  0.4433150000000 1.0
C      1  0.5818290000000  0.6007070000000  0.4569350000000 1.0
C      1  0.4672010000000  0.5748240000000  0.3897600000000 1.0
C      1  0.6472310000000  0.5148270000000  0.5368980000000 1.0
C      1  0.5700340000000  0.4934990000000  0.5755620000000 1.0
C      1  0.5352060000000  0.6570490000000  0.5347060000000 1.0
C      1  0.5048660000000  0.5243520000000  0.5487260000000 1.0
C      1  0.5404220000000  0.6499140000000  0.5094560000000 1.0
C      1  0.5570610000000  0.4884930000000  0.4021130000000 1.0
C      1  0.4121650000000  0.5417410000000  0.5493080000000 1.0
C      1  0.5500740000000  0.5473370000000  0.5890690000000 1.0
C      1  0.5148970000000  0.3901830000000  0.5915810000000 1.0
C      1  0.5716520000000  0.6131530000000  0.4337450000000 1.0
C      1  0.4889440000000  0.3671420000000  0.6245120000000 1.0
C      1  0.5707800000000  0.4610150000000  0.4753840000000 1.0
C      1  0.5086730000000  0.3860830000000  0.5218020000000 1.0
C      1  0.5890250000000  0.5930700000000  0.4815060000000 1.0
C      1  0.4042220000000  0.4549070000000  0.4662520000000 1.0
C      1  0.4444750000000  0.4670810000000  0.5963570000000 1.0
C      1  0.5287400000000  0.4683450000000  0.4898700000000 1.0
C      1  0.5246020000000  0.5475820000000  0.3871840000000 1.0
C      1  0.4825160000000  0.4339400000000  0.4246200000000 1.0
C      1  0.4312370000000  0.4642670000000  0.5039710000000 1.0
C      1  0.4555060000000  0.4382060000000  0.4366510000000 1.0
C      1  0.6429420000000  0.4943330000000  0.5538730000000 1.0
C      1  0.4208440000000  0.4771890000000  0.5841330000000 1.0
C      1  0.4643500000000  0.3719120000000  0.5073380000000 1.0
C      1  0.5852360000000  0.4395930000000  0.4059020000000 1.0
C      1  0.5488100000000  0.4273700000000  0.4446660000000 1.0
C      1  0.6230270000000  0.5099170000000  0.4719720000000 1.0
C      1  0.4153510000000  0.4220510000000  0.5066860000000 1.0
C      1  0.5940930000000  0.5839670000000  0.5061100000000 1.0
C      1  0.5640660000000  0.4075940000000  0.4546140000000 1.0
C      1  0.5995960000000  0.5685040000000  0.5272550000000 1.0
C      1  0.3757580000000  0.4685450000000  0.5639300000000 1.0
C      1  0.4532950000000  0.5056260000000  0.4696240000000 1.0
C      1  0.4808260000000  0.3838530000000  0.5264550000000 1.0
C      1  0.4486770000000  0.5942490000000  0.6021550000000 1.0
C      1  0.5780440000000  0.4986770000000  0.5177770000000 1.0
C      1  0.4045820000000  0.4794450000000  0.4499620000000 1.0
C      1  0.4641630000000  0.4402250000000  0.5508240000000 1.0
C      1  0.5330730000000  0.5081870000000  0.6215010000000 1.0
C      1  0.3719160000000  0.4402330000000  0.5257900000000 1.0
C      1  0.4439490000000  0.5138050000000  0.3775010000000 1.0
C      1  0.4394800000000  0.4100560000000  0.5146550000000 1.0
C      1  0.5501070000000  0.6026450000000  0.4188830000000 1.0
C      1  0.4951520000000  0.4603460000000  0.4166800000000 1.0
C      1  0.6142470000000  0.4952210000000  0.4496640000000 1.0
C      1  0.5126410000000  0.5681160000000  0.4021640000000 1.0
C      1  0.5913290000000  0.6614500000000  0.4198410000000 1.0
C      1  0.4581180000000  0.5737420000000  0.5865940000000 1.0
C      1  0.3948730000000  0.5638180000000  0.4332370000000 1.0
C      1  0.5175310000000  0.4832230000000  0.6181910000000 1.0
C      1  0.5184250000000  0.6110950000000  0.4817500000000 1.0
C      1  0.5767090000000  0.5367680000000  0.5859400000000 1.0
C      1  0.5972970000000  0.4476450000000  0.5216790000000 1.0
C      1  0.3796950000000  0.5229070000000  0.4540280000000 1.0
C      1  0.4524530000000  0.5197950000000  0.4929390000000 1.0
C      1  0.5580580000000  0.4213860000000  0.5895220000000 1.0
C      1  0.5328570000000  0.4616980000000  0.6060890000000 1.0
C      1  0.4273210000000  0.6051590000000  0.3872570000000 1.0
C      1  0.5443530000000  0.4628120000000  0.3966360000000 1.0
C      1  0.4315930000000  0.4797370000000  0.5280910000000 1.0
C      1  0.4142240000000  0.5836630000000  0.4301190000000 1.0
C      1  0.5843220000000  0.4879370000000  0.4119470000000 1.0
C      1  0.4584160000000  0.4059250000000  0.4724190000000 1.0
C      1  0.5446210000000  0.4292300000000  0.5077950000000 1.0
C      1  0.5333550000000  0.5663480000000  0.4561560000000 1.0
C      1  0.5941090000000  0.5310950000000  0.5612310000000 1.0
C      1  0.5067670000000  0.5377880000000  0.4902260000000 1.0
C      1  0.4762040000000  0.5078820000000  0.6179710000000 1.0
END
