TITL C-3866676-3738-642 -0.0633404011357336 125000 -218.38951996236 0 0 38 (C1) n - 1
REM
REM in /home/nfs/bkarasulu/CARBON/AIRSS/Generating-Clusters/LCBOP/Only-C1/SD-CG/FIRE-CG
REM
REM
REM
REM
REM
REM ./C.cell (11c1c37f851c82e70ff6c80c92926a4b)
REM AIRSS Version 0.9.1 bugfix July 2018 build 013d7b7c2542+ Fri, 06 Jul 2018 19:26:36 +0100
REM compiler GCC version 9.2.1 20190827 (Red Hat 9.2.1-1)
REM options -cpp -mtune=generic -march=x86-64 -g -O0 -fpre-include=/usr/include/finclude/math-vector-fortran.h
REM seed -366806681 1455520818 799177085 -192745732 1483880509 -884398729 1156866112 -166664608 1354929733 -231461333 -563852487 -1664733409 1069147094 -1840439731 3989918 -122254754 1476142322 615236508 1533740938 328637752 -1816726766 1574099495 -1219192799 901243670 -269241008 2105101628 -934972028 -1419438231 -1932519387 1642886449 1901010186 588152467 -1077064964
REM
CELL 1.54180   50.00000   50.00000   50.00000   90.00000   90.00000   90.00000
LATT -1
SFAC C  
C      1  0.5007400000000  0.5342450000000  0.5484390000000 1.0
C      1  0.5088560000000  0.5277880000000  0.4316140000000 1.0
C      1  0.5307300000000  0.4682930000000  0.5078110000000 1.0
C      1  0.4985280000000  0.5046130000000  0.4897060000000 1.0
C      1  0.5539100000000  0.5058360000000  0.4855300000000 1.0
C      1  0.4616120000000  0.5272950000000  0.4756790000000 1.0
C      1  0.4766680000000  0.5490650000000  0.4681650000000 1.0
C      1  0.4357380000000  0.4831460000000  0.4713890000000 1.0
C      1  0.4985200000000  0.4836160000000  0.5447070000000 1.0
C      1  0.4259250000000  0.5062040000000  0.4888100000000 1.0
C      1  0.4704920000000  0.4871550000000  0.5411430000000 1.0
C      1  0.4825660000000  0.4711050000000  0.4594500000000 1.0
C      1  0.4569940000000  0.5367400000000  0.5208920000000 1.0
C      1  0.4985790000000  0.4426080000000  0.4832480000000 1.0
C      1  0.6039460000000  0.4893580000000  0.5692100000000 1.0
C      1  0.5041990000000  0.5318000000000  0.4998890000000 1.0
C      1  0.5052650000000  0.4842710000000  0.4708300000000 1.0
C      1  0.5877350000000  0.4884310000000  0.5482600000000 1.0
C      1  0.4580670000000  0.4843170000000  0.4513680000000 1.0
C      1  0.5105370000000  0.5077980000000  0.5531760000000 1.0
C      1  0.5040700000000  0.5545070000000  0.5663980000000 1.0
C      1  0.5222900000000  0.5360980000000  0.4553820000000 1.0
C      1  0.4843180000000  0.4458260000000  0.5071120000000 1.0
C      1  0.5091640000000  0.4640120000000  0.5269460000000 1.0
C      1  0.4379270000000  0.4581750000000  0.4864260000000 1.0
C      1  0.4588470000000  0.4583590000000  0.5058150000000 1.0
C      1  0.5449360000000  0.5224510000000  0.4661690000000 1.0
C      1  0.5200220000000  0.4614280000000  0.4820670000000 1.0
C      1  0.5046240000000  0.5476060000000  0.4751820000000 1.0
C      1  0.6198680000000  0.4902780000000  0.5898330000000 1.0
C      1  0.4871500000000  0.5380770000000  0.5233080000000 1.0
C      1  0.4612810000000  0.4857670000000  0.5146500000000 1.0
C      1  0.4632470000000  0.5029020000000  0.4304240000000 1.0
C      1  0.4341150000000  0.5246030000000  0.5091150000000 1.0
C      1  0.4853830000000  0.5170250000000  0.4234520000000 1.0
C      1  0.5522010000000  0.4872030000000  0.5071960000000 1.0
C      1  0.4697200000000  0.5044050000000  0.4936440000000 1.0
C      1  0.5712280000000  0.4875970000000  0.5275640000000 1.0
END
