TITL C-3866669-3764-450 18940.7577519822 125000 -978.030768379294 0 0 161 (C1) n - 1
REM
REM in /home/nfs/bkarasulu/CARBON/AIRSS/Generating-Clusters/LCBOP/Only-C1/SD-CG/FIRE-CG
REM
REM
REM
REM
REM
REM ./C.cell (11c1c37f851c82e70ff6c80c92926a4b)
REM AIRSS Version 0.9.1 bugfix July 2018 build 013d7b7c2542+ Fri, 06 Jul 2018 19:26:36 +0100
REM compiler GCC version 9.2.1 20190827 (Red Hat 9.2.1-1)
REM options -cpp -mtune=generic -march=x86-64 -g -O0 -fpre-include=/usr/include/finclude/math-vector-fortran.h
REM seed -151175188 -969438213 -1065419569 -981515074 -616598598 939655047 1443505142 1723600569 -1428101524 1763234142 1940750103 47770302 -345506730 -1914077617 1053224986 933817814 -1353250278 661388138 772671294 -1141251157 1803453576 -95836528 1140020446 1412671844 -855304196 106352098 -330000936 -52340757 775768938 155088557 -1460842037 1994951292 -1577506373
REM
CELL 1.54180   50.00000   50.00000   50.00000   90.00000   90.00000   90.00000
LATT -1
SFAC C  
C      1  0.4270900000000  0.4373410000000  0.5271310000000 1.0
C      1  0.4076460000000  0.5428840000000  0.5467620000000 1.0
C      1  0.5580700000000  0.5718900000000  0.4093640000000 1.0
C      1  0.5531360000000  0.6289450000000  0.5516190000000 1.0
C      1  0.5789980000000  0.4724330000000  0.4148080000000 1.0
C      1  0.4576600000000  0.4717140000000  0.4673270000000 1.0
C      1  0.5277350000000  0.4367720000000  0.5240580000000 1.0
C      1  0.4323770000000  0.5556690000000  0.4732550000000 1.0
C      1  0.4619760000000  0.6130840000000  0.5878680000000 1.0
C      1  0.5104480000000  0.5127790000000  0.5445730000000 1.0
C      1  0.5155240000000  0.5054320000000  0.5186130000000 1.0
C      1  0.4562820000000  0.3874180000000  0.4781330000000 1.0
C      1  0.4970850000000  0.4382620000000  0.3956200000000 1.0
C      1  0.4842100000000  0.5082390000000  0.5519230000000 1.0
C      1  0.6711500000000  0.5567770000000  0.4525980000000 1.0
C      1  0.4672890000000  0.4922960000000  0.4483120000000 1.0
C      1  0.5099440000000  0.4361120000000  0.4431000000000 1.0
C      1  0.5038070000000  0.5224750000000  0.4998770000000 1.0
C      1  0.5169870000000  0.4365720000000  0.4980620000000 1.0
C      1  0.5153640000000  0.4768730000000  0.5671740000000 1.0
C      1  0.4764370000000  0.4526370000000  0.6065820000000 1.0
C      1  0.4552840000000  0.5328900000000  0.4026950000000 1.0
C      1  0.5900790000000  0.5286230000000  0.5846240000000 1.0
C      1  0.4005070000000  0.4395280000000  0.4818910000000 1.0
C      1  0.4644000000000  0.5661340000000  0.4436060000000 1.0
C      1  0.4779670000000  0.5408880000000  0.4494840000000 1.0
C      1  0.5060920000000  0.6303330000000  0.5650350000000 1.0
C      1  0.5913340000000  0.5297660000000  0.5564950000000 1.0
C      1  0.5229430000000  0.5297200000000  0.5880010000000 1.0
C      1  0.4066900000000  0.5584780000000  0.4851470000000 1.0
C      1  0.4535670000000  0.6094710000000  0.4712750000000 1.0
C      1  0.5339720000000  0.5495820000000  0.5375860000000 1.0
C      1  0.5152550000000  0.6075750000000  0.4969680000000 1.0
C      1  0.5518960000000  0.4583140000000  0.5899370000000 1.0
C      1  0.5560670000000  0.4369290000000  0.5275000000000 1.0
C      1  0.4144160000000  0.5153240000000  0.5489920000000 1.0
C      1  0.4645340000000  0.4367840000000  0.4990470000000 1.0
C      1  0.5692820000000  0.5536970000000  0.4820700000000 1.0
C      1  0.4197570000000  0.4525730000000  0.4156940000000 1.0
C      1  0.4319860000000  0.3978460000000  0.4732400000000 1.0
C      1  0.4890970000000  0.4348890000000  0.4223890000000 1.0
C      1  0.5216360000000  0.6091020000000  0.4162980000000 1.0
C      1  0.5124490000000  0.4807900000000  0.4304600000000 1.0
C      1  0.5268100000000  0.4021380000000  0.5668450000000 1.0
C      1  0.4824590000000  0.5678670000000  0.4896990000000 1.0
C      1  0.4622530000000  0.3950930000000  0.4247560000000 1.0
C      1  0.5352340000000  0.4678410000000  0.3866440000000 1.0
C      1  0.4847040000000  0.6241880000000  0.5796000000000 1.0
C      1  0.5599530000000  0.4553630000000  0.4819210000000 1.0
C      1  0.5405560000000  0.3943670000000  0.5418030000000 1.0
C      1  0.5004210000000  0.5126010000000  0.5950680000000 1.0
C      1  0.5750160000000  0.3978350000000  0.5084010000000 1.0
C      1  0.4146990000000  0.4424100000000  0.5516960000000 1.0
C      1  0.4576860000000  0.4258750000000  0.5714920000000 1.0
C      1  0.5298060000000  0.4418960000000  0.6007770000000 1.0
C      1  0.4252400000000  0.5844200000000  0.5259710000000 1.0
C      1  0.5058150000000  0.5515370000000  0.4972590000000 1.0
C      1  0.4225940000000  0.5823460000000  0.5742570000000 1.0
C      1  0.3845100000000  0.4593000000000  0.4690370000000 1.0
C      1  0.5020150000000  0.5255770000000  0.4422380000000 1.0
C      1  0.5957520000000  0.5590090000000  0.4758430000000 1.0
C      1  0.5162220000000  0.4480280000000  0.3798470000000 1.0
C      1  0.4535360000000  0.5940430000000  0.5228200000000 1.0
C      1  0.5470960000000  0.4049850000000  0.4113130000000 1.0
C      1  0.5714760000000  0.5322880000000  0.6035180000000 1.0
C      1  0.4707980000000  0.4669170000000  0.5366720000000 1.0
C      1  0.5587760000000  0.4302800000000  0.4155190000000 1.0
C      1  0.5599140000000  0.5281090000000  0.4938420000000 1.0
C      1  0.5728270000000  0.5499210000000  0.4079410000000 1.0
C      1  0.4636910000000  0.4224640000000  0.4254410000000 1.0
C      1  0.4945170000000  0.5066050000000  0.4803420000000 1.0
C      1  0.5614670000000  0.4285920000000  0.4689170000000 1.0
C      1  0.4333940000000  0.5099510000000  0.5715090000000 1.0
C      1  0.5649260000000  0.4097270000000  0.5328750000000 1.0
C      1  0.5263130000000  0.5289910000000  0.4577630000000 1.0
C      1  0.5723760000000  0.4329250000000  0.4420240000000 1.0
C      1  0.5774180000000  0.4581840000000  0.6009370000000 1.0
C      1  0.5066730000000  0.4846460000000  0.5939810000000 1.0
C      1  0.5708630000000  0.5159600000000  0.5419190000000 1.0
C      1  0.6211720000000  0.5602380000000  0.4685160000000 1.0
C      1  0.6464290000000  0.5589800000000  0.4605760000000 1.0
C      1  0.4634180000000  0.5939580000000  0.4504720000000 1.0
C      1  0.4175810000000  0.4774630000000  0.5068360000000 1.0
C      1  0.5609950000000  0.4912440000000  0.5520070000000 1.0
C      1  0.4536390000000  0.5305030000000  0.5732460000000 1.0
C      1  0.5189290000000  0.4097770000000  0.4488170000000 1.0
C      1  0.4808560000000  0.3839020000000  0.4886330000000 1.0
C      1  0.4631910000000  0.6073230000000  0.4985510000000 1.0
C      1  0.5385530000000  0.5969260000000  0.4843160000000 1.0
C      1  0.4093390000000  0.5247260000000  0.4163580000000 1.0
C      1  0.5187880000000  0.6252490000000  0.5184530000000 1.0
C      1  0.5454580000000  0.5086340000000  0.4719620000000 1.0
C      1  0.4785220000000  0.5728910000000  0.5382780000000 1.0
C      1  0.4167750000000  0.5700400000000  0.5497320000000 1.0
C      1  0.4760500000000  0.4074970000000  0.5581320000000 1.0
C      1  0.4550760000000  0.4447280000000  0.5244130000000 1.0
C      1  0.5441330000000  0.4755030000000  0.4672440000000 1.0
C      1  0.5029590000000  0.4160680000000  0.5598070000000 1.0
C      1  0.4398390000000  0.5983060000000  0.5869100000000 1.0
C      1  0.4356450000000  0.4791940000000  0.5766420000000 1.0
C      1  0.4369000000000  0.5558810000000  0.4438890000000 1.0
C      1  0.3999990000000  0.5001740000000  0.4121010000000 1.0
C      1  0.5441840000000  0.4746070000000  0.5674000000000 1.0
C      1  0.4117220000000  0.4894280000000  0.5345610000000 1.0
C      1  0.4926220000000  0.4989290000000  0.4356810000000 1.0
C      1  0.5851330000000  0.4989260000000  0.4097080000000 1.0
C      1  0.5147690000000  0.4799050000000  0.5075260000000 1.0
C      1  0.4466340000000  0.5100810000000  0.4864400000000 1.0
C      1  0.5824920000000  0.5252390000000  0.4079310000000 1.0
C      1  0.3885520000000  0.5370700000000  0.4813090000000 1.0
C      1  0.4151710000000  0.4698040000000  0.5577040000000 1.0
C      1  0.4072030000000  0.5796030000000  0.5041460000000 1.0
C      1  0.4614860000000  0.5504310000000  0.5451510000000 1.0
C      1  0.5988370000000  0.3859970000000  0.5036360000000 1.0
C      1  0.4960650000000  0.3864260000000  0.5126090000000 1.0
C      1  0.4894970000000  0.5959510000000  0.4935460000000 1.0
C      1  0.4327920000000  0.5394670000000  0.4203040000000 1.0
C      1  0.4047390000000  0.4740340000000  0.4114200000000 1.0
C      1  0.4586720000000  0.5188340000000  0.4606620000000 1.0
C      1  0.3788220000000  0.4857930000000  0.4690570000000 1.0
C      1  0.5329630000000  0.4140260000000  0.5927270000000 1.0
C      1  0.6056820000000  0.5507660000000  0.5448010000000 1.0
C      1  0.4403230000000  0.4376140000000  0.4231750000000 1.0
C      1  0.4361410000000  0.4837140000000  0.4846260000000 1.0
C      1  0.4547830000000  0.5137170000000  0.5136040000000 1.0
C      1  0.4555580000000  0.5565700000000  0.4933850000000 1.0
C      1  0.5047280000000  0.4582670000000  0.6067730000000 1.0
C      1  0.4967980000000  0.4622490000000  0.5503170000000 1.0
C      1  0.5469270000000  0.5710790000000  0.4771340000000 1.0
C      1  0.5260030000000  0.3905470000000  0.5133100000000 1.0
C      1  0.5683660000000  0.4547920000000  0.5091100000000 1.0
C      1  0.4559080000000  0.4517170000000  0.5863960000000 1.0
C      1  0.5029260000000  0.4599630000000  0.4908830000000 1.0
C      1  0.4118710000000  0.4489190000000  0.5059120000000 1.0
C      1  0.5778570000000  0.6194120000000  0.5495660000000 1.0
C      1  0.5258760000000  0.6294810000000  0.5452520000000 1.0
C      1  0.4665770000000  0.4955130000000  0.5329180000000 1.0
C      1  0.5249770000000  0.5326110000000  0.5595270000000 1.0
C      1  0.5576670000000  0.4572310000000  0.4017630000000 1.0
C      1  0.6070070000000  0.5771580000000  0.5415310000000 1.0
C      1  0.5016610000000  0.5105760000000  0.3851780000000 1.0
C      1  0.5237850000000  0.4944090000000  0.3845440000000 1.0
C      1  0.4116670000000  0.4154650000000  0.4722440000000 1.0
C      1  0.5087590000000  0.4380130000000  0.5440620000000 1.0
C      1  0.6016150000000  0.4593800000000  0.6105360000000 1.0
C      1  0.5551440000000  0.5320660000000  0.5231480000000 1.0
C      1  0.5402000000000  0.5912550000000  0.4122420000000 1.0
C      1  0.5968580000000  0.6015690000000  0.5443810000000 1.0
C      1  0.5888410000000  0.4566950000000  0.4369410000000 1.0
C      1  0.5448350000000  0.5344200000000  0.6046160000000 1.0
C      1  0.5248960000000  0.5534930000000  0.4736670000000 1.0
C      1  0.5312860000000  0.3940070000000  0.4304620000000 1.0
C      1  0.5240780000000  0.4620850000000  0.4479870000000 1.0
C      1  0.5525560000000  0.4019820000000  0.4904660000000 1.0
C      1  0.4780690000000  0.3890480000000  0.5358780000000 1.0
C      1  0.4782030000000  0.5183690000000  0.5782340000000 1.0
C      1  0.5102120000000  0.5626670000000  0.5259520000000 1.0
C      1  0.4535940000000  0.5411660000000  0.5187570000000 1.0
C      1  0.4763780000000  0.4554100000000  0.4816940000000 1.0
C      1  0.3807020000000  0.5121170000000  0.4747210000000 1.0
C      1  0.4778570000000  0.5226140000000  0.3912160000000 1.0
END
