TITL C-3866671-3735-17 22956.0123093724 125000 -1084.85321891365 0 0 180 (C1) n - 1
REM
REM in /home/nfs/bkarasulu/CARBON/AIRSS/Generating-Clusters/LCBOP/Only-C1/SD-CG/HFTN-CG/FIRE-CG
REM
REM
REM
REM
REM
REM ./C.cell (11c1c37f851c82e70ff6c80c92926a4b)
REM AIRSS Version 0.9.1 bugfix July 2018 build 013d7b7c2542+ Fri, 06 Jul 2018 19:26:36 +0100
REM compiler GCC version 9.2.1 20190827 (Red Hat 9.2.1-1)
REM options -cpp -mtune=generic -march=x86-64 -g -O0 -fpre-include=/usr/include/finclude/math-vector-fortran.h
REM seed -141784174 67794274 1762360961 -593008012 819707467 1893184950 -659459622 376436775 543725841 781457162 -1642024756 -1881677784 -847495631 903184429 188604194 518244020 896203541 2110509303 1710293175 1529628807 -1844663405 -328018340 828105254 -2140732962 1182634156 -629552469 -1147035607 -2040181097 -1468601828 -2069952439 2124200952 201113532 -1469170220
REM
CELL 1.54180   50.00000   50.00000   50.00000   90.00000   90.00000   90.00000
LATT -1
SFAC C  
C      1  0.6017190000000  0.4807060000000  0.4706260000000 1.0
C      1  0.5097660000000  0.6085400000000  0.4795630000000 1.0
C      1  0.4420730000000  0.5028310000000  0.5039570000000 1.0
C      1  0.5189090000000  0.5071440000000  0.5862170000000 1.0
C      1  0.4694740000000  0.4405240000000  0.4550180000000 1.0
C      1  0.4156330000000  0.4279920000000  0.5418230000000 1.0
C      1  0.4733320000000  0.4989280000000  0.4342080000000 1.0
C      1  0.5058050000000  0.6484470000000  0.5272370000000 1.0
C      1  0.5504620000000  0.4971820000000  0.5504360000000 1.0
C      1  0.4378700000000  0.5585980000000  0.4241380000000 1.0
C      1  0.4097020000000  0.4660080000000  0.4075700000000 1.0
C      1  0.5693080000000  0.4876640000000  0.5736290000000 1.0
C      1  0.4371460000000  0.5843210000000  0.4701370000000 1.0
C      1  0.5432060000000  0.5042460000000  0.6466000000000 1.0
C      1  0.5367780000000  0.5806260000000  0.5722020000000 1.0
C      1  0.4285020000000  0.4712710000000  0.4547280000000 1.0
C      1  0.5786670000000  0.4556210000000  0.4338620000000 1.0
C      1  0.4942000000000  0.4898520000000  0.6477810000000 1.0
C      1  0.5296290000000  0.5666380000000  0.4759580000000 1.0
C      1  0.5317020000000  0.4553230000000  0.4000050000000 1.0
C      1  0.4766070000000  0.4142850000000  0.5702520000000 1.0
C      1  0.5229140000000  0.5004160000000  0.5585220000000 1.0
C      1  0.4562660000000  0.4614700000000  0.3993940000000 1.0
C      1  0.4787450000000  0.3923930000000  0.5100700000000 1.0
C      1  0.5023380000000  0.5221770000000  0.4962680000000 1.0
C      1  0.4978730000000  0.5063450000000  0.5434600000000 1.0
C      1  0.4925590000000  0.4538460000000  0.4442710000000 1.0
C      1  0.5187220000000  0.4439890000000  0.4485580000000 1.0
C      1  0.4780540000000  0.4796960000000  0.6287630000000 1.0
C      1  0.4886340000000  0.5679980000000  0.5071490000000 1.0
C      1  0.4723740000000  0.4965540000000  0.5564720000000 1.0
C      1  0.4637080000000  0.4959410000000  0.4631290000000 1.0
C      1  0.5558630000000  0.5513530000000  0.5217430000000 1.0
C      1  0.4986950000000  0.6068940000000  0.4516520000000 1.0
C      1  0.6066250000000  0.6111390000000  0.5663510000000 1.0
C      1  0.5539210000000  0.6050960000000  0.5118790000000 1.0
C      1  0.3880020000000  0.4681250000000  0.5171050000000 1.0
C      1  0.4084180000000  0.5119380000000  0.4311170000000 1.0
C      1  0.4231900000000  0.5362590000000  0.4370750000000 1.0
C      1  0.4896900000000  0.5193270000000  0.3810130000000 1.0
C      1  0.4709310000000  0.5098550000000  0.5813860000000 1.0
C      1  0.5706800000000  0.5894180000000  0.4942140000000 1.0
C      1  0.5074730000000  0.5699290000000  0.4217330000000 1.0
C      1  0.5673890000000  0.5265800000000  0.5123390000000 1.0
C      1  0.5553030000000  0.4599240000000  0.5846260000000 1.0
C      1  0.5669990000000  0.5101440000000  0.5968000000000 1.0
C      1  0.4287800000000  0.4012580000000  0.4195920000000 1.0
C      1  0.5961990000000  0.4567400000000  0.4570540000000 1.0
C      1  0.4152100000000  0.4701900000000  0.5611230000000 1.0
C      1  0.4803140000000  0.5779470000000  0.4149340000000 1.0
C      1  0.5186030000000  0.5938620000000  0.4336010000000 1.0
C      1  0.5336290000000  0.4495950000000  0.4715430000000 1.0
C      1  0.5144630000000  0.5526950000000  0.5409050000000 1.0
C      1  0.5300240000000  0.4050020000000  0.5707850000000 1.0
C      1  0.5112770000000  0.3884530000000  0.4330940000000 1.0
C      1  0.3982240000000  0.5811740000000  0.5235120000000 1.0
C      1  0.4081690000000  0.5984150000000  0.5056740000000 1.0
C      1  0.4919840000000  0.4579580000000  0.5530690000000 1.0
C      1  0.4416280000000  0.5091010000000  0.4760800000000 1.0
C      1  0.5936270000000  0.4446970000000  0.5620280000000 1.0
C      1  0.4296110000000  0.5334340000000  0.4654360000000 1.0
C      1  0.4219680000000  0.4920730000000  0.4147760000000 1.0
C      1  0.4736920000000  0.4698160000000  0.6039790000000 1.0
C      1  0.3920150000000  0.5020450000000  0.4543130000000 1.0
C      1  0.4879810000000  0.4588590000000  0.5821150000000 1.0
C      1  0.4417370000000  0.4463730000000  0.4510430000000 1.0
C      1  0.5982840000000  0.5932860000000  0.4937440000000 1.0
C      1  0.4694230000000  0.5496960000000  0.4716120000000 1.0
C      1  0.5004030000000  0.4558020000000  0.5256450000000 1.0
C      1  0.4037200000000  0.4790310000000  0.4669540000000 1.0
C      1  0.4331510000000  0.5386000000000  0.5934820000000 1.0
C      1  0.6047920000000  0.5104540000000  0.4736890000000 1.0
C      1  0.6246810000000  0.5930440000000  0.4959680000000 1.0
C      1  0.5359090000000  0.5537600000000  0.5862370000000 1.0
C      1  0.5165790000000  0.6010150000000  0.5377180000000 1.0
C      1  0.5332190000000  0.4339060000000  0.4236550000000 1.0
C      1  0.5096270000000  0.5007780000000  0.3823260000000 1.0
C      1  0.6001320000000  0.4201350000000  0.5486210000000 1.0
C      1  0.5219090000000  0.5439540000000  0.4605760000000 1.0
C      1  0.5198650000000  0.3642600000000  0.4233080000000 1.0
C      1  0.5055380000000  0.4172520000000  0.5792870000000 1.0
C      1  0.5829940000000  0.6046730000000  0.5574710000000 1.0
C      1  0.4303080000000  0.4483130000000  0.3972320000000 1.0
C      1  0.4677280000000  0.5907710000000  0.5449550000000 1.0
C      1  0.4287040000000  0.4201640000000  0.4002070000000 1.0
C      1  0.6359430000000  0.4073500000000  0.4958820000000 1.0
C      1  0.5079510000000  0.5451080000000  0.4358180000000 1.0
C      1  0.5458550000000  0.4313330000000  0.5104480000000 1.0
C      1  0.3729370000000  0.5144690000000  0.4712740000000 1.0
C      1  0.5412430000000  0.4756260000000  0.4816330000000 1.0
C      1  0.5606630000000  0.5379400000000  0.5898070000000 1.0
C      1  0.3664560000000  0.5093520000000  0.4971920000000 1.0
C      1  0.4793080000000  0.4786230000000  0.4806070000000 1.0
C      1  0.3719140000000  0.4916460000000  0.5171090000000 1.0
C      1  0.4600550000000  0.4325370000000  0.5022610000000 1.0
C      1  0.5121870000000  0.5938120000000  0.5654640000000 1.0
C      1  0.4923430000000  0.5040150000000  0.5157460000000 1.0
C      1  0.3900980000000  0.4527990000000  0.4232720000000 1.0
C      1  0.5314720000000  0.4967860000000  0.4663040000000 1.0
C      1  0.4873300000000  0.5257290000000  0.4311490000000 1.0
C      1  0.4424800000000  0.4584050000000  0.5594360000000 1.0
C      1  0.4552290000000  0.4775270000000  0.5429650000000 1.0
C      1  0.5627930000000  0.4530490000000  0.5178330000000 1.0
C      1  0.5192690000000  0.4352250000000  0.5200540000000 1.0
C      1  0.5562720000000  0.4783130000000  0.5062400000000 1.0
C      1  0.6504480000000  0.5913420000000  0.4995360000000 1.0
C      1  0.4506950000000  0.5441650000000  0.5317420000000 1.0
C      1  0.4136990000000  0.4983970000000  0.5680150000000 1.0
C      1  0.5797360000000  0.3751480000000  0.5399850000000 1.0
C      1  0.5949280000000  0.4304680000000  0.4694440000000 1.0
C      1  0.4678900000000  0.5675290000000  0.5285440000000 1.0
C      1  0.5137060000000  0.4116290000000  0.4160360000000 1.0
C      1  0.6148480000000  0.4175140000000  0.4834880000000 1.0
C      1  0.5181850000000  0.4991020000000  0.6560590000000 1.0
C      1  0.4324600000000  0.6021040000000  0.4917980000000 1.0
C      1  0.5086040000000  0.5817140000000  0.4905270000000 1.0
C      1  0.4780520000000  0.4441400000000  0.3946510000000 1.0
C      1  0.4711840000000  0.6139040000000  0.5276430000000 1.0
C      1  0.5691060000000  0.4784900000000  0.4211640000000 1.0
C      1  0.4916680000000  0.4759840000000  0.5062700000000 1.0
C      1  0.4721930000000  0.5970200000000  0.4373940000000 1.0
C      1  0.6314230000000  0.5175220000000  0.4856840000000 1.0
C      1  0.5505140000000  0.5002430000000  0.6197260000000 1.0
C      1  0.4523100000000  0.4878990000000  0.4135780000000 1.0
C      1  0.4189820000000  0.4273490000000  0.4608010000000 1.0
C      1  0.5239880000000  0.4917070000000  0.4395230000000 1.0
C      1  0.4973720000000  0.4806120000000  0.4350090000000 1.0
C      1  0.4050280000000  0.5600310000000  0.5382560000000 1.0
C      1  0.4860380000000  0.5442150000000  0.4923740000000 1.0
C      1  0.4710490000000  0.5379170000000  0.3883730000000 1.0
C      1  0.5005760000000  0.3893340000000  0.4596270000000 1.0
C      1  0.5580660000000  0.5697690000000  0.4773080000000 1.0
C      1  0.5113940000000  0.5355290000000  0.5919250000000 1.0
C      1  0.4435270000000  0.4767060000000  0.5156510000000 1.0
C      1  0.4391850000000  0.4507180000000  0.5028870000000 1.0
C      1  0.4155940000000  0.4402300000000  0.4889190000000 1.0
C      1  0.4987740000000  0.6220560000000  0.5285100000000 1.0
C      1  0.5214930000000  0.5203180000000  0.4763280000000 1.0
C      1  0.5765030000000  0.5356320000000  0.4406950000000 1.0
C      1  0.5450040000000  0.4969410000000  0.4183250000000 1.0
C      1  0.5481000000000  0.4268180000000  0.4821920000000 1.0
C      1  0.6015460000000  0.5212140000000  0.4447240000000 1.0
C      1  0.5588160000000  0.5970480000000  0.5473120000000 1.0
C      1  0.3967720000000  0.4620150000000  0.4901020000000 1.0
C      1  0.5332430000000  0.5671410000000  0.5285420000000 1.0
C      1  0.4963140000000  0.5355570000000  0.5478400000000 1.0
C      1  0.5682190000000  0.4203030000000  0.4627710000000 1.0
C      1  0.4925870000000  0.4218990000000  0.3996420000000 1.0
C      1  0.5618210000000  0.4312050000000  0.4350300000000 1.0
C      1  0.4257450000000  0.5429710000000  0.5463970000000 1.0
C      1  0.4224860000000  0.5261910000000  0.5698020000000 1.0
C      1  0.5820490000000  0.5273750000000  0.4875340000000 1.0
C      1  0.5330660000000  0.6193780000000  0.4953360000000 1.0
C      1  0.3934370000000  0.4360980000000  0.4444320000000 1.0
C      1  0.5313020000000  0.4610500000000  0.5983440000000 1.0
C      1  0.4625760000000  0.4134440000000  0.5236160000000 1.0
C      1  0.5576520000000  0.5243400000000  0.4224780000000 1.0
C      1  0.4608910000000  0.5582120000000  0.4060970000000 1.0
C      1  0.5298500000000  0.4843310000000  0.3944150000000 1.0
C      1  0.5588440000000  0.5012690000000  0.5231390000000 1.0
C      1  0.4423310000000  0.5567340000000  0.4747980000000 1.0
C      1  0.4575400000000  0.5205500000000  0.5183390000000 1.0
C      1  0.4257400000000  0.4017020000000  0.4467940000000 1.0
C      1  0.5102740000000  0.4433810000000  0.5917420000000 1.0
C      1  0.6568000000000  0.3986110000000  0.5088520000000 1.0
C      1  0.5952860000000  0.4739190000000  0.5632240000000 1.0
C      1  0.4451030000000  0.5878220000000  0.4432540000000 1.0
C      1  0.5280050000000  0.4885690000000  0.6054210000000 1.0
C      1  0.5574650000000  0.4114920000000  0.5667620000000 1.0
C      1  0.4736900000000  0.4248510000000  0.4783680000000 1.0
C      1  0.4516340000000  0.4238470000000  0.5509960000000 1.0
C      1  0.4817420000000  0.5339210000000  0.5944140000000 1.0
C      1  0.4577000000000  0.5472350000000  0.6022740000000 1.0
C      1  0.5719990000000  0.5468350000000  0.4674060000000 1.0
C      1  0.4863500000000  0.3990410000000  0.4819120000000 1.0
C      1  0.5791840000000  0.4000130000000  0.5508930000000 1.0
C      1  0.4008840000000  0.4542520000000  0.5403730000000 1.0
C      1  0.5679050000000  0.4373510000000  0.5749820000000 1.0
C      1  0.4839980000000  0.5909630000000  0.5688960000000 1.0
C      1  0.4530790000000  0.6158950000000  0.5058830000000 1.0
END
