TITL C-3866670-4165-274 -2012.37216872693 125000 -668.409891997861 0 0 112 (C1) n - 1
REM
REM in /home/nfs/bkarasulu/CARBON/AIRSS/Generating-Clusters/LCBOP/Only-C1/SD-CG/FIRE-CG
REM
REM
REM
REM
REM
REM ./C.cell (11c1c37f851c82e70ff6c80c92926a4b)
REM AIRSS Version 0.9.1 bugfix July 2018 build 013d7b7c2542+ Fri, 06 Jul 2018 19:26:36 +0100
REM compiler GCC version 9.2.1 20190827 (Red Hat 9.2.1-1)
REM options -cpp -mtune=generic -march=x86-64 -g -O0 -fpre-include=/usr/include/finclude/math-vector-fortran.h
REM seed -1853107702 -1846555439 -1088312788 -214497765 2084867056 1266559332 -223963388 1062460252 1538032547 1232468502 -1773362258 1159027224 -389428322 1306638970 -1670834427 -1787504792 1371288833 -773093449 1957687581 -761104686 987011202 1282612272 1649725627 -230760087 1467471730 61109394 2147354351 -772358821 -793812062 1123623633 2109377792 -1626837928 -1068015021
REM
CELL 1.54180   50.00000   50.00000   50.00000   90.00000   90.00000   90.00000
LATT -1
SFAC C  
C      1  0.4829150000000  0.4753690000000  0.5484130000000 1.0
C      1  0.5316840000000  0.4486980000000  0.4276360000000 1.0
C      1  0.5864950000000  0.5283420000000  0.5011050000000 1.0
C      1  0.4368150000000  0.5489210000000  0.4458560000000 1.0
C      1  0.4197700000000  0.4614500000000  0.5035260000000 1.0
C      1  0.5383550000000  0.5264970000000  0.4866920000000 1.0
C      1  0.5301240000000  0.4651030000000  0.5394840000000 1.0
C      1  0.4025100000000  0.4866770000000  0.4653350000000 1.0
C      1  0.5198820000000  0.6213790000000  0.4992250000000 1.0
C      1  0.5013080000000  0.4648740000000  0.4705550000000 1.0
C      1  0.5060380000000  0.4927470000000  0.5110500000000 1.0
C      1  0.4588290000000  0.6011870000000  0.5023100000000 1.0
C      1  0.5659990000000  0.4787760000000  0.4481990000000 1.0
C      1  0.5001640000000  0.4068780000000  0.5190300000000 1.0
C      1  0.5259460000000  0.5063110000000  0.4724130000000 1.0
C      1  0.5548200000000  0.4553970000000  0.5517680000000 1.0
C      1  0.4657730000000  0.4446510000000  0.5027960000000 1.0
C      1  0.4434930000000  0.5014900000000  0.5730880000000 1.0
C      1  0.5497710000000  0.5814140000000  0.4630200000000 1.0
C      1  0.4895760000000  0.5637390000000  0.5226360000000 1.0
C      1  0.5701930000000  0.5555270000000  0.5351530000000 1.0
C      1  0.4271740000000  0.5234540000000  0.4515810000000 1.0
C      1  0.5500350000000  0.5287340000000  0.4260210000000 1.0
C      1  0.5533540000000  0.5401620000000  0.5564390000000 1.0
C      1  0.4634030000000  0.5209140000000  0.5161080000000 1.0
C      1  0.4752860000000  0.5816660000000  0.4571750000000 1.0
C      1  0.5653510000000  0.5061490000000  0.5666390000000 1.0
C      1  0.5521160000000  0.5054270000000  0.5252360000000 1.0
C      1  0.4934750000000  0.5124780000000  0.3958920000000 1.0
C      1  0.4515940000000  0.5574110000000  0.5635190000000 1.0
C      1  0.5311770000000  0.4136130000000  0.4764350000000 1.0
C      1  0.5504030000000  0.4724420000000  0.4947520000000 1.0
C      1  0.5166540000000  0.4079990000000  0.4526230000000 1.0
C      1  0.5926840000000  0.4876270000000  0.5223040000000 1.0
C      1  0.4412640000000  0.4991420000000  0.4437960000000 1.0
C      1  0.4116450000000  0.5227500000000  0.4998750000000 1.0
C      1  0.4793050000000  0.5003580000000  0.5053580000000 1.0
C      1  0.4890810000000  0.5381570000000  0.4051190000000 1.0
C      1  0.5245250000000  0.5483190000000  0.5537820000000 1.0
C      1  0.4287680000000  0.4516480000000  0.4378610000000 1.0
C      1  0.4651040000000  0.4930450000000  0.4577570000000 1.0
C      1  0.5039360000000  0.5498920000000  0.4271630000000 1.0
C      1  0.5154840000000  0.5529260000000  0.5255210000000 1.0
C      1  0.4615390000000  0.4876590000000  0.4858580000000 1.0
C      1  0.4212920000000  0.4777200000000  0.4445040000000 1.0
C      1  0.5607280000000  0.4074390000000  0.5387750000000 1.0
C      1  0.5599460000000  0.5170730000000  0.5010900000000 1.0
C      1  0.3998990000000  0.5409670000000  0.5183150000000 1.0
C      1  0.5301870000000  0.4666640000000  0.5901200000000 1.0
C      1  0.4425490000000  0.4073940000000  0.4232130000000 1.0
C      1  0.6054590000000  0.5087360000000  0.5079020000000 1.0
C      1  0.4786600000000  0.5664090000000  0.5665700000000 1.0
C      1  0.4415670000000  0.4528190000000  0.5461010000000 1.0
C      1  0.5039600000000  0.4581050000000  0.5474910000000 1.0
C      1  0.4343110000000  0.5714390000000  0.5426920000000 1.0
C      1  0.5691000000000  0.4343490000000  0.5377430000000 1.0
C      1  0.4853990000000  0.4192470000000  0.5408320000000 1.0
C      1  0.4386030000000  0.3857960000000  0.4091700000000 1.0
C      1  0.4842700000000  0.5819320000000  0.5434180000000 1.0
C      1  0.5014170000000  0.4333020000000  0.5612570000000 1.0
C      1  0.4339370000000  0.5264660000000  0.5620270000000 1.0
C      1  0.5770040000000  0.4687590000000  0.5066260000000 1.0
C      1  0.4468790000000  0.4654600000000  0.4955930000000 1.0
C      1  0.4306270000000  0.4590750000000  0.5923520000000 1.0
C      1  0.5163750000000  0.4401590000000  0.5859520000000 1.0
C      1  0.4541740000000  0.5637070000000  0.4616780000000 1.0
C      1  0.5702090000000  0.5640080000000  0.4781700000000 1.0
C      1  0.5560260000000  0.4725890000000  0.5765800000000 1.0
C      1  0.4826640000000  0.4432730000000  0.4783290000000 1.0
C      1  0.5152950000000  0.5037360000000  0.5607890000000 1.0
C      1  0.4393000000000  0.4718760000000  0.5689590000000 1.0
C      1  0.5767140000000  0.4269780000000  0.4877780000000 1.0
C      1  0.4175670000000  0.4531280000000  0.5301470000000 1.0
C      1  0.4604900000000  0.5064860000000  0.5957480000000 1.0
C      1  0.4147580000000  0.5502470000000  0.5400470000000 1.0
C      1  0.5076300000000  0.6034240000000  0.4828440000000 1.0
C      1  0.4543200000000  0.5565800000000  0.4886630000000 1.0
C      1  0.5121420000000  0.5073150000000  0.4481550000000 1.0
C      1  0.5662760000000  0.5518840000000  0.4306140000000 1.0
C      1  0.5783370000000  0.5425330000000  0.4560990000000 1.0
C      1  0.4429250000000  0.5910020000000  0.5228040000000 1.0
C      1  0.5149470000000  0.4905780000000  0.5849400000000 1.0
C      1  0.5457630000000  0.3949960000000  0.5200520000000 1.0
C      1  0.4080830000000  0.5149400000000  0.4725100000000 1.0
C      1  0.4687790000000  0.4308230000000  0.4567110000000 1.0
C      1  0.5805570000000  0.4413780000000  0.5120490000000 1.0
C      1  0.5526140000000  0.4527340000000  0.4482940000000 1.0
C      1  0.5751010000000  0.4992370000000  0.5419090000000 1.0
C      1  0.4804930000000  0.5206570000000  0.6064730000000 1.0
C      1  0.4467050000000  0.4299090000000  0.4391690000000 1.0
C      1  0.5065700000000  0.4886670000000  0.3986070000000 1.0
C      1  0.5545440000000  0.4308650000000  0.4699580000000 1.0
C      1  0.5582480000000  0.5784180000000  0.4352330000000 1.0
C      1  0.4697950000000  0.5476700000000  0.5100100000000 1.0
C      1  0.4788610000000  0.5997850000000  0.4808230000000 1.0
C      1  0.5214390000000  0.5854570000000  0.4645750000000 1.0
C      1  0.5182450000000  0.4236380000000  0.4303910000000 1.0
C      1  0.5243710000000  0.4041230000000  0.5035970000000 1.0
C      1  0.5011770000000  0.5719970000000  0.4462850000000 1.0
C      1  0.5259390000000  0.5468880000000  0.5005010000000 1.0
C      1  0.5217320000000  0.4807130000000  0.4877380000000 1.0
C      1  0.4998080000000  0.5376600000000  0.5986080000000 1.0
C      1  0.4919570000000  0.4863890000000  0.4509220000000 1.0
C      1  0.5794530000000  0.5563990000000  0.5059420000000 1.0
C      1  0.5259300000000  0.4949420000000  0.5337080000000 1.0
C      1  0.4631420000000  0.4365920000000  0.5312510000000 1.0
C      1  0.4357990000000  0.5146300000000  0.5130960000000 1.0
C      1  0.3988090000000  0.4687560000000  0.4866280000000 1.0
C      1  0.5212600000000  0.4686570000000  0.4098130000000 1.0
C      1  0.5694800000000  0.5066120000000  0.4479510000000 1.0
C      1  0.5029080000000  0.5520060000000  0.5745570000000 1.0
C      1  0.5226810000000  0.5284130000000  0.4324550000000 1.0
END
