TITL C-3866673-4222-118 0.341744114862342 125000 -1085.05812952733 0 0 176 (C1) n - 1
REM
REM in /home/nfs/bkarasulu/CARBON/AIRSS/Generating-Clusters/LCBOP/Only-C1/SD-CG/HFTN-CG/FIRE-CG
REM
REM
REM
REM
REM
REM ./C.cell (11c1c37f851c82e70ff6c80c92926a4b)
REM AIRSS Version 0.9.1 bugfix July 2018 build 013d7b7c2542+ Fri, 06 Jul 2018 19:26:36 +0100
REM compiler GCC version 9.2.1 20190827 (Red Hat 9.2.1-1)
REM options -cpp -mtune=generic -march=x86-64 -g -O0 -fpre-include=/usr/include/finclude/math-vector-fortran.h
REM seed -1491637690 -1613537912 -784699284 1525210027 190259349 49217944 -1793817393 715862399 -1532053264 -399306028 -1115330954 1699745431 -468353813 773415389 367293978 907987833 -794219895 -386438224 -1387350787 -684486260 226147859 -1674591927 -880622711 1077758596 1575046234 -499359594 -604829251 -1066944641 -284541731 688955218 -556436791 756420145 1894212110
REM
CELL 1.54180   50.00000   50.00000   50.00000   90.00000   90.00000   90.00000
LATT -1
SFAC C  
C      1  0.4929410000000  0.5453560000000  0.4076010000000 1.0
C      1  0.4599220000000  0.5270810000000  0.7041580000000 1.0
C      1  0.4443360000000  0.4413800000000  0.3867550000000 1.0
C      1  0.5053190000000  0.4032370000000  0.4694690000000 1.0
C      1  0.5147110000000  0.4045150000000  0.5516290000000 1.0
C      1  0.4331750000000  0.4935240000000  0.4045780000000 1.0
C      1  0.5114490000000  0.6113350000000  0.4820410000000 1.0
C      1  0.5862050000000  0.5959890000000  0.5088900000000 1.0
C      1  0.4319310000000  0.4403590000000  0.5359800000000 1.0
C      1  0.5208230000000  0.4503670000000  0.5170440000000 1.0
C      1  0.4440370000000  0.5721030000000  0.3830690000000 1.0
C      1  0.5366590000000  0.4072110000000  0.5051530000000 1.0
C      1  0.4334450000000  0.5123480000000  0.4723360000000 1.0
C      1  0.5213540000000  0.5878420000000  0.4679070000000 1.0
C      1  0.5666930000000  0.4483870000000  0.5064970000000 1.0
C      1  0.5128250000000  0.5216850000000  0.5252890000000 1.0
C      1  0.6332890000000  0.5365830000000  0.5180850000000 1.0
C      1  0.4399990000000  0.4530600000000  0.5617400000000 1.0
C      1  0.4935050000000  0.5032700000000  0.5385930000000 1.0
C      1  0.4723020000000  0.6312790000000  0.5559790000000 1.0
C      1  0.4197040000000  0.5508430000000  0.5735390000000 1.0
C      1  0.5124960000000  0.6144480000000  0.5333280000000 1.0
C      1  0.4571640000000  0.4589280000000  0.6097410000000 1.0
C      1  0.5816810000000  0.5411550000000  0.5937970000000 1.0
C      1  0.4078500000000  0.5514930000000  0.4385140000000 1.0
C      1  0.4779480000000  0.4760200000000  0.6211650000000 1.0
C      1  0.5068420000000  0.6000300000000  0.5802120000000 1.0
C      1  0.4697920000000  0.5555250000000  0.5752150000000 1.0
C      1  0.3833750000000  0.4864150000000  0.5102460000000 1.0
C      1  0.5193790000000  0.5463720000000  0.5635370000000 1.0
C      1  0.5830340000000  0.5854490000000  0.5335620000000 1.0
C      1  0.5171400000000  0.3947740000000  0.5234900000000 1.0
C      1  0.5328990000000  0.5270060000000  0.3920250000000 1.0
C      1  0.4439310000000  0.5541120000000  0.4041390000000 1.0
C      1  0.5531080000000  0.4959000000000  0.5107780000000 1.0
C      1  0.6147010000000  0.5687940000000  0.4823370000000 1.0
C      1  0.4764590000000  0.5077960000000  0.5825720000000 1.0
C      1  0.4513110000000  0.5466950000000  0.5345340000000 1.0
C      1  0.4772600000000  0.4329390000000  0.5178880000000 1.0
C      1  0.4122410000000  0.4472950000000  0.4888830000000 1.0
C      1  0.5336340000000  0.5323890000000  0.5435130000000 1.0
C      1  0.3918460000000  0.4632330000000  0.5003340000000 1.0
C      1  0.4419580000000  0.5146340000000  0.4455490000000 1.0
C      1  0.5557460000000  0.4568950000000  0.3941470000000 1.0
C      1  0.6124100000000  0.4313510000000  0.5288320000000 1.0
C      1  0.4790470000000  0.5590220000000  0.5282130000000 1.0
C      1  0.5022550000000  0.5486230000000  0.5123140000000 1.0
C      1  0.4349930000000  0.5370880000000  0.5142020000000 1.0
C      1  0.5077660000000  0.4197100000000  0.3698200000000 1.0
C      1  0.6247240000000  0.5222520000000  0.5389300000000 1.0
C      1  0.4893400000000  0.5044700000000  0.3746960000000 1.0
C      1  0.4240230000000  0.5727540000000  0.4499450000000 1.0
C      1  0.4506900000000  0.4987660000000  0.5748980000000 1.0
C      1  0.4711690000000  0.4824860000000  0.3778460000000 1.0
C      1  0.3918180000000  0.5012270000000  0.4509790000000 1.0
C      1  0.5053590000000  0.5781730000000  0.4448310000000 1.0
C      1  0.4809130000000  0.5543690000000  0.6018330000000 1.0
C      1  0.4081760000000  0.5302000000000  0.5184340000000 1.0
C      1  0.4951640000000  0.5814260000000  0.6018600000000 1.0
C      1  0.5747860000000  0.5608680000000  0.5404970000000 1.0
C      1  0.4776220000000  0.4370750000000  0.4895530000000 1.0
C      1  0.4591050000000  0.4838310000000  0.4036480000000 1.0
C      1  0.5388560000000  0.5722920000000  0.4856450000000 1.0
C      1  0.3921560000000  0.5291680000000  0.4501220000000 1.0
C      1  0.3913700000000  0.5099110000000  0.5770650000000 1.0
C      1  0.5762400000000  0.5041170000000  0.4428010000000 1.0
C      1  0.4636380000000  0.5344920000000  0.4448510000000 1.0
C      1  0.4973730000000  0.4980590000000  0.5664650000000 1.0
C      1  0.4024270000000  0.4755700000000  0.4502880000000 1.0
C      1  0.5249140000000  0.5054880000000  0.5031390000000 1.0
C      1  0.5670730000000  0.5229560000000  0.5093070000000 1.0
C      1  0.4724650000000  0.4055620000000  0.5261420000000 1.0
C      1  0.4761260000000  0.5046580000000  0.6281730000000 1.0
C      1  0.5034360000000  0.5254890000000  0.3885690000000 1.0
C      1  0.4906450000000  0.3884510000000  0.5116840000000 1.0
C      1  0.4206750000000  0.5410830000000  0.4141860000000 1.0
C      1  0.5369920000000  0.5632610000000  0.5781820000000 1.0
C      1  0.5597530000000  0.5385190000000  0.5326600000000 1.0
C      1  0.4823430000000  0.4810860000000  0.5248220000000 1.0
C      1  0.4163270000000  0.4509430000000  0.4596570000000 1.0
C      1  0.4597740000000  0.6287810000000  0.5318170000000 1.0
C      1  0.5223250000000  0.4399130000000  0.3596020000000 1.0
C      1  0.6000950000000  0.4659680000000  0.4232090000000 1.0
C      1  0.4943050000000  0.4299450000000  0.4683030000000 1.0
C      1  0.4942170000000  0.4559190000000  0.4296990000000 1.0
C      1  0.5306380000000  0.5882670000000  0.5666540000000 1.0
C      1  0.5587080000000  0.5547730000000  0.5931910000000 1.0
C      1  0.5601300000000  0.4877280000000  0.5406260000000 1.0
C      1  0.3984000000000  0.5356940000000  0.5790650000000 1.0
C      1  0.5697640000000  0.4298420000000  0.4372430000000 1.0
C      1  0.4721210000000  0.6121670000000  0.5122070000000 1.0
C      1  0.5995890000000  0.5262000000000  0.5807660000000 1.0
C      1  0.6081770000000  0.4495660000000  0.4659850000000 1.0
C      1  0.5386650000000  0.5496280000000  0.4102550000000 1.0
C      1  0.5351270000000  0.4498570000000  0.4588840000000 1.0
C      1  0.6055300000000  0.5123800000000  0.5569490000000 1.0
C      1  0.5102860000000  0.4087330000000  0.3957200000000 1.0
C      1  0.4744810000000  0.4207300000000  0.5807390000000 1.0
C      1  0.5886960000000  0.5795230000000  0.4859330000000 1.0
C      1  0.5417770000000  0.4799140000000  0.5605560000000 1.0
C      1  0.5282420000000  0.5898810000000  0.5361720000000 1.0
C      1  0.5484050000000  0.5044710000000  0.3837780000000 1.0
C      1  0.5398960000000  0.4593800000000  0.3691850000000 1.0
C      1  0.4798720000000  0.5242090000000  0.6069590000000 1.0
C      1  0.5606830000000  0.4730930000000  0.4931890000000 1.0
C      1  0.4692220000000  0.5845100000000  0.5156640000000 1.0
C      1  0.4692780000000  0.5406750000000  0.4733260000000 1.0
C      1  0.4573790000000  0.3933820000000  0.5464290000000 1.0
C      1  0.4270680000000  0.5141140000000  0.4214330000000 1.0
C      1  0.5258320000000  0.5700270000000  0.5126990000000 1.0
C      1  0.6156460000000  0.4732960000000  0.4768850000000 1.0
C      1  0.4949120000000  0.5384790000000  0.4851150000000 1.0
C      1  0.5889630000000  0.5161230000000  0.4655800000000 1.0
C      1  0.5431970000000  0.4340210000000  0.5125270000000 1.0
C      1  0.4976820000000  0.6190700000000  0.5594990000000 1.0
C      1  0.5868760000000  0.4929740000000  0.5486030000000 1.0
C      1  0.5085320000000  0.5133820000000  0.4810700000000 1.0
C      1  0.4943610000000  0.4542250000000  0.5307910000000 1.0
C      1  0.5081580000000  0.4473420000000  0.4518010000000 1.0
C      1  0.4452960000000  0.5893480000000  0.3635740000000 1.0
C      1  0.4662800000000  0.4827120000000  0.5020090000000 1.0
C      1  0.3892230000000  0.5116110000000  0.5165140000000 1.0
C      1  0.5358440000000  0.4135940000000  0.4067390000000 1.0
C      1  0.4577230000000  0.4440870000000  0.5842960000000 1.0
C      1  0.5644670000000  0.4853910000000  0.3995820000000 1.0
C      1  0.5290500000000  0.5005000000000  0.4328760000000 1.0
C      1  0.5029650000000  0.4993580000000  0.4377560000000 1.0
C      1  0.4332770000000  0.4372000000000  0.4117500000000 1.0
C      1  0.5736230000000  0.5337730000000  0.4834930000000 1.0
C      1  0.5005100000000  0.4243880000000  0.5682630000000 1.0
C      1  0.5497030000000  0.4244230000000  0.4587570000000 1.0
C      1  0.4344820000000  0.4554730000000  0.6252330000000 1.0
C      1  0.4840320000000  0.3887080000000  0.4833330000000 1.0
C      1  0.5505200000000  0.4942900000000  0.4492260000000 1.0
C      1  0.5389260000000  0.4872550000000  0.3622370000000 1.0
C      1  0.5255610000000  0.4509970000000  0.6302470000000 1.0
C      1  0.6306140000000  0.5528770000000  0.4970450000000 1.0
C      1  0.4323250000000  0.4323760000000  0.4410420000000 1.0
C      1  0.5033680000000  0.4512470000000  0.5593880000000 1.0
C      1  0.4492270000000  0.5414110000000  0.7536010000000 1.0
C      1  0.5489160000000  0.4727870000000  0.4673310000000 1.0
C      1  0.4674260000000  0.5458220000000  0.4186820000000 1.0
C      1  0.5023310000000  0.4634220000000  0.6274610000000 1.0
C      1  0.5846850000000  0.4894100000000  0.4192410000000 1.0
C      1  0.4310650000000  0.4800270000000  0.5667600000000 1.0
C      1  0.4557750000000  0.3980920000000  0.4754780000000 1.0
C      1  0.4492770000000  0.5838790000000  0.4502030000000 1.0
C      1  0.5943860000000  0.4448380000000  0.4416740000000 1.0
C      1  0.4765350000000  0.5853300000000  0.4466030000000 1.0
C      1  0.6097750000000  0.4996720000000  0.4761460000000 1.0
C      1  0.5561900000000  0.4331170000000  0.4111810000000 1.0
C      1  0.4450690000000  0.5514760000000  0.5623070000000 1.0
C      1  0.4545300000000  0.5343050000000  0.7290850000000 1.0
C      1  0.5340720000000  0.4046840000000  0.4757630000000 1.0
C      1  0.4706750000000  0.5125980000000  0.6543400000000 1.0
C      1  0.5151460000000  0.4754970000000  0.5689880000000 1.0
C      1  0.4042460000000  0.4874000000000  0.5702180000000 1.0
C      1  0.4726820000000  0.4836500000000  0.4759490000000 1.0
C      1  0.4603050000000  0.4566400000000  0.3694640000000 1.0
C      1  0.5000050000000  0.6183520000000  0.5071950000000 1.0
C      1  0.4653120000000  0.5198570000000  0.6792390000000 1.0
C      1  0.5660970000000  0.5620020000000  0.4807650000000 1.0
C      1  0.4374800000000  0.4070810000000  0.4959420000000 1.0
C      1  0.4882430000000  0.3998480000000  0.4107220000000 1.0
C      1  0.4941430000000  0.4966510000000  0.4638590000000 1.0
C      1  0.5138850000000  0.5603590000000  0.4222870000000 1.0
C      1  0.5635020000000  0.5600550000000  0.4144920000000 1.0
C      1  0.4917860000000  0.5557110000000  0.5564840000000 1.0
C      1  0.4269250000000  0.4310220000000  0.5078680000000 1.0
C      1  0.5485110000000  0.4386430000000  0.6306940000000 1.0
C      1  0.4606440000000  0.3974420000000  0.5728780000000 1.0
C      1  0.4462190000000  0.5315710000000  0.4892640000000 1.0
C      1  0.4722280000000  0.4687590000000  0.4226110000000 1.0
C      1  0.5913830000000  0.4403520000000  0.5163250000000 1.0
C      1  0.4503740000000  0.4094800000000  0.4487410000000 1.0
C      1  0.4675640000000  0.4001200000000  0.4277630000000 1.0
END
