TITL C-3866669-3764-438 90.2908362144448 125000 -1131.56367343163 0 0 184 (C1) n - 1
REM
REM in /home/nfs/bkarasulu/CARBON/AIRSS/Generating-Clusters/LCBOP/Only-C1/SD-CG/FIRE-CG
REM
REM
REM
REM
REM
REM ./C.cell (11c1c37f851c82e70ff6c80c92926a4b)
REM AIRSS Version 0.9.1 bugfix July 2018 build 013d7b7c2542+ Fri, 06 Jul 2018 19:26:36 +0100
REM compiler GCC version 9.2.1 20190827 (Red Hat 9.2.1-1)
REM options -cpp -mtune=generic -march=x86-64 -g -O0 -fpre-include=/usr/include/finclude/math-vector-fortran.h
REM seed 542226129 -1931445170 1836171760 -533773605 387191059 -995567559 1934356303 396544025 -87882111 917910501 -693744814 -715668554 -1820960235 -988017127 -2049554356 -1841279058 684727552 -1142480341 -434022866 622026143 2012430087 452681123 -1014949798 707681737 860290569 1002726386 87397136 1779251107 -527578618 -9019882 -180670237 -1317670548 392963902
REM
CELL 1.54180   50.00000   50.00000   50.00000   90.00000   90.00000   90.00000
LATT -1
SFAC C  
C      1  0.4273960000000  0.4202910000000  0.5345000000000 1.0
C      1  0.4472330000000  0.5447410000000  0.4756670000000 1.0
C      1  0.5399700000000  0.5211320000000  0.4775930000000 1.0
C      1  0.4669000000000  0.5463550000000  0.5410620000000 1.0
C      1  0.3918860000000  0.4999460000000  0.5800170000000 1.0
C      1  0.5595250000000  0.4059800000000  0.5288610000000 1.0
C      1  0.4644520000000  0.4734360000000  0.4732780000000 1.0
C      1  0.5586280000000  0.4967390000000  0.5794010000000 1.0
C      1  0.4645450000000  0.3931070000000  0.5153620000000 1.0
C      1  0.4886250000000  0.5638290000000  0.6019240000000 1.0
C      1  0.5043380000000  0.4402960000000  0.5266890000000 1.0
C      1  0.4602930000000  0.5200660000000  0.4810140000000 1.0
C      1  0.4129110000000  0.4265500000000  0.5092620000000 1.0
C      1  0.4035800000000  0.5629330000000  0.4488210000000 1.0
C      1  0.5106510000000  0.5366390000000  0.3827820000000 1.0
C      1  0.4181530000000  0.5872690000000  0.4515460000000 1.0
C      1  0.5163250000000  0.5713640000000  0.4912600000000 1.0
C      1  0.4054510000000  0.4794520000000  0.5657730000000 1.0
C      1  0.4471520000000  0.4949490000000  0.4796420000000 1.0
C      1  0.4696690000000  0.5823150000000  0.5942800000000 1.0
C      1  0.5150370000000  0.4407830000000  0.4551160000000 1.0
C      1  0.5838380000000  0.5467340000000  0.4689190000000 1.0
C      1  0.5362250000000  0.5141620000000  0.5913860000000 1.0
C      1  0.4269050000000  0.5473980000000  0.4962630000000 1.0
C      1  0.4642140000000  0.4246990000000  0.4809430000000 1.0
C      1  0.5681610000000  0.5548910000000  0.4905600000000 1.0
C      1  0.5563110000000  0.5566230000000  0.5650840000000 1.0
C      1  0.4188050000000  0.4919140000000  0.4761160000000 1.0
C      1  0.4424430000000  0.5832660000000  0.4048060000000 1.0
C      1  0.5206570000000  0.4368110000000  0.5716970000000 1.0
C      1  0.5827390000000  0.5287280000000  0.4245180000000 1.0
C      1  0.5550830000000  0.5495370000000  0.3915410000000 1.0
C      1  0.4891330000000  0.5649830000000  0.5465340000000 1.0
C      1  0.5422530000000  0.5993760000000  0.5278180000000 1.0
C      1  0.4256660000000  0.6003930000000  0.5306430000000 1.0
C      1  0.5155960000000  0.6095320000000  0.5215310000000 1.0
C      1  0.3298320000000  0.4828760000000  0.6280570000000 1.0
C      1  0.5541800000000  0.5978430000000  0.5000300000000 1.0
C      1  0.4089920000000  0.4799380000000  0.4527710000000 1.0
C      1  0.4057350000000  0.5407810000000  0.4335230000000 1.0
C      1  0.5654100000000  0.3965410000000  0.4719370000000 1.0
C      1  0.5655310000000  0.4673460000000  0.5792310000000 1.0
C      1  0.5198390000000  0.4270270000000  0.5455440000000 1.0
C      1  0.5553910000000  0.4981700000000  0.4707160000000 1.0
C      1  0.5330250000000  0.4024200000000  0.5399840000000 1.0
C      1  0.4368850000000  0.4543120000000  0.5985590000000 1.0
C      1  0.4305650000000  0.5940820000000  0.4265440000000 1.0
C      1  0.4511860000000  0.4878060000000  0.3931290000000 1.0
C      1  0.5117910000000  0.4514790000000  0.4093860000000 1.0
C      1  0.5189580000000  0.4628980000000  0.5768010000000 1.0
C      1  0.4081910000000  0.5084890000000  0.5212940000000 1.0
C      1  0.4805230000000  0.4992860000000  0.5358370000000 1.0
C      1  0.6258380000000  0.5472050000000  0.5350390000000 1.0
C      1  0.4389790000000  0.4748560000000  0.5325270000000 1.0
C      1  0.6135650000000  0.4971990000000  0.4952000000000 1.0
C      1  0.4268990000000  0.4550510000000  0.6242010000000 1.0
C      1  0.5065890000000  0.4901480000000  0.5344720000000 1.0
C      1  0.5647720000000  0.3967720000000  0.5005480000000 1.0
C      1  0.5519580000000  0.4423310000000  0.4901800000000 1.0
C      1  0.3822290000000  0.4720710000000  0.5013320000000 1.0
C      1  0.5537320000000  0.6021210000000  0.4463960000000 1.0
C      1  0.6360490000000  0.5362830000000  0.5127960000000 1.0
C      1  0.5171060000000  0.5581270000000  0.5406090000000 1.0
C      1  0.5223830000000  0.3517310000000  0.4743860000000 1.0
C      1  0.5722340000000  0.4214560000000  0.5943180000000 1.0
C      1  0.4734980000000  0.4504260000000  0.4875770000000 1.0
C      1  0.6480420000000  0.4484980000000  0.5359520000000 1.0
C      1  0.3548440000000  0.4750980000000  0.4972150000000 1.0
C      1  0.4468830000000  0.4278820000000  0.4373130000000 1.0
C      1  0.5260750000000  0.5362690000000  0.5251370000000 1.0
C      1  0.4767960000000  0.4781230000000  0.4487030000000 1.0
C      1  0.4350480000000  0.5982770000000  0.5561860000000 1.0
C      1  0.4495330000000  0.5927280000000  0.5787530000000 1.0
C      1  0.4927970000000  0.4919270000000  0.4307940000000 1.0
C      1  0.4375030000000  0.5436130000000  0.5452060000000 1.0
C      1  0.4928140000000  0.6002160000000  0.4147860000000 1.0
C      1  0.5565820000000  0.4638310000000  0.5068400000000 1.0
C      1  0.5416880000000  0.5425990000000  0.5859390000000 1.0
C      1  0.4949950000000  0.6160830000000  0.5399420000000 1.0
C      1  0.5137070000000  0.4744340000000  0.4889260000000 1.0
C      1  0.5679430000000  0.4867070000000  0.4925930000000 1.0
C      1  0.4191580000000  0.4175810000000  0.4825990000000 1.0
C      1  0.4978110000000  0.4784240000000  0.4053020000000 1.0
C      1  0.4438190000000  0.4611450000000  0.4000150000000 1.0
C      1  0.5990890000000  0.4525300000000  0.4739440000000 1.0
C      1  0.5475270000000  0.5898990000000  0.4223740000000 1.0
C      1  0.5676960000000  0.4192300000000  0.4524080000000 1.0
C      1  0.4411220000000  0.4216580000000  0.4650620000000 1.0
C      1  0.4143320000000  0.4870280000000  0.5395470000000 1.0
C      1  0.5428490000000  0.5026350000000  0.3996130000000 1.0
C      1  0.4638520000000  0.5428970000000  0.3821680000000 1.0
C      1  0.5058680000000  0.4014190000000  0.4859500000000 1.0
C      1  0.5888020000000  0.4982640000000  0.5089140000000 1.0
C      1  0.4857770000000  0.5925460000000  0.5522140000000 1.0
C      1  0.4306970000000  0.5958850000000  0.4767370000000 1.0
C      1  0.4814410000000  0.5282960000000  0.4982090000000 1.0
C      1  0.6446080000000  0.4054830000000  0.5169130000000 1.0
C      1  0.5452310000000  0.4897650000000  0.4229820000000 1.0
C      1  0.4171110000000  0.5238600000000  0.4160700000000 1.0
C      1  0.5381350000000  0.5386100000000  0.4541040000000 1.0
C      1  0.5408500000000  0.5751370000000  0.5469480000000 1.0
C      1  0.4516320000000  0.4939640000000  0.5722350000000 1.0
C      1  0.4217390000000  0.5344680000000  0.5215890000000 1.0
C      1  0.5720840000000  0.4046850000000  0.6142610000000 1.0
C      1  0.4700920000000  0.6309280000000  0.5026130000000 1.0
C      1  0.4322870000000  0.4471680000000  0.4219600000000 1.0
C      1  0.5454120000000  0.5708960000000  0.4930860000000 1.0
C      1  0.4998390000000  0.4362260000000  0.4315110000000 1.0
C      1  0.5191300000000  0.4283340000000  0.4825100000000 1.0
C      1  0.5084200000000  0.5096690000000  0.6018450000000 1.0
C      1  0.4653560000000  0.5651260000000  0.4651570000000 1.0
C      1  0.4002250000000  0.4943760000000  0.4974350000000 1.0
C      1  0.4784400000000  0.6072850000000  0.4887640000000 1.0
C      1  0.5175440000000  0.4820480000000  0.5583280000000 1.0
C      1  0.4599290000000  0.4852850000000  0.5472070000000 1.0
C      1  0.4779240000000  0.4030260000000  0.4928150000000 1.0
C      1  0.5042050000000  0.5970810000000  0.4972660000000 1.0
C      1  0.5710920000000  0.4387050000000  0.5716690000000 1.0
C      1  0.4703860000000  0.4065890000000  0.5611670000000 1.0
C      1  0.5735840000000  0.4399760000000  0.4715990000000 1.0
C      1  0.4743170000000  0.4245970000000  0.4298860000000 1.0
C      1  0.4177160000000  0.4328640000000  0.5582800000000 1.0
C      1  0.5181520000000  0.4932760000000  0.5090160000000 1.0
C      1  0.5102550000000  0.5425530000000  0.4451450000000 1.0
C      1  0.5635540000000  0.4701320000000  0.5335290000000 1.0
C      1  0.5954790000000  0.4764140000000  0.4202940000000 1.0
C      1  0.4661080000000  0.4516900000000  0.5947350000000 1.0
C      1  0.4254860000000  0.5403260000000  0.5714020000000 1.0
C      1  0.5638830000000  0.4331210000000  0.4255260000000 1.0
C      1  0.5159650000000  0.3818580000000  0.5499030000000 1.0
C      1  0.5806670000000  0.5434650000000  0.4006890000000 1.0
C      1  0.4907980000000  0.5643940000000  0.4499710000000 1.0
C      1  0.5946180000000  0.5030200000000  0.4242290000000 1.0
C      1  0.4182130000000  0.4551180000000  0.5760620000000 1.0
C      1  0.6596350000000  0.4275540000000  0.5227610000000 1.0
C      1  0.4901480000000  0.5351420000000  0.6051510000000 1.0
C      1  0.4526800000000  0.4060030000000  0.5377920000000 1.0
C      1  0.4214040000000  0.6004460000000  0.5036440000000 1.0
C      1  0.5799320000000  0.4943710000000  0.5361440000000 1.0
C      1  0.6160610000000  0.4726520000000  0.4808350000000 1.0
C      1  0.4761400000000  0.5244800000000  0.5253690000000 1.0
C      1  0.5675420000000  0.5400190000000  0.4461640000000 1.0
C      1  0.6106000000000  0.5390000000000  0.4721170000000 1.0
C      1  0.4987830000000  0.5188950000000  0.4347520000000 1.0
C      1  0.4617040000000  0.4991880000000  0.5971860000000 1.0
C      1  0.3503380000000  0.4886940000000  0.6130480000000 1.0
C      1  0.5373350000000  0.5268540000000  0.3866770000000 1.0
C      1  0.5396560000000  0.4402510000000  0.4098130000000 1.0
C      1  0.5124220000000  0.5657600000000  0.3893280000000 1.0
C      1  0.5740500000000  0.5110520000000  0.5583180000000 1.0
C      1  0.5292460000000  0.5186200000000  0.5037390000000 1.0
C      1  0.4634160000000  0.5699980000000  0.3910950000000 1.0
C      1  0.6247450000000  0.5229750000000  0.4906840000000 1.0
C      1  0.4625310000000  0.5259740000000  0.6044690000000 1.0
C      1  0.3932570000000  0.4472390000000  0.5094840000000 1.0
C      1  0.6217170000000  0.4475980000000  0.5431910000000 1.0
C      1  0.5394480000000  0.5726670000000  0.4002790000000 1.0
C      1  0.5013090000000  0.4488290000000  0.4990160000000 1.0
C      1  0.4326570000000  0.5079200000000  0.4011080000000 1.0
C      1  0.6182740000000  0.4041810000000  0.5240710000000 1.0
C      1  0.6037200000000  0.5494290000000  0.5498010000000 1.0
C      1  0.4971060000000  0.5900620000000  0.4393420000000 1.0
C      1  0.5771530000000  0.4240820000000  0.5456930000000 1.0
C      1  0.3292900000000  0.4783510000000  0.4932770000000 1.0
C      1  0.4912400000000  0.3865880000000  0.5606790000000 1.0
C      1  0.4895370000000  0.5818770000000  0.3936270000000 1.0
C      1  0.6046080000000  0.4253270000000  0.5376650000000 1.0
C      1  0.4414870000000  0.5417770000000  0.5946860000000 1.0
C      1  0.5169810000000  0.3766750000000  0.4797110000000 1.0
C      1  0.4833590000000  0.4830070000000  0.6023880000000 1.0
C      1  0.3708570000000  0.4946090000000  0.5973680000000 1.0
C      1  0.5220840000000  0.4683480000000  0.4614550000000 1.0
C      1  0.4793430000000  0.4945350000000  0.3877530000000 1.0
C      1  0.4851220000000  0.5233110000000  0.3818630000000 1.0
C      1  0.4767830000000  0.6348360000000  0.5288150000000 1.0
C      1  0.4111670000000  0.4605000000000  0.4347370000000 1.0
C      1  0.5785230000000  0.5398140000000  0.5571930000000 1.0
C      1  0.4726370000000  0.4285120000000  0.5795750000000 1.0
C      1  0.5575980000000  0.6093000000000  0.4730270000000 1.0
C      1  0.4591580000000  0.5912030000000  0.4757190000000 1.0
C      1  0.5856030000000  0.4513550000000  0.4194550000000 1.0
C      1  0.5429090000000  0.4834070000000  0.4501590000000 1.0
C      1  0.4993510000000  0.5489360000000  0.4914960000000 1.0
C      1  0.4011910000000  0.5262620000000  0.5751030000000 1.0
END
