TITL C-3866674-3872-285 -5.29896736879879e-05 125000 -815.138557088664 0 0 133 (C1) n - 1
REM
REM in /home/nfs/bkarasulu/CARBON/AIRSS/Generating-Clusters/LCBOP/Only-C1/SD-CG/FIRE-CG
REM
REM
REM
REM
REM
REM ./C.cell (11c1c37f851c82e70ff6c80c92926a4b)
REM AIRSS Version 0.9.1 bugfix July 2018 build 013d7b7c2542+ Fri, 06 Jul 2018 19:26:36 +0100
REM compiler GCC version 9.2.1 20190827 (Red Hat 9.2.1-1)
REM options -cpp -mtune=generic -march=x86-64 -g -O0 -fpre-include=/usr/include/finclude/math-vector-fortran.h
REM seed -1246696861 546949392 -789735468 -1526505266 1167467631 210819034 -1851061490 -1803935094 3251635 -1837909568 960261212 -550783475 172547367 1488385414 -1912471553 -353240425 -74795311 -1818864920 1532928021 -1487136619 -1942028931 1426929017 -651060326 -1626552733 -41472778 655891513 798257538 2033783378 1440796814 -1088447795 1279901254 1212148687 -978661598
REM
CELL 1.54180   50.00000   50.00000   50.00000   90.00000   90.00000   90.00000
LATT -1
SFAC C  
C      1  0.5549670000000  0.4759410000000  0.6314670000000 1.0
C      1  0.5472810000000  0.4788610000000  0.4900790000000 1.0
C      1  0.4644360000000  0.5969250000000  0.4750550000000 1.0
C      1  0.5459180000000  0.4369160000000  0.5767150000000 1.0
C      1  0.5340430000000  0.5025500000000  0.5637860000000 1.0
C      1  0.5502080000000  0.5462710000000  0.4188980000000 1.0
C      1  0.4278140000000  0.4756600000000  0.5246930000000 1.0
C      1  0.5909030000000  0.5018970000000  0.4888710000000 1.0
C      1  0.5321260000000  0.5521290000000  0.5096460000000 1.0
C      1  0.4299190000000  0.5725620000000  0.4518390000000 1.0
C      1  0.5725890000000  0.5447810000000  0.4796750000000 1.0
C      1  0.5972480000000  0.4296960000000  0.4925380000000 1.0
C      1  0.4954220000000  0.5583190000000  0.4705790000000 1.0
C      1  0.4907870000000  0.5136970000000  0.5785590000000 1.0
C      1  0.4317220000000  0.5003760000000  0.4000350000000 1.0
C      1  0.4877140000000  0.4099800000000  0.5884470000000 1.0
C      1  0.4997890000000  0.5113540000000  0.3879550000000 1.0
C      1  0.4956320000000  0.4700460000000  0.4168850000000 1.0
C      1  0.4422190000000  0.4144330000000  0.4635930000000 1.0
C      1  0.5367930000000  0.4241660000000  0.4440400000000 1.0
C      1  0.5102450000000  0.6050840000000  0.5769720000000 1.0
C      1  0.6069050000000  0.5032990000000  0.5118730000000 1.0
C      1  0.3974470000000  0.5289950000000  0.5533240000000 1.0
C      1  0.4253800000000  0.4893230000000  0.5701230000000 1.0
C      1  0.5494370000000  0.5657130000000  0.5767870000000 1.0
C      1  0.5783590000000  0.4828720000000  0.4351300000000 1.0
C      1  0.4632970000000  0.5411230000000  0.5466990000000 1.0
C      1  0.5370140000000  0.4130750000000  0.5093610000000 1.0
C      1  0.4833550000000  0.5384270000000  0.4533510000000 1.0
C      1  0.4928950000000  0.4733450000000  0.5481470000000 1.0
C      1  0.4822760000000  0.5612580000000  0.5861810000000 1.0
C      1  0.4044220000000  0.5385580000000  0.4799910000000 1.0
C      1  0.5792690000000  0.5116150000000  0.4428740000000 1.0
C      1  0.4470350000000  0.4804300000000  0.4609610000000 1.0
C      1  0.5510880000000  0.4047630000000  0.4598070000000 1.0
C      1  0.4967310000000  0.4336010000000  0.4895610000000 1.0
C      1  0.4488540000000  0.5844390000000  0.5225840000000 1.0
C      1  0.5712320000000  0.5765260000000  0.5170450000000 1.0
C      1  0.5332280000000  0.4091830000000  0.5376760000000 1.0
C      1  0.6026790000000  0.4775520000000  0.5570310000000 1.0
C      1  0.4903150000000  0.5108530000000  0.4553300000000 1.0
C      1  0.4760570000000  0.4457720000000  0.5066660000000 1.0
C      1  0.5049630000000  0.4972490000000  0.5577810000000 1.0
C      1  0.5244560000000  0.5623010000000  0.5639460000000 1.0
C      1  0.5078180000000  0.4211720000000  0.4449240000000 1.0
C      1  0.5846840000000  0.5214600000000  0.4693470000000 1.0
C      1  0.4838950000000  0.5121230000000  0.5108600000000 1.0
C      1  0.5677170000000  0.5821090000000  0.5625940000000 1.0
C      1  0.5342810000000  0.4985500000000  0.5933180000000 1.0
C      1  0.5085770000000  0.5095700000000  0.6014700000000 1.0
C      1  0.4662660000000  0.4259100000000  0.4216250000000 1.0
C      1  0.5480060000000  0.4629720000000  0.5341150000000 1.0
C      1  0.4340240000000  0.4579470000000  0.4470550000000 1.0
C      1  0.4104570000000  0.5116360000000  0.5690390000000 1.0
C      1  0.5359940000000  0.4994500000000  0.4348410000000 1.0
C      1  0.5588680000000  0.5573890000000  0.5006020000000 1.0
C      1  0.5794270000000  0.5645960000000  0.5423320000000 1.0
C      1  0.4844790000000  0.4902400000000  0.4000600000000 1.0
C      1  0.5317590000000  0.6160390000000  0.5640650000000 1.0
C      1  0.3902760000000  0.5265040000000  0.5021490000000 1.0
C      1  0.4357040000000  0.4707820000000  0.5516970000000 1.0
C      1  0.4919670000000  0.5383020000000  0.3920510000000 1.0
C      1  0.5756050000000  0.4781480000000  0.4863790000000 1.0
C      1  0.4109860000000  0.5647130000000  0.4714860000000 1.0
C      1  0.4781120000000  0.3927440000000  0.6054700000000 1.0
C      1  0.4534780000000  0.4290050000000  0.5123420000000 1.0
C      1  0.6103400000000  0.4921460000000  0.5359970000000 1.0
C      1  0.4982910000000  0.4286790000000  0.5703650000000 1.0
C      1  0.5545440000000  0.5216510000000  0.4305400000000 1.0
C      1  0.4415140000000  0.4159620000000  0.4904410000000 1.0
C      1  0.4396060000000  0.5512490000000  0.4358390000000 1.0
C      1  0.4667220000000  0.5455370000000  0.4317500000000 1.0
C      1  0.5382230000000  0.4600560000000  0.5089270000000 1.0
C      1  0.4922560000000  0.4027670000000  0.4898250000000 1.0
C      1  0.5552520000000  0.6012140000000  0.5209820000000 1.0
C      1  0.5133500000000  0.6019280000000  0.4860160000000 1.0
C      1  0.4847510000000  0.4678970000000  0.5214570000000 1.0
C      1  0.5269940000000  0.4972170000000  0.4828320000000 1.0
C      1  0.3888070000000  0.4819890000000  0.4509260000000 1.0
C      1  0.5256370000000  0.4240850000000  0.5613980000000 1.0
C      1  0.5346020000000  0.6073690000000  0.5021100000000 1.0
C      1  0.5501860000000  0.4778620000000  0.6040880000000 1.0
C      1  0.5211180000000  0.5054440000000  0.3718460000000 1.0
C      1  0.4112400000000  0.5079410000000  0.4154410000000 1.0
C      1  0.3895360000000  0.5358130000000  0.5286250000000 1.0
C      1  0.5388930000000  0.4477810000000  0.4249350000000 1.0
C      1  0.5183290000000  0.5034800000000  0.4565480000000 1.0
C      1  0.5542310000000  0.6054390000000  0.5500330000000 1.0
C      1  0.4054170000000  0.4595930000000  0.4451820000000 1.0
C      1  0.4737720000000  0.4874110000000  0.4557520000000 1.0
C      1  0.5508330000000  0.4735670000000  0.4303820000000 1.0
C      1  0.4348060000000  0.4029210000000  0.5495690000000 1.0
C      1  0.4466260000000  0.4323630000000  0.4419940000000 1.0
C      1  0.5122710000000  0.4476100000000  0.4094600000000 1.0
C      1  0.4743670000000  0.5848470000000  0.4075740000000 1.0
C      1  0.4610170000000  0.5999570000000  0.4260010000000 1.0
C      1  0.5829390000000  0.4072240000000  0.4957960000000 1.0
C      1  0.5081600000000  0.5046170000000  0.5025890000000 1.0
C      1  0.5615590000000  0.3832550000000  0.4459240000000 1.0
C      1  0.4487820000000  0.5944610000000  0.4513520000000 1.0
C      1  0.5239470000000  0.4371880000000  0.5014550000000 1.0
C      1  0.5614750000000  0.4586730000000  0.5859180000000 1.0
C      1  0.4530180000000  0.4480920000000  0.5564630000000 1.0
C      1  0.4815490000000  0.4511950000000  0.5631100000000 1.0
C      1  0.4565690000000  0.4915190000000  0.3962480000000 1.0
C      1  0.5554680000000  0.5168820000000  0.5516460000000 1.0
C      1  0.4959870000000  0.4422230000000  0.4611250000000 1.0
C      1  0.5737820000000  0.5364400000000  0.5464380000000 1.0
C      1  0.4951410000000  0.4246280000000  0.4189750000000 1.0
C      1  0.4786630000000  0.5567550000000  0.4083860000000 1.0
C      1  0.5039700000000  0.5773330000000  0.5782320000000 1.0
C      1  0.5472680000000  0.5708960000000  0.4108900000000 1.0
C      1  0.4750470000000  0.5369350000000  0.5728430000000 1.0
C      1  0.5635660000000  0.4720820000000  0.6831770000000 1.0
C      1  0.4668130000000  0.5671280000000  0.5351860000000 1.0
C      1  0.4510970000000  0.5985760000000  0.4998390000000 1.0
C      1  0.4939480000000  0.5724120000000  0.5299700000000 1.0
C      1  0.5861980000000  0.4649460000000  0.5738500000000 1.0
C      1  0.4314170000000  0.4969240000000  0.4777890000000 1.0
C      1  0.4649230000000  0.5206780000000  0.5275690000000 1.0
C      1  0.5556030000000  0.4045830000000  0.4888650000000 1.0
C      1  0.5144430000000  0.5481100000000  0.4883540000000 1.0
C      1  0.4913920000000  0.5868830000000  0.4747530000000 1.0
C      1  0.5593050000000  0.4740050000000  0.6575300000000 1.0
C      1  0.4014680000000  0.5064760000000  0.4416340000000 1.0
C      1  0.3766220000000  0.4849230000000  0.4768750000000 1.0
C      1  0.4466140000000  0.4254740000000  0.5398140000000 1.0
C      1  0.4885500000000  0.4657690000000  0.4454060000000 1.0
C      1  0.5194450000000  0.5605270000000  0.5348940000000 1.0
C      1  0.4178540000000  0.4877070000000  0.5016590000000 1.0
C      1  0.3902630000000  0.4972650000000  0.4990030000000 1.0
C      1  0.5906180000000  0.4545160000000  0.4854880000000 1.0
C      1  0.4161630000000  0.5176500000000  0.4637450000000 1.0
END
