TITL C-3866675-3766-460 -4.75538152172754e-07 125000 -875.43053845713 0 0 140 (C1) n - 1
REM
REM in /home/nfs/bkarasulu/CARBON/AIRSS/Generating-Clusters/LCBOP/Only-C1/SD-CG/FIRE-CG
REM
REM
REM
REM
REM
REM ./C.cell (11c1c37f851c82e70ff6c80c92926a4b)
REM AIRSS Version 0.9.1 bugfix July 2018 build 013d7b7c2542+ Fri, 06 Jul 2018 19:26:36 +0100
REM compiler GCC version 9.2.1 20190827 (Red Hat 9.2.1-1)
REM options -cpp -mtune=generic -march=x86-64 -g -O0 -fpre-include=/usr/include/finclude/math-vector-fortran.h
REM seed 351225758 914661268 -1009277225 2017840073 -1075045799 1823724288 -1419894969 1811710391 -35981076 -275120127 1459332750 -251034519 791538939 -1967913743 -370714393 380453813 449632155 1710141282 -1338259144 -1245533893 -1034260231 878996131 2014845849 65538771 -1016417655 1466601919 369497284 -992437156 -711971642 -1008608417 -125406132 -842086271 -1843588115
REM
CELL 1.54180   50.00000   50.00000   50.00000   90.00000   90.00000   90.00000
LATT -1
SFAC C  
C      1  0.5432280000000  0.5141330000000  0.4869220000000 1.0
C      1  0.3942370000000  0.4660240000000  0.4665110000000 1.0
C      1  0.4537770000000  0.5329420000000  0.4945980000000 1.0
C      1  0.4585760000000  0.5401810000000  0.5428390000000 1.0
C      1  0.5065290000000  0.5280260000000  0.3776540000000 1.0
C      1  0.4986970000000  0.5778920000000  0.4548720000000 1.0
C      1  0.6139160000000  0.5747340000000  0.5312550000000 1.0
C      1  0.5614850000000  0.5530000000000  0.5751360000000 1.0
C      1  0.5838660000000  0.4520590000000  0.4158830000000 1.0
C      1  0.4992040000000  0.4204970000000  0.4802620000000 1.0
C      1  0.5767330000000  0.5139060000000  0.5448840000000 1.0
C      1  0.5204210000000  0.4102930000000  0.5469920000000 1.0
C      1  0.4176190000000  0.4436880000000  0.5095360000000 1.0
C      1  0.5493540000000  0.5704670000000  0.5559540000000 1.0
C      1  0.4270400000000  0.5148190000000  0.4052250000000 1.0
C      1  0.4706930000000  0.5016020000000  0.5728610000000 1.0
C      1  0.4556520000000  0.4689090000000  0.5241680000000 1.0
C      1  0.5143820000000  0.5423990000000  0.5351670000000 1.0
C      1  0.5063010000000  0.4196800000000  0.3955040000000 1.0
C      1  0.4711260000000  0.6264690000000  0.5600210000000 1.0
C      1  0.5577840000000  0.5852990000000  0.4854590000000 1.0
C      1  0.4601290000000  0.5511980000000  0.5158550000000 1.0
C      1  0.5177070000000  0.5514920000000  0.5086180000000 1.0
C      1  0.5761700000000  0.4206710000000  0.4526660000000 1.0
C      1  0.5547760000000  0.4487500000000  0.4848170000000 1.0
C      1  0.4474730000000  0.5004150000000  0.4582980000000 1.0
C      1  0.4240120000000  0.5159540000000  0.5970050000000 1.0
C      1  0.4742040000000  0.4888050000000  0.4016460000000 1.0
C      1  0.4538490000000  0.4712640000000  0.4587470000000 1.0
C      1  0.6037480000000  0.4630960000000  0.5513240000000 1.0
C      1  0.5391180000000  0.4680660000000  0.4975650000000 1.0
C      1  0.4816870000000  0.5329320000000  0.4472960000000 1.0
C      1  0.5085350000000  0.6144710000000  0.5902490000000 1.0
C      1  0.5728980000000  0.5487460000000  0.4577260000000 1.0
C      1  0.5512720000000  0.5868700000000  0.5324760000000 1.0
C      1  0.4978980000000  0.5546530000000  0.4384220000000 1.0
C      1  0.4816790000000  0.4630830000000  0.4605370000000 1.0
C      1  0.4121530000000  0.5329150000000  0.4601120000000 1.0
C      1  0.3991250000000  0.4529790000000  0.4907830000000 1.0
C      1  0.5928120000000  0.5324530000000  0.4703490000000 1.0
C      1  0.4974920000000  0.4775380000000  0.4144150000000 1.0
C      1  0.4103300000000  0.4760320000000  0.5740320000000 1.0
C      1  0.5998270000000  0.4642800000000  0.4998460000000 1.0
C      1  0.5684600000000  0.4991700000000  0.5243950000000 1.0
C      1  0.4219300000000  0.4304460000000  0.5679690000000 1.0
C      1  0.4609180000000  0.5161410000000  0.4371160000000 1.0
C      1  0.5201520000000  0.4522490000000  0.5705370000000 1.0
C      1  0.5937410000000  0.5046870000000  0.4601280000000 1.0
C      1  0.5812820000000  0.4402090000000  0.4981130000000 1.0
C      1  0.4385970000000  0.5480710000000  0.5611260000000 1.0
C      1  0.4192970000000  0.4559880000000  0.5562510000000 1.0
C      1  0.4575980000000  0.4820600000000  0.5879790000000 1.0
C      1  0.4918080000000  0.5167030000000  0.4698480000000 1.0
C      1  0.4346320000000  0.5224970000000  0.4747850000000 1.0
C      1  0.5543690000000  0.5590050000000  0.4759480000000 1.0
C      1  0.5914020000000  0.4200360000000  0.4773460000000 1.0
C      1  0.5046680000000  0.5792180000000  0.5052340000000 1.0
C      1  0.5241590000000  0.5971720000000  0.5250600000000 1.0
C      1  0.5703660000000  0.5837340000000  0.5112470000000 1.0
C      1  0.4303530000000  0.4185120000000  0.5093970000000 1.0
C      1  0.5190400000000  0.5509690000000  0.4190090000000 1.0
C      1  0.4657130000000  0.4901380000000  0.5081240000000 1.0
C      1  0.5216860000000  0.5292570000000  0.4003260000000 1.0
C      1  0.5716750000000  0.4280870000000  0.5241360000000 1.0
C      1  0.4634560000000  0.4125260000000  0.4229860000000 1.0
C      1  0.5949720000000  0.5678600000000  0.5125080000000 1.0
C      1  0.5217350000000  0.4681330000000  0.4020050000000 1.0
C      1  0.5671020000000  0.5222780000000  0.4196890000000 1.0
C      1  0.4509400000000  0.4069190000000  0.5250480000000 1.0
C      1  0.5366180000000  0.6020300000000  0.4765870000000 1.0
C      1  0.5037780000000  0.5189110000000  0.5449740000000 1.0
C      1  0.4169800000000  0.5611580000000  0.4196120000000 1.0
C      1  0.5632980000000  0.4346810000000  0.5507160000000 1.0
C      1  0.5829730000000  0.4506240000000  0.5635840000000 1.0
C      1  0.4265050000000  0.5389600000000  0.5832830000000 1.0
C      1  0.4763300000000  0.4506660000000  0.5314980000000 1.0
C      1  0.5209700000000  0.4418040000000  0.3924290000000 1.0
C      1  0.5138060000000  0.6169410000000  0.5420220000000 1.0
C      1  0.4544790000000  0.5072760000000  0.4110020000000 1.0
C      1  0.4984020000000  0.6217340000000  0.5651500000000 1.0
C      1  0.4239890000000  0.3696250000000  0.6079090000000 1.0
C      1  0.5516400000000  0.4339260000000  0.4606300000000 1.0
C      1  0.6109780000000  0.4681810000000  0.5257490000000 1.0
C      1  0.5102160000000  0.5905540000000  0.4774260000000 1.0
C      1  0.3580040000000  0.4889530000000  0.5763310000000 1.0
C      1  0.5499870000000  0.4934960000000  0.5046010000000 1.0
C      1  0.5163330000000  0.4726560000000  0.5509250000000 1.0
C      1  0.6006050000000  0.4833310000000  0.4782060000000 1.0
C      1  0.4998790000000  0.4082140000000  0.5277460000000 1.0
C      1  0.5440590000000  0.5649330000000  0.4220510000000 1.0
C      1  0.5397050000000  0.5104920000000  0.5765870000000 1.0
C      1  0.4600450000000  0.5998060000000  0.5196820000000 1.0
C      1  0.4482220000000  0.3811970000000  0.5341010000000 1.0
C      1  0.4468830000000  0.4271260000000  0.4378180000000 1.0
C      1  0.4994270000000  0.4526260000000  0.5900970000000 1.0
C      1  0.4288240000000  0.4606970000000  0.5296990000000 1.0
C      1  0.4355310000000  0.4189640000000  0.5897090000000 1.0
C      1  0.4131320000000  0.5575420000000  0.4462060000000 1.0
C      1  0.5341430000000  0.5253350000000  0.6010110000000 1.0
C      1  0.4095130000000  0.4580930000000  0.4434490000000 1.0
C      1  0.5209530000000  0.4997830000000  0.5576030000000 1.0
C      1  0.4746070000000  0.4219600000000  0.5313770000000 1.0
C      1  0.4222250000000  0.5424980000000  0.4006250000000 1.0
C      1  0.5442380000000  0.5122420000000  0.4047160000000 1.0
C      1  0.5814950000000  0.5001520000000  0.4333870000000 1.0
C      1  0.5050910000000  0.4033010000000  0.5003240000000 1.0
C      1  0.4064760000000  0.5014820000000  0.4209220000000 1.0
C      1  0.5461460000000  0.5519020000000  0.6008120000000 1.0
C      1  0.3843380000000  0.4925640000000  0.4637590000000 1.0
C      1  0.5360640000000  0.4304390000000  0.5597620000000 1.0
C      1  0.4294520000000  0.3936690000000  0.5994690000000 1.0
C      1  0.4042480000000  0.4731120000000  0.4198230000000 1.0
C      1  0.4563650000000  0.6175210000000  0.5394010000000 1.0
C      1  0.5219160000000  0.5608650000000  0.5549120000000 1.0
C      1  0.5632940000000  0.5251370000000  0.5662880000000 1.0
C      1  0.4715320000000  0.4575460000000  0.5947980000000 1.0
C      1  0.4983550000000  0.4778900000000  0.4429450000000 1.0
C      1  0.5475950000000  0.5910690000000  0.4151980000000 1.0
C      1  0.4961800000000  0.4486670000000  0.4805920000000 1.0
C      1  0.5379430000000  0.5414580000000  0.4912630000000 1.0
C      1  0.4557610000000  0.4349810000000  0.6007700000000 1.0
C      1  0.5652600000000  0.5479130000000  0.4309690000000 1.0
C      1  0.5118460000000  0.4619180000000  0.5014430000000 1.0
C      1  0.4296430000000  0.4888720000000  0.5905910000000 1.0
C      1  0.5022030000000  0.4628280000000  0.5280930000000 1.0
C      1  0.4364770000000  0.4510560000000  0.4479390000000 1.0
C      1  0.4742480000000  0.5766100000000  0.5121130000000 1.0
C      1  0.5214460000000  0.5976770000000  0.6065110000000 1.0
C      1  0.5708690000000  0.4765440000000  0.4188970000000 1.0
C      1  0.4847970000000  0.4093140000000  0.4073870000000 1.0
C      1  0.3832580000000  0.4825820000000  0.5754670000000 1.0
C      1  0.5351660000000  0.5752830000000  0.6115210000000 1.0
C      1  0.5454640000000  0.4833530000000  0.4054800000000 1.0
C      1  0.4766540000000  0.5197490000000  0.5525150000000 1.0
C      1  0.5365170000000  0.5045640000000  0.4615220000000 1.0
C      1  0.5101430000000  0.4990710000000  0.4567780000000 1.0
C      1  0.3969270000000  0.5120740000000  0.4469320000000 1.0
C      1  0.6007030000000  0.5454440000000  0.4948850000000 1.0
C      1  0.4749590000000  0.5124580000000  0.4928190000000 1.0
C      1  0.5863330000000  0.4281730000000  0.4278020000000 1.0
END
