TITL C-3866671-3735-383 0.0708632577985859 125000 -221.732247391757 0 0 38 (C1) n - 1
REM
REM in /home/nfs/bkarasulu/CARBON/AIRSS/Generating-Clusters/LCBOP/Only-C1/SD-CG/FIRE-CG
REM
REM
REM
REM
REM
REM ./C.cell (11c1c37f851c82e70ff6c80c92926a4b)
REM AIRSS Version 0.9.1 bugfix July 2018 build 013d7b7c2542+ Fri, 06 Jul 2018 19:26:36 +0100
REM compiler GCC version 9.2.1 20190827 (Red Hat 9.2.1-1)
REM options -cpp -mtune=generic -march=x86-64 -g -O0 -fpre-include=/usr/include/finclude/math-vector-fortran.h
REM seed -389146147 -171000611 1361826146 -1380856564 1315826015 408363149 506080528 -771662556 709047468 -1581811323 1184117776 1923626787 1491016408 891817029 312752467 -88198337 -1632655114 -1110366564 2042055467 2127915372 376922924 516346576 -1383172388 260553642 1967308618 -199864466 -1332027233 -2021988792 -1949665960 -63304244 1970270160 -1281188836 1341571115
REM
CELL 1.54180   50.00000   50.00000   50.00000   90.00000   90.00000   90.00000
LATT -1
SFAC C  
C      1  0.5192940000000  0.4704050000000  0.4627860000000 1.0
C      1  0.5379380000000  0.5248360000000  0.5255970000000 1.0
C      1  0.4514160000000  0.4549180000000  0.4798430000000 1.0
C      1  0.4680620000000  0.5045370000000  0.4264420000000 1.0
C      1  0.4501980000000  0.5141640000000  0.4701890000000 1.0
C      1  0.5309850000000  0.5321880000000  0.4332420000000 1.0
C      1  0.4993750000000  0.5006060000000  0.5425700000000 1.0
C      1  0.6054460000000  0.5181930000000  0.4950990000000 1.0
C      1  0.5373540000000  0.4886000000000  0.4696540000000 1.0
C      1  0.5563300000000  0.5314530000000  0.5469310000000 1.0
C      1  0.4586650000000  0.4943200000000  0.4516500000000 1.0
C      1  0.4465640000000  0.4491080000000  0.5053300000000 1.0
C      1  0.4927660000000  0.5400930000000  0.5157670000000 1.0
C      1  0.4514780000000  0.4513620000000  0.5313280000000 1.0
C      1  0.4524200000000  0.4409680000000  0.6032870000000 1.0
C      1  0.4583110000000  0.4506790000000  0.5793580000000 1.0
C      1  0.4670220000000  0.4690550000000  0.4614720000000 1.0
C      1  0.4750130000000  0.5464900000000  0.4970370000000 1.0
C      1  0.5468870000000  0.5141430000000  0.4759410000000 1.0
C      1  0.5116900000000  0.5345550000000  0.3891100000000 1.0
C      1  0.5652510000000  0.5557690000000  0.4577670000000 1.0
C      1  0.5477600000000  0.5340870000000  0.4555800000000 1.0
C      1  0.5833820000000  0.5224860000000  0.5102390000000 1.0
C      1  0.5087840000000  0.5318330000000  0.4161330000000 1.0
C      1  0.4623400000000  0.4922430000000  0.4027470000000 1.0
C      1  0.5824360000000  0.5299980000000  0.5380820000000 1.0
C      1  0.4406340000000  0.4215360000000  0.6511740000000 1.0
C      1  0.4832170000000  0.5289560000000  0.4279570000000 1.0
C      1  0.4941920000000  0.4626260000000  0.4587970000000 1.0
C      1  0.4645270000000  0.4609230000000  0.5541640000000 1.0
C      1  0.4465280000000  0.4312530000000  0.6272270000000 1.0
C      1  0.4839180000000  0.4809260000000  0.5513580000000 1.0
C      1  0.5810000000000  0.5763930000000  0.4601750000000 1.0
C      1  0.4748640000000  0.5472700000000  0.4480320000000 1.0
C      1  0.5552030000000  0.5199340000000  0.5022200000000 1.0
C      1  0.4348370000000  0.4119780000000  0.6747260000000 1.0
C      1  0.5102000000000  0.5221160000000  0.5282670000000 1.0
C      1  0.4637150000000  0.5390000000000  0.4727240000000 1.0
END
