TITL C-3866671-3735-108 30.3452225483934 125000 -1094.68934645332 0 0 177 (C1) n - 1
REM
REM in /home/nfs/bkarasulu/CARBON/AIRSS/Generating-Clusters/LCBOP/Only-C1/SD-CG/HFTN-CG/FIRE-CG
REM
REM
REM
REM
REM
REM ./C.cell (11c1c37f851c82e70ff6c80c92926a4b)
REM AIRSS Version 0.9.1 bugfix July 2018 build 013d7b7c2542+ Fri, 06 Jul 2018 19:26:36 +0100
REM compiler GCC version 9.2.1 20190827 (Red Hat 9.2.1-1)
REM options -cpp -mtune=generic -march=x86-64 -g -O0 -fpre-include=/usr/include/finclude/math-vector-fortran.h
REM seed 237504852 -1578710083 -1818674689 1622296208 1220644046 -1294922242 2049811023 -191599533 -724032699 -1396356294 -1499175794 -1343707986 2128777746 -1033036431 -2001602161 885542806 -1292159430 -1568607469 -703584750 1210879119 239563329 -831657004 -1349669212 -1279425953 -747240981 -658217136 375234920 -1973688268 1741625274 1231227439 711739302 -949886467 1291420293
REM
CELL 1.54180   50.00000   50.00000   50.00000   90.00000   90.00000   90.00000
LATT -1
SFAC C  
C      1  0.5236130000000  0.5383220000000  0.5485580000000 1.0
C      1  0.5618160000000  0.4000020000000  0.5133390000000 1.0
C      1  0.5029320000000  0.5188190000000  0.5059410000000 1.0
C      1  0.4294210000000  0.4720020000000  0.4005920000000 1.0
C      1  0.5058330000000  0.4208500000000  0.4349600000000 1.0
C      1  0.5255950000000  0.4651220000000  0.6081680000000 1.0
C      1  0.4842080000000  0.4557720000000  0.5368410000000 1.0
C      1  0.4802200000000  0.5896650000000  0.4416890000000 1.0
C      1  0.5068350000000  0.5182220000000  0.5583010000000 1.0
C      1  0.4740740000000  0.4495750000000  0.4644340000000 1.0
C      1  0.4547650000000  0.5317060000000  0.5619180000000 1.0
C      1  0.5389470000000  0.5628220000000  0.5957170000000 1.0
C      1  0.3771490000000  0.5782930000000  0.5209850000000 1.0
C      1  0.5436300000000  0.4160890000000  0.4696920000000 1.0
C      1  0.4426990000000  0.5574200000000  0.4251890000000 1.0
C      1  0.3445490000000  0.5573760000000  0.5818310000000 1.0
C      1  0.5361950000000  0.5118490000000  0.3597250000000 1.0
C      1  0.3950130000000  0.4460080000000  0.5417630000000 1.0
C      1  0.4565470000000  0.5285060000000  0.4869360000000 1.0
C      1  0.5308200000000  0.5153310000000  0.5082440000000 1.0
C      1  0.5675770000000  0.4932740000000  0.4902380000000 1.0
C      1  0.5261080000000  0.6051720000000  0.5739340000000 1.0
C      1  0.4133500000000  0.4927020000000  0.4143480000000 1.0
C      1  0.5942070000000  0.4370280000000  0.4946700000000 1.0
C      1  0.4139650000000  0.5342720000000  0.4689670000000 1.0
C      1  0.4548980000000  0.4762000000000  0.6028060000000 1.0
C      1  0.5622700000000  0.5419410000000  0.4501040000000 1.0
C      1  0.5085530000000  0.5826770000000  0.4380300000000 1.0
C      1  0.4757760000000  0.4652100000000  0.3849870000000 1.0
C      1  0.3665500000000  0.4930230000000  0.5259930000000 1.0
C      1  0.4060780000000  0.5132950000000  0.5410520000000 1.0
C      1  0.4344970000000  0.4318720000000  0.4996870000000 1.0
C      1  0.4557560000000  0.5368080000000  0.4402840000000 1.0
C      1  0.5775590000000  0.4890130000000  0.5165690000000 1.0
C      1  0.4643090000000  0.4188610000000  0.3942490000000 1.0
C      1  0.5462690000000  0.5109750000000  0.4853500000000 1.0
C      1  0.6077330000000  0.5332480000000  0.4826590000000 1.0
C      1  0.4645750000000  0.5875360000000  0.5638990000000 1.0
C      1  0.4401370000000  0.6007740000000  0.5659420000000 1.0
C      1  0.4272310000000  0.5189110000000  0.5209600000000 1.0
C      1  0.5795540000000  0.4614500000000  0.5595030000000 1.0
C      1  0.4791430000000  0.5180960000000  0.5590010000000 1.0
C      1  0.6185430000000  0.4442030000000  0.5071070000000 1.0
C      1  0.5021360000000  0.3810120000000  0.4654400000000 1.0
C      1  0.5540410000000  0.4701480000000  0.4078750000000 1.0
C      1  0.4279340000000  0.4592000000000  0.5080800000000 1.0
C      1  0.4580950000000  0.4222590000000  0.5126360000000 1.0
C      1  0.5422240000000  0.4617880000000  0.5856230000000 1.0
C      1  0.4524520000000  0.4238890000000  0.5614290000000 1.0
C      1  0.3829780000000  0.4791680000000  0.5076050000000 1.0
C      1  0.5018260000000  0.5796940000000  0.5332060000000 1.0
C      1  0.5058690000000  0.3923110000000  0.4387990000000 1.0
C      1  0.5885990000000  0.5551060000000  0.5372630000000 1.0
C      1  0.5573580000000  0.5173060000000  0.3747090000000 1.0
C      1  0.4989950000000  0.5050620000000  0.6122870000000 1.0
C      1  0.5892640000000  0.4524730000000  0.4719100000000 1.0
C      1  0.5771910000000  0.4370270000000  0.4323240000000 1.0
C      1  0.4707260000000  0.5775010000000  0.3935950000000 1.0
C      1  0.4531300000000  0.5430680000000  0.5877840000000 1.0
C      1  0.6030360000000  0.5317060000000  0.3749440000000 1.0
C      1  0.4420950000000  0.5322570000000  0.4643490000000 1.0
C      1  0.4060230000000  0.4366580000000  0.5641410000000 1.0
C      1  0.5280740000000  0.4682470000000  0.5613430000000 1.0
C      1  0.4576320000000  0.4797830000000  0.4006680000000 1.0
C      1  0.5848060000000  0.5113160000000  0.4144100000000 1.0
C      1  0.4637240000000  0.4926800000000  0.4254120000000 1.0
C      1  0.5832370000000  0.5275770000000  0.4379850000000 1.0
C      1  0.4181030000000  0.4863370000000  0.4423190000000 1.0
C      1  0.4008520000000  0.5466520000000  0.4470210000000 1.0
C      1  0.5368770000000  0.3998170000000  0.5660810000000 1.0
C      1  0.4465300000000  0.4840080000000  0.4470050000000 1.0
C      1  0.4447270000000  0.4066190000000  0.4371120000000 1.0
C      1  0.5420460000000  0.5285190000000  0.5300410000000 1.0
C      1  0.5254680000000  0.3744760000000  0.4812790000000 1.0
C      1  0.6327390000000  0.4671270000000  0.5057030000000 1.0
C      1  0.4742010000000  0.5779290000000  0.5387630000000 1.0
C      1  0.5233120000000  0.5477670000000  0.6115570000000 1.0
C      1  0.5199160000000  0.4941740000000  0.5592500000000 1.0
C      1  0.5072940000000  0.4698630000000  0.4935950000000 1.0
C      1  0.5893360000000  0.5564570000000  0.4887320000000 1.0
C      1  0.5116580000000  0.5978450000000  0.5128090000000 1.0
C      1  0.4007820000000  0.4759890000000  0.4622750000000 1.0
C      1  0.4560210000000  0.3957240000000  0.4592640000000 1.0
C      1  0.5208690000000  0.5753630000000  0.4622380000000 1.0
C      1  0.4813280000000  0.5011870000000  0.5145740000000 1.0
C      1  0.5293790000000  0.4354630000000  0.4281690000000 1.0
C      1  0.5219020000000  0.5122560000000  0.4390430000000 1.0
C      1  0.5307800000000  0.4639570000000  0.4228700000000 1.0
C      1  0.5723250000000  0.5627070000000  0.4666610000000 1.0
C      1  0.5062350000000  0.5469880000000  0.4043830000000 1.0
C      1  0.4637000000000  0.4354650000000  0.5377350000000 1.0
C      1  0.5201050000000  0.5654270000000  0.5504960000000 1.0
C      1  0.5260430000000  0.4927350000000  0.6174720000000 1.0
C      1  0.4161330000000  0.4277610000000  0.4779590000000 1.0
C      1  0.5529010000000  0.4423260000000  0.5233200000000 1.0
C      1  0.6046860000000  0.5327090000000  0.5430410000000 1.0
C      1  0.5864260000000  0.4853770000000  0.5432760000000 1.0
C      1  0.4744160000000  0.5185910000000  0.4286900000000 1.0
C      1  0.5708340000000  0.4267390000000  0.5062220000000 1.0
C      1  0.4896570000000  0.4741950000000  0.5155210000000 1.0
C      1  0.4865910000000  0.5564530000000  0.3859500000000 1.0
C      1  0.5182000000000  0.5498880000000  0.4734060000000 1.0
C      1  0.5355350000000  0.6182360000000  0.5499660000000 1.0
C      1  0.4518160000000  0.5056910000000  0.5061660000000 1.0
C      1  0.4809730000000  0.4090360000000  0.5013540000000 1.0
C      1  0.5220220000000  0.4834930000000  0.4424330000000 1.0
C      1  0.4993720000000  0.4555210000000  0.5997430000000 1.0
C      1  0.5029840000000  0.4345930000000  0.5778990000000 1.0
C      1  0.4608620000000  0.5795830000000  0.4206100000000 1.0
C      1  0.3740200000000  0.6329420000000  0.5589370000000 1.0
C      1  0.4258050000000  0.4439270000000  0.4067510000000 1.0
C      1  0.5372850000000  0.5281640000000  0.4606190000000 1.0
C      1  0.5740830000000  0.4938270000000  0.5990630000000 1.0
C      1  0.3588580000000  0.5710190000000  0.5648510000000 1.0
C      1  0.4812230000000  0.5826690000000  0.5875150000000 1.0
C      1  0.4777860000000  0.3916250000000  0.4778060000000 1.0
C      1  0.5957310000000  0.5095830000000  0.5569570000000 1.0
C      1  0.6249550000000  0.5200550000000  0.5018030000000 1.0
C      1  0.6525740000000  0.5404080000000  0.5367260000000 1.0
C      1  0.5193630000000  0.5694060000000  0.4157560000000 1.0
C      1  0.4151990000000  0.5462140000000  0.4218070000000 1.0
C      1  0.4445160000000  0.4785050000000  0.4950390000000 1.0
C      1  0.5016350000000  0.6033950000000  0.5897600000000 1.0
C      1  0.5077740000000  0.4221890000000  0.5049410000000 1.0
C      1  0.4879310000000  0.3900680000000  0.5764760000000 1.0
C      1  0.4906020000000  0.6378920000000  0.4966270000000 1.0
C      1  0.5016830000000  0.5248710000000  0.4224380000000 1.0
C      1  0.4824850000000  0.4800840000000  0.6047480000000 1.0
C      1  0.4631560000000  0.3993660000000  0.5706840000000 1.0
C      1  0.3932300000000  0.4928920000000  0.4848160000000 1.0
C      1  0.5382150000000  0.6061380000000  0.5232100000000 1.0
C      1  0.4428620000000  0.4214480000000  0.4128310000000 1.0
C      1  0.4598450000000  0.5596880000000  0.5225820000000 1.0
C      1  0.5818330000000  0.5201890000000  0.3878930000000 1.0
C      1  0.5108830000000  0.4065750000000  0.5769340000000 1.0
C      1  0.4561720000000  0.4707060000000  0.4696590000000 1.0
C      1  0.4967300000000  0.4341420000000  0.4590490000000 1.0
C      1  0.4433150000000  0.5405410000000  0.5367280000000 1.0
C      1  0.5758020000000  0.4754130000000  0.4707840000000 1.0
C      1  0.5240620000000  0.4350950000000  0.5258630000000 1.0
C      1  0.4017140000000  0.4611800000000  0.5193100000000 1.0
C      1  0.4055920000000  0.5182510000000  0.4904720000000 1.0
C      1  0.4014670000000  0.4472550000000  0.4654050000000 1.0
C      1  0.6285210000000  0.5313980000000  0.5276290000000 1.0
C      1  0.5097000000000  0.4475060000000  0.5506780000000 1.0
C      1  0.5527700000000  0.5029200000000  0.6161500000000 1.0
C      1  0.3796420000000  0.5087570000000  0.5437810000000 1.0
C      1  0.4146980000000  0.6076630000000  0.5633950000000 1.0
C      1  0.6336430000000  0.4931970000000  0.4994320000000 1.0
C      1  0.4784810000000  0.4384970000000  0.3822500000000 1.0
C      1  0.5527990000000  0.4260070000000  0.4435630000000 1.0
C      1  0.5692460000000  0.4688210000000  0.5854280000000 1.0
C      1  0.4317440000000  0.4378150000000  0.5750810000000 1.0
C      1  0.4709870000000  0.5504430000000  0.4978580000000 1.0
C      1  0.4975550000000  0.5352820000000  0.6094710000000 1.0
C      1  0.6049660000000  0.5199710000000  0.4567840000000 1.0
C      1  0.5164780000000  0.4752810000000  0.4689760000000 1.0
C      1  0.5176360000000  0.4276490000000  0.4785050000000 1.0
C      1  0.4794620000000  0.5999700000000  0.4694940000000 1.0
C      1  0.4941300000000  0.6105810000000  0.4927440000000 1.0
C      1  0.5335330000000  0.5774720000000  0.5724320000000 1.0
C      1  0.4770770000000  0.5548810000000  0.5990140000000 1.0
C      1  0.4378990000000  0.4578450000000  0.5936120000000 1.0
C      1  0.4979370000000  0.5434030000000  0.4924180000000 1.0
C      1  0.5153930000000  0.5056610000000  0.3452850000000 1.0
C      1  0.3744360000000  0.5859860000000  0.5471060000000 1.0
C      1  0.5593770000000  0.4070260000000  0.5497890000000 1.0
C      1  0.5796850000000  0.4626970000000  0.4187400000000 1.0
C      1  0.5967110000000  0.4853450000000  0.4229020000000 1.0
C      1  0.5664610000000  0.4369420000000  0.5489180000000 1.0
C      1  0.3876300000000  0.6093300000000  0.5566090000000 1.0
C      1  0.5805380000000  0.5687620000000  0.5138170000000 1.0
C      1  0.6136690000000  0.4942610000000  0.4452560000000 1.0
C      1  0.5616360000000  0.5907120000000  0.5157230000000 1.0
C      1  0.5915040000000  0.5106190000000  0.5849010000000 1.0
C      1  0.5472630000000  0.3922410000000  0.4884420000000 1.0
C      1  0.4115250000000  0.5207630000000  0.4079940000000 1.0
END
