TITL C-3866673-4222-32 -0.141975295455238 125000 -310.089372465538 0 0 53 (C1) n - 1
REM
REM in /home/nfs/bkarasulu/CARBON/AIRSS/Generating-Clusters/LCBOP/Only-C1/SD-CG/HFTN-CG/FIRE-CG
REM
REM
REM
REM
REM
REM ./C.cell (11c1c37f851c82e70ff6c80c92926a4b)
REM AIRSS Version 0.9.1 bugfix July 2018 build 013d7b7c2542+ Fri, 06 Jul 2018 19:26:36 +0100
REM compiler GCC version 9.2.1 20190827 (Red Hat 9.2.1-1)
REM options -cpp -mtune=generic -march=x86-64 -g -O0 -fpre-include=/usr/include/finclude/math-vector-fortran.h
REM seed 911928892 812565697 -455784479 -1118920078 -226688831 891338301 -1101962136 174468008 -1681064371 -1627601537 474194766 -976900340 1474603725 2044031382 -92753106 947547719 1280581979 -1112016866 589239760 -1199895365 -1301917311 250914125 -109537057 1652993398 -1464054972 -498074997 -1278531780 1347846180 710672282 1491553263 -43310235 -1099869542 -1959161784
REM
CELL 1.54180   50.00000   50.00000   50.00000   90.00000   90.00000   90.00000
LATT -1
SFAC C  
C      1  0.4058960000000  0.5232020000000  0.4673360000000 1.0
C      1  0.5662120000000  0.5423370000000  0.5168190000000 1.0
C      1  0.4545070000000  0.4474140000000  0.4643650000000 1.0
C      1  0.5627970000000  0.5168890000000  0.5289950000000 1.0
C      1  0.5535080000000  0.4288920000000  0.5270690000000 1.0
C      1  0.4973160000000  0.6142900000000  0.4765010000000 1.0
C      1  0.5283050000000  0.4494770000000  0.4911690000000 1.0
C      1  0.3873290000000  0.5010480000000  0.4619360000000 1.0
C      1  0.3955560000000  0.4797130000000  0.4448350000000 1.0
C      1  0.4370670000000  0.3845650000000  0.5175800000000 1.0
C      1  0.4089630000000  0.5709100000000  0.4509460000000 1.0
C      1  0.5422240000000  0.4719890000000  0.5842060000000 1.0
C      1  0.5509740000000  0.4485970000000  0.5074610000000 1.0
C      1  0.5900140000000  0.6044860000000  0.5131990000000 1.0
C      1  0.3965890000000  0.5461710000000  0.4519150000000 1.0
C      1  0.5518650000000  0.5666970000000  0.5543250000000 1.0
C      1  0.5714870000000  0.4679650000000  0.5041250000000 1.0
C      1  0.5435290000000  0.6036140000000  0.4996870000000 1.0
C      1  0.4727560000000  0.6122150000000  0.4667420000000 1.0
C      1  0.3925720000000  0.4850320000000  0.4170380000000 1.0
C      1  0.4268500000000  0.5903130000000  0.4533960000000 1.0
C      1  0.4080880000000  0.4569600000000  0.4546430000000 1.0
C      1  0.3844680000000  0.5062340000000  0.4022660000000 1.0
C      1  0.5480070000000  0.4938930000000  0.5704700000000 1.0
C      1  0.4804690000000  0.4504090000000  0.4687720000000 1.0
C      1  0.4572720000000  0.3766350000000  0.5328380000000 1.0
C      1  0.5649650000000  0.5921430000000  0.5134480000000 1.0
C      1  0.5066590000000  0.3819500000000  0.5494340000000 1.0
C      1  0.4239560000000  0.3992140000000  0.4997570000000 1.0
C      1  0.5612670000000  0.5681070000000  0.5276060000000 1.0
C      1  0.5686290000000  0.4932510000000  0.5155850000000 1.0
C      1  0.3629840000000  0.5153350000000  0.4537420000000 1.0
C      1  0.4202690000000  0.4185970000000  0.4820180000000 1.0
C      1  0.6379990000000  0.6269730000000  0.5134130000000 1.0
C      1  0.5943360000000  0.4616300000000  0.4893780000000 1.0
C      1  0.5052570000000  0.4507340000000  0.4781620000000 1.0
C      1  0.3751850000000  0.5306280000000  0.4099370000000 1.0
C      1  0.6155710000000  0.4552800000000  0.4756700000000 1.0
C      1  0.5534400000000  0.4089230000000  0.5465970000000 1.0
C      1  0.5528690000000  0.5171560000000  0.5560460000000 1.0
C      1  0.4814610000000  0.3759890000000  0.5437060000000 1.0
C      1  0.5358010000000  0.4511390000000  0.5984780000000 1.0
C      1  0.6616190000000  0.6380070000000  0.5135420000000 1.0
C      1  0.4275500000000  0.5221610000000  0.4837070000000 1.0
C      1  0.4487300000000  0.6042610000000  0.4588450000000 1.0
C      1  0.3724930000000  0.5378770000000  0.4372260000000 1.0
C      1  0.5760080000000  0.4048810000000  0.5625410000000 1.0
C      1  0.6139850000000  0.6157530000000  0.5132840000000 1.0
C      1  0.5211760000000  0.6111080000000  0.4876000000000 1.0
C      1  0.5306830000000  0.3931160000000  0.5502080000000 1.0
C      1  0.5481910000000  0.5429610000000  0.5669190000000 1.0
C      1  0.5968910000000  0.4020560000000  0.5778730000000 1.0
C      1  0.4274070000000  0.4408190000000  0.4666450000000 1.0
END
