TITL C-3866669-3764-573 -0.000442976608456675 125000 -975.978150473883 0 0 157 (C1) n - 1
REM
REM in /home/nfs/bkarasulu/CARBON/AIRSS/Generating-Clusters/LCBOP/Only-C1/SD-CG/FIRE-CG
REM
REM
REM
REM
REM
REM ./C.cell (11c1c37f851c82e70ff6c80c92926a4b)
REM AIRSS Version 0.9.1 bugfix July 2018 build 013d7b7c2542+ Fri, 06 Jul 2018 19:26:36 +0100
REM compiler GCC version 9.2.1 20190827 (Red Hat 9.2.1-1)
REM options -cpp -mtune=generic -march=x86-64 -g -O0 -fpre-include=/usr/include/finclude/math-vector-fortran.h
REM seed 2073660141 -1871873141 191930963 1310754713 -2126529045 1852560637 1836167612 1546102790 1528838915 1199086084 1731388356 -4872435 1089247374 1566306458 -101661357 -439790401 -690209365 -849421380 -703650943 -1160456824 1316430415 -168931827 -1759555692 1711019042 1863332888 1032238077 -2126810274 1997875349 -1900514971 24079625 2136696087 29855323 -1322092341
REM
CELL 1.54180   50.00000   50.00000   50.00000   90.00000   90.00000   90.00000
LATT -1
SFAC C  
C      1  0.5878190000000  0.5800940000000  0.5224150000000 1.0
C      1  0.4874900000000  0.5824550000000  0.4706100000000 1.0
C      1  0.4093460000000  0.3762690000000  0.4482920000000 1.0
C      1  0.5635220000000  0.5855080000000  0.4792980000000 1.0
C      1  0.4485950000000  0.3798130000000  0.5142190000000 1.0
C      1  0.5107030000000  0.5104150000000  0.5651430000000 1.0
C      1  0.5598630000000  0.5329090000000  0.5116630000000 1.0
C      1  0.4258570000000  0.3948230000000  0.4561790000000 1.0
C      1  0.4614300000000  0.5123400000000  0.5482330000000 1.0
C      1  0.4403640000000  0.6118670000000  0.4697810000000 1.0
C      1  0.6019290000000  0.5266940000000  0.4907940000000 1.0
C      1  0.6002280000000  0.5346400000000  0.5389000000000 1.0
C      1  0.4873880000000  0.4325770000000  0.4914090000000 1.0
C      1  0.4543020000000  0.5267040000000  0.4274120000000 1.0
C      1  0.5598610000000  0.4848590000000  0.3819880000000 1.0
C      1  0.4384050000000  0.4593970000000  0.5627420000000 1.0
C      1  0.5412670000000  0.4476650000000  0.4642550000000 1.0
C      1  0.5861330000000  0.4702460000000  0.4446230000000 1.0
C      1  0.4127010000000  0.5353540000000  0.5789710000000 1.0
C      1  0.4475680000000  0.6121660000000  0.4972160000000 1.0
C      1  0.4869050000000  0.5933390000000  0.4441480000000 1.0
C      1  0.3952780000000  0.4622680000000  0.5022040000000 1.0
C      1  0.4864690000000  0.4467070000000  0.5556300000000 1.0
C      1  0.5907470000000  0.4771640000000  0.4179740000000 1.0
C      1  0.5738290000000  0.4211910000000  0.5378120000000 1.0
C      1  0.5312090000000  0.5200790000000  0.4674480000000 1.0
C      1  0.4772350000000  0.3816720000000  0.5192430000000 1.0
C      1  0.4386390000000  0.5920830000000  0.4497880000000 1.0
C      1  0.5768740000000  0.5405850000000  0.4902110000000 1.0
C      1  0.4432700000000  0.4143290000000  0.4656500000000 1.0
C      1  0.4560700000000  0.5722110000000  0.4111700000000 1.0
C      1  0.4972740000000  0.4274170000000  0.5375320000000 1.0
C      1  0.5675840000000  0.4636910000000  0.5979570000000 1.0
C      1  0.3751480000000  0.5136780000000  0.5183580000000 1.0
C      1  0.5977300000000  0.4244260000000  0.4951610000000 1.0
C      1  0.5161930000000  0.5862710000000  0.5681710000000 1.0
C      1  0.4924180000000  0.4269330000000  0.4642320000000 1.0
C      1  0.5175770000000  0.4362920000000  0.4520000000000 1.0
C      1  0.5642970000000  0.3963780000000  0.5289860000000 1.0
C      1  0.4271800000000  0.5677240000000  0.5111290000000 1.0
C      1  0.4769190000000  0.4866620000000  0.5092450000000 1.0
C      1  0.5406760000000  0.5457180000000  0.4599580000000 1.0
C      1  0.4431760000000  0.5108970000000  0.4769350000000 1.0
C      1  0.4328610000000  0.6052600000000  0.5771120000000 1.0
C      1  0.4449320000000  0.5866780000000  0.5633750000000 1.0
C      1  0.4707160000000  0.5129980000000  0.5202070000000 1.0
C      1  0.5651910000000  0.5895960000000  0.5076410000000 1.0
C      1  0.5084860000000  0.4825500000000  0.3957720000000 1.0
C      1  0.5862540000000  0.4830230000000  0.3910160000000 1.0
C      1  0.4509050000000  0.5252020000000  0.5011660000000 1.0
C      1  0.4545100000000  0.5494830000000  0.6039790000000 1.0
C      1  0.5607290000000  0.4112450000000  0.4260920000000 1.0
C      1  0.4625870000000  0.4638580000000  0.5173660000000 1.0
C      1  0.5406880000000  0.5894810000000  0.5225840000000 1.0
C      1  0.5313080000000  0.5463160000000  0.5927890000000 1.0
C      1  0.4392790000000  0.4279310000000  0.4905870000000 1.0
C      1  0.5025200000000  0.4610610000000  0.4134930000000 1.0
C      1  0.6011640000000  0.4629210000000  0.5604720000000 1.0
C      1  0.5332640000000  0.4958670000000  0.6062300000000 1.0
C      1  0.4710140000000  0.5656230000000  0.5255440000000 1.0
C      1  0.4131290000000  0.4613780000000  0.5472910000000 1.0
C      1  0.4842840000000  0.5296590000000  0.4677210000000 1.0
C      1  0.5765800000000  0.4220750000000  0.4473940000000 1.0
C      1  0.4715020000000  0.4860090000000  0.4440650000000 1.0
C      1  0.5597190000000  0.4815560000000  0.4896890000000 1.0
C      1  0.4290420000000  0.5963080000000  0.5118450000000 1.0
C      1  0.5148360000000  0.5870030000000  0.5103620000000 1.0
C      1  0.4811830000000  0.4033760000000  0.5386760000000 1.0
C      1  0.5355810000000  0.4145260000000  0.3838740000000 1.0
C      1  0.5058820000000  0.4386690000000  0.5121810000000 1.0
C      1  0.4342820000000  0.5277120000000  0.5969930000000 1.0
C      1  0.6276560000000  0.4906040000000  0.3572660000000 1.0
C      1  0.4456660000000  0.4700510000000  0.5897900000000 1.0
C      1  0.4616790000000  0.4431190000000  0.4981210000000 1.0
C      1  0.5189590000000  0.5200420000000  0.5402480000000 1.0
C      1  0.4977610000000  0.5262910000000  0.5227620000000 1.0
C      1  0.4890150000000  0.5031200000000  0.3939680000000 1.0
C      1  0.4086260000000  0.4902350000000  0.5459500000000 1.0
C      1  0.5334000000000  0.4846370000000  0.3835660000000 1.0
C      1  0.4829200000000  0.5025910000000  0.5671890000000 1.0
C      1  0.4253050000000  0.5652330000000  0.4471090000000 1.0
C      1  0.5091470000000  0.5661620000000  0.5892180000000 1.0
C      1  0.4224730000000  0.4227000000000  0.5136490000000 1.0
C      1  0.5397160000000  0.4692510000000  0.6007820000000 1.0
C      1  0.5874080000000  0.4791770000000  0.4915880000000 1.0
C      1  0.4959770000000  0.5972630000000  0.5504370000000 1.0
C      1  0.4619370000000  0.5732520000000  0.3842530000000 1.0
C      1  0.4046800000000  0.5517300000000  0.4611850000000 1.0
C      1  0.5575740000000  0.5519450000000  0.5845760000000 1.0
C      1  0.5513040000000  0.5021660000000  0.4730100000000 1.0
C      1  0.5445780000000  0.5228260000000  0.5306820000000 1.0
C      1  0.4745260000000  0.5049870000000  0.5948510000000 1.0
C      1  0.5917330000000  0.4147180000000  0.4703720000000 1.0
C      1  0.4105960000000  0.5547520000000  0.5310270000000 1.0
C      1  0.6101780000000  0.5108310000000  0.4681960000000 1.0
C      1  0.5865210000000  0.5603030000000  0.5433340000000 1.0
C      1  0.5417690000000  0.4605210000000  0.4892390000000 1.0
C      1  0.5355790000000  0.6103280000000  0.4429980000000 1.0
C      1  0.4535310000000  0.4072290000000  0.5492720000000 1.0
C      1  0.4962050000000  0.5996460000000  0.4919340000000 1.0
C      1  0.4460620000000  0.4995560000000  0.5976290000000 1.0
C      1  0.5640150000000  0.5658070000000  0.5610020000000 1.0
C      1  0.4667750000000  0.4224930000000  0.4505850000000 1.0
C      1  0.3901020000000  0.5333480000000  0.4748330000000 1.0
C      1  0.5258270000000  0.3674660000000  0.5094680000000 1.0
C      1  0.5376270000000  0.4308220000000  0.5725330000000 1.0
C      1  0.4623280000000  0.4404380000000  0.4293770000000 1.0
C      1  0.5015070000000  0.4868160000000  0.4945230000000 1.0
C      1  0.4960750000000  0.5764250000000  0.5292440000000 1.0
C      1  0.5222440000000  0.4497610000000  0.5880780000000 1.0
C      1  0.5488110000000  0.3780800000000  0.5175820000000 1.0
C      1  0.4927410000000  0.5239310000000  0.6061710000000 1.0
C      1  0.4564100000000  0.5651650000000  0.5500040000000 1.0
C      1  0.3906090000000  0.5118820000000  0.5419210000000 1.0
C      1  0.4681860000000  0.5737280000000  0.3589580000000 1.0
C      1  0.5419500000000  0.5829380000000  0.5517960000000 1.0
C      1  0.5104390000000  0.6055270000000  0.4351780000000 1.0
C      1  0.4412930000000  0.5517770000000  0.4260240000000 1.0
C      1  0.5188450000000  0.4390690000000  0.4231790000000 1.0
C      1  0.4705300000000  0.4564640000000  0.5991020000000 1.0
C      1  0.4686090000000  0.5168690000000  0.4047110000000 1.0
C      1  0.3841900000000  0.5108200000000  0.4917150000000 1.0
C      1  0.4616820000000  0.5917640000000  0.4313860000000 1.0
C      1  0.4559980000000  0.5393500000000  0.5590010000000 1.0
C      1  0.6023450000000  0.4615460000000  0.5322360000000 1.0
C      1  0.4824730000000  0.6188460000000  0.5356700000000 1.0
C      1  0.5803580000000  0.4519440000000  0.5758180000000 1.0
C      1  0.4617550000000  0.4573440000000  0.5454480000000 1.0
C      1  0.5202840000000  0.5186230000000  0.5933440000000 1.0
C      1  0.5300260000000  0.4078710000000  0.3320370000000 1.0
C      1  0.5548740000000  0.6043410000000  0.4605090000000 1.0
C      1  0.5670600000000  0.4491070000000  0.4506510000000 1.0
C      1  0.5928390000000  0.4357050000000  0.5211290000000 1.0
C      1  0.5056600000000  0.5119180000000  0.4768200000000 1.0
C      1  0.6007890000000  0.4852510000000  0.5162050000000 1.0
C      1  0.5178720000000  0.4636560000000  0.5029480000000 1.0
C      1  0.4335840000000  0.4008780000000  0.5288450000000 1.0
C      1  0.4751600000000  0.6151970000000  0.5068390000000 1.0
C      1  0.4760560000000  0.5568840000000  0.4777540000000 1.0
C      1  0.4773020000000  0.4641020000000  0.4272100000000 1.0
C      1  0.4841950000000  0.5521930000000  0.6019640000000 1.0
C      1  0.6076230000000  0.4869270000000  0.3735250000000 1.0
C      1  0.4236800000000  0.4909500000000  0.4756630000000 1.0
C      1  0.4075470000000  0.4462730000000  0.5228670000000 1.0
C      1  0.6055830000000  0.5146380000000  0.5180870000000 1.0
C      1  0.4622080000000  0.5136490000000  0.4535650000000 1.0
C      1  0.5382640000000  0.4214730000000  0.4107680000000 1.0
C      1  0.4992030000000  0.3680430000000  0.5092240000000 1.0
C      1  0.5640570000000  0.4324020000000  0.5621580000000 1.0
C      1  0.5327900000000  0.4108570000000  0.3577870000000 1.0
C      1  0.4019830000000  0.5368150000000  0.5519980000000 1.0
C      1  0.4546990000000  0.5553010000000  0.5017210000000 1.0
C      1  0.4350730000000  0.5002710000000  0.5478380000000 1.0
C      1  0.5635130000000  0.5579170000000  0.4719680000000 1.0
C      1  0.3987070000000  0.4862680000000  0.4873240000000 1.0
C      1  0.5994310000000  0.4842670000000  0.4659180000000 1.0
C      1  0.4938340000000  0.4506580000000  0.5829890000000 1.0
END
