TITL C-3866675-3766-567 0.357903744029631 125000 -160.284195209116 0 0 29 (C1) n - 1
REM
REM in /home/nfs/bkarasulu/CARBON/AIRSS/Generating-Clusters/LCBOP/Only-C1/SD-CG/FIRE-CG
REM
REM
REM
REM
REM
REM ./C.cell (11c1c37f851c82e70ff6c80c92926a4b)
REM AIRSS Version 0.9.1 bugfix July 2018 build 013d7b7c2542+ Fri, 06 Jul 2018 19:26:36 +0100
REM compiler GCC version 9.2.1 20190827 (Red Hat 9.2.1-1)
REM options -cpp -mtune=generic -march=x86-64 -g -O0 -fpre-include=/usr/include/finclude/math-vector-fortran.h
REM seed -676608192 934894757 1000139420 -1234490011 783199950 1828236256 341365057 672200401 -1880952466 -197694641 1783177789 -1664211261 1902183939 1675660778 -1103363604 -1987125399 1808634681 -627888371 3383069 -1041237747 1320282746 98127106 2089662258 1142166263 445439228 -1506833883 1119260631 -1712396107 433353392 816688562 -329376212 1056254651 -338109782
REM
CELL 1.54180   50.00000   50.00000   50.00000   90.00000   90.00000   90.00000
LATT -1
SFAC C  
C      1  0.4594700000000  0.5828410000000  0.4637970000000 1.0
C      1  0.5126060000000  0.4646560000000  0.4462080000000 1.0
C      1  0.5047350000000  0.5079390000000  0.5382760000000 1.0
C      1  0.5173590000000  0.4440920000000  0.4645450000000 1.0
C      1  0.4990840000000  0.4280230000000  0.5300020000000 1.0
C      1  0.4802180000000  0.4111530000000  0.5417860000000 1.0
C      1  0.5180380000000  0.4175550000000  0.5115570000000 1.0
C      1  0.5135530000000  0.5599190000000  0.5435790000000 1.0
C      1  0.4992510000000  0.4553300000000  0.5359030000000 1.0
C      1  0.5008520000000  0.4885800000000  0.4553150000000 1.0
C      1  0.4626150000000  0.3946840000000  0.5527790000000 1.0
C      1  0.4626920000000  0.5154450000000  0.4683880000000 1.0
C      1  0.4771640000000  0.5392510000000  0.4738670000000 1.0
C      1  0.5227610000000  0.5589080000000  0.4746190000000 1.0
C      1  0.5190330000000  0.4283850000000  0.4857970000000 1.0
C      1  0.5159780000000  0.5862770000000  0.5449450000000 1.0
C      1  0.5351470000000  0.3975630000000  0.5190160000000 1.0
C      1  0.5153560000000  0.5122470000000  0.4611550000000 1.0
C      1  0.4566120000000  0.5659500000000  0.5082350000000 1.0
C      1  0.5533250000000  0.6009030000000  0.4826690000000 1.0
C      1  0.5010150000000  0.4817220000000  0.5373070000000 1.0
C      1  0.5095460000000  0.5338640000000  0.5408940000000 1.0
C      1  0.5191780000000  0.4615810000000  0.4198370000000 1.0
C      1  0.5382370000000  0.5800460000000  0.4785550000000 1.0
C      1  0.5056830000000  0.5374400000000  0.4700680000000 1.0
C      1  0.5178340000000  0.6122750000000  0.5454350000000 1.0
C      1  0.4730440000000  0.4919040000000  0.4597830000000 1.0
C      1  0.4453350000000  0.3784220000000  0.5635760000000 1.0
C      1  0.4642760000000  0.5630440000000  0.4821070000000 1.0
END
