TITL C-3866670-4165-220 0.0378420379925444 125000 -230.659820579345 0 0 39 (C1) n - 1
REM
REM in /home/nfs/bkarasulu/CARBON/AIRSS/Generating-Clusters/LCBOP/Only-C1/SD-CG/HFTN-CG/FIRE-CG
REM
REM
REM
REM
REM
REM ./C.cell (11c1c37f851c82e70ff6c80c92926a4b)
REM AIRSS Version 0.9.1 bugfix July 2018 build 013d7b7c2542+ Fri, 06 Jul 2018 19:26:36 +0100
REM compiler GCC version 9.2.1 20190827 (Red Hat 9.2.1-1)
REM options -cpp -mtune=generic -march=x86-64 -g -O0 -fpre-include=/usr/include/finclude/math-vector-fortran.h
REM seed 400968145 -1990998404 -957669343 702046586 -818924746 554525922 2046522801 78995459 875988157 -1927375639 -516071263 255285902 -1519354205 127464099 1350118630 -1400572905 -816758108 -1977983275 -838085282 -1429771932 -1786073610 -1059591350 -1709719829 -1190921546 916689501 195659275 -1507718976 1374793422 941466588 972983640 -1621911926 -1234569558 253289659
REM
CELL 1.54180   50.00000   50.00000   50.00000   90.00000   90.00000   90.00000
LATT -1
SFAC C  
C      1  0.5164790000000  0.5343090000000  0.5222670000000 1.0
C      1  0.5146060000000  0.5475780000000  0.5452330000000 1.0
C      1  0.4451710000000  0.5508950000000  0.4427700000000 1.0
C      1  0.4456500000000  0.4739570000000  0.5950560000000 1.0
C      1  0.4981320000000  0.4307610000000  0.5269860000000 1.0
C      1  0.4885910000000  0.4778570000000  0.5322980000000 1.0
C      1  0.5096730000000  0.5127660000000  0.5058300000000 1.0
C      1  0.4102950000000  0.4451550000000  0.6211990000000 1.0
C      1  0.4624580000000  0.5022010000000  0.4968580000000 1.0
C      1  0.5353380000000  0.5460550000000  0.4602420000000 1.0
C      1  0.5447350000000  0.5224170000000  0.4724160000000 1.0
C      1  0.5068650000000  0.5291470000000  0.4234170000000 1.0
C      1  0.4737890000000  0.4802660000000  0.5559260000000 1.0
C      1  0.4802840000000  0.4917550000000  0.4220990000000 1.0
C      1  0.5211470000000  0.4799950000000  0.4708880000000 1.0
C      1  0.5706890000000  0.5067960000000  0.4355270000000 1.0
C      1  0.5349330000000  0.4615880000000  0.5289820000000 1.0
C      1  0.5824650000000  0.4943080000000  0.4825060000000 1.0
C      1  0.5191440000000  0.5491850000000  0.4388890000000 1.0
C      1  0.5072980000000  0.4564510000000  0.5295280000000 1.0
C      1  0.4883220000000  0.5353520000000  0.5867800000000 1.0
C      1  0.5592780000000  0.4678970000000  0.5201900000000 1.0
C      1  0.4735890000000  0.5135210000000  0.5906090000000 1.0
C      1  0.4641570000000  0.4890710000000  0.5807130000000 1.0
C      1  0.4278480000000  0.4594440000000  0.6082630000000 1.0
C      1  0.5690340000000  0.5099920000000  0.4635240000000 1.0
C      1  0.4625950000000  0.5181840000000  0.4737010000000 1.0
C      1  0.5075230000000  0.4820610000000  0.4231920000000 1.0
C      1  0.4794240000000  0.5199980000000  0.4283720000000 1.0
C      1  0.5235230000000  0.5058750000000  0.4159910000000 1.0
C      1  0.4863220000000  0.4975730000000  0.5117750000000 1.0
C      1  0.5155830000000  0.4691390000000  0.4469020000000 1.0
C      1  0.4620710000000  0.5301180000000  0.4481750000000 1.0
C      1  0.5515850000000  0.5057460000000  0.4165190000000 1.0
C      1  0.5040430000000  0.5483760000000  0.5696660000000 1.0
C      1  0.5771760000000  0.4789090000000  0.5037450000000 1.0
C      1  0.4162360000000  0.4799080000000  0.5137190000000 1.0
C      1  0.4383680000000  0.4907300000000  0.5052170000000 1.0
C      1  0.5255830000000  0.5046660000000  0.4840320000000 1.0
END
