TITL C-3866672-3872-19 78.6180180963682 125000 -649.454968938379 0 0 107 (C1) n - 1
REM
REM in /home/nfs/bkarasulu/CARBON/AIRSS/Generating-Clusters/LCBOP/Only-C1/SD-CG/HFTN-CG/FIRE-CG
REM
REM
REM
REM
REM
REM ./C.cell (11c1c37f851c82e70ff6c80c92926a4b)
REM AIRSS Version 0.9.1 bugfix July 2018 build 013d7b7c2542+ Fri, 06 Jul 2018 19:26:36 +0100
REM compiler GCC version 9.2.1 20190827 (Red Hat 9.2.1-1)
REM options -cpp -mtune=generic -march=x86-64 -g -O0 -fpre-include=/usr/include/finclude/math-vector-fortran.h
REM seed 819934245 -521912465 -795536415 1063878721 -1363892154 -913847728 -758346 986570837 441788698 575810514 585217392 1865408012 1381551056 628480831 -627680308 -751896038 -1114299197 1212915173 394369907 -1091228058 -446018540 -2090751052 -835892346 780632732 51059106 439392875 1568794836 1270942180 817236126 -1272686921 -1703155364 -1736280560 -571593094
REM
CELL 1.54180   50.00000   50.00000   50.00000   90.00000   90.00000   90.00000
LATT -1
SFAC C  
C      1  0.5854350000000  0.4816230000000  0.4844230000000 1.0
C      1  0.5683380000000  0.5135140000000  0.5238930000000 1.0
C      1  0.4194140000000  0.5436390000000  0.5359020000000 1.0
C      1  0.5359970000000  0.4953710000000  0.6344040000000 1.0
C      1  0.4201460000000  0.4232430000000  0.5569380000000 1.0
C      1  0.4670000000000  0.5376280000000  0.5254440000000 1.0
C      1  0.4099580000000  0.4759070000000  0.5718400000000 1.0
C      1  0.5164110000000  0.4910350000000  0.5313810000000 1.0
C      1  0.5106630000000  0.4446740000000  0.5869990000000 1.0
C      1  0.5689080000000  0.4800690000000  0.5584730000000 1.0
C      1  0.5366780000000  0.5099040000000  0.5879070000000 1.0
C      1  0.4643970000000  0.5660180000000  0.5579320000000 1.0
C      1  0.5729630000000  0.5675120000000  0.4584800000000 1.0
C      1  0.4159230000000  0.5137430000000  0.4593890000000 1.0
C      1  0.5374170000000  0.5291600000000  0.4517830000000 1.0
C      1  0.5507030000000  0.4380760000000  0.4441810000000 1.0
C      1  0.4867920000000  0.5573290000000  0.4279390000000 1.0
C      1  0.5898530000000  0.4699780000000  0.5101720000000 1.0
C      1  0.4852810000000  0.5859640000000  0.5022300000000 1.0
C      1  0.5544260000000  0.5500300000000  0.4408950000000 1.0
C      1  0.5191720000000  0.5319640000000  0.5820970000000 1.0
C      1  0.5224950000000  0.5257730000000  0.4011750000000 1.0
C      1  0.4045670000000  0.4148470000000  0.5336800000000 1.0
C      1  0.4390110000000  0.4152480000000  0.5000940000000 1.0
C      1  0.4955390000000  0.4134660000000  0.5521580000000 1.0
C      1  0.4816410000000  0.5272610000000  0.4833210000000 1.0
C      1  0.4126560000000  0.4560040000000  0.5105110000000 1.0
C      1  0.5599670000000  0.4323150000000  0.5025610000000 1.0
C      1  0.4468020000000  0.4950710000000  0.4893870000000 1.0
C      1  0.5036770000000  0.5439590000000  0.4105890000000 1.0
C      1  0.5580310000000  0.5053930000000  0.5694040000000 1.0
C      1  0.4419720000000  0.5544610000000  0.4885350000000 1.0
C      1  0.4705690000000  0.4923430000000  0.3326260000000 1.0
C      1  0.4543240000000  0.4934650000000  0.5166270000000 1.0
C      1  0.4034220000000  0.4821660000000  0.5006780000000 1.0
C      1  0.4883520000000  0.5813650000000  0.4727140000000 1.0
C      1  0.4067450000000  0.5044280000000  0.5684070000000 1.0
C      1  0.4650550000000  0.5073150000000  0.4725990000000 1.0
C      1  0.4063110000000  0.5173880000000  0.5421920000000 1.0
C      1  0.5157410000000  0.5083150000000  0.4427310000000 1.0
C      1  0.5861580000000  0.4417410000000  0.5091570000000 1.0
C      1  0.4908690000000  0.4701010000000  0.4644580000000 1.0
C      1  0.5556790000000  0.5169120000000  0.4980170000000 1.0
C      1  0.5091660000000  0.5156970000000  0.5393220000000 1.0
C      1  0.4345220000000  0.5314850000000  0.4455620000000 1.0
C      1  0.5169380000000  0.5801590000000  0.4686860000000 1.0
C      1  0.5417450000000  0.4357030000000  0.5517370000000 1.0
C      1  0.4670620000000  0.5450290000000  0.4991060000000 1.0
C      1  0.5293510000000  0.5626920000000  0.4884960000000 1.0
C      1  0.5794740000000  0.4863670000000  0.5314370000000 1.0
C      1  0.5774540000000  0.5712430000000  0.5087450000000 1.0
C      1  0.4834670000000  0.4368720000000  0.5024290000000 1.0
C      1  0.4924590000000  0.5629110000000  0.5494610000000 1.0
C      1  0.5905220000000  0.4663940000000  0.4380180000000 1.0
C      1  0.4198750000000  0.4526890000000  0.5590000000000 1.0
C      1  0.5493800000000  0.4341940000000  0.4745550000000 1.0
C      1  0.4658100000000  0.4151290000000  0.5110420000000 1.0
C      1  0.4197960000000  0.4947940000000  0.4806430000000 1.0
C      1  0.5034650000000  0.4448450000000  0.4249190000000 1.0
C      1  0.4383570000000  0.5575830000000  0.5536630000000 1.0
C      1  0.4793780000000  0.4555070000000  0.5236970000000 1.0
C      1  0.4722960000000  0.5668910000000  0.4517560000000 1.0
C      1  0.5998610000000  0.4760870000000  0.4612290000000 1.0
C      1  0.5165000000000  0.4287690000000  0.5643230000000 1.0
C      1  0.5064260000000  0.5379150000000  0.5573500000000 1.0
C      1  0.5627790000000  0.5260930000000  0.5494020000000 1.0
C      1  0.5262270000000  0.4310810000000  0.4304480000000 1.0
C      1  0.5270280000000  0.4511120000000  0.4800740000000 1.0
C      1  0.4939260000000  0.4954540000000  0.4260840000000 1.0
C      1  0.4694040000000  0.5014160000000  0.3843810000000 1.0
C      1  0.4135260000000  0.4264680000000  0.5084110000000 1.0
C      1  0.4458170000000  0.5548030000000  0.4595570000000 1.0
C      1  0.4302500000000  0.4596960000000  0.5334730000000 1.0
C      1  0.5295140000000  0.5716280000000  0.5157840000000 1.0
C      1  0.4695270000000  0.4095040000000  0.5402670000000 1.0
C      1  0.5598750000000  0.5538480000000  0.5497770000000 1.0
C      1  0.4597050000000  0.5139010000000  0.5342240000000 1.0
C      1  0.4713210000000  0.5061840000000  0.4119170000000 1.0
C      1  0.5075710000000  0.5180340000000  0.4865220000000 1.0
C      1  0.5023550000000  0.5767630000000  0.5250360000000 1.0
C      1  0.5603350000000  0.4536060000000  0.5647480000000 1.0
C      1  0.5592470000000  0.4924970000000  0.4826500000000 1.0
C      1  0.5158560000000  0.4671860000000  0.6004020000000 1.0
C      1  0.5271390000000  0.4677890000000  0.5230220000000 1.0
C      1  0.5352470000000  0.4785250000000  0.4775250000000 1.0
C      1  0.5337370000000  0.5333840000000  0.4834250000000 1.0
C      1  0.3954640000000  0.5010940000000  0.5210060000000 1.0
C      1  0.5506430000000  0.4809340000000  0.4136320000000 1.0
C      1  0.5110450000000  0.4936580000000  0.4697240000000 1.0
C      1  0.5556810000000  0.5701860000000  0.5272560000000 1.0
C      1  0.5294160000000  0.4907550000000  0.6076590000000 1.0
C      1  0.5639470000000  0.4608240000000  0.4303020000000 1.0
C      1  0.4462110000000  0.4109190000000  0.5571800000000 1.0
C      1  0.4209900000000  0.5526460000000  0.5080170000000 1.0
C      1  0.5847830000000  0.5636930000000  0.4838080000000 1.0
C      1  0.4697440000000  0.4968170000000  0.3582950000000 1.0
C      1  0.5388820000000  0.5034570000000  0.4029120000000 1.0
C      1  0.5610090000000  0.5946650000000  0.4562080000000 1.0
C      1  0.4499990000000  0.5198330000000  0.4247110000000 1.0
C      1  0.5405650000000  0.4417500000000  0.5235670000000 1.0
C      1  0.4985930000000  0.4475210000000  0.4809900000000 1.0
C      1  0.5334740000000  0.5904740000000  0.4477910000000 1.0
C      1  0.5423150000000  0.4999630000000  0.6592670000000 1.0
C      1  0.4556280000000  0.4687120000000  0.5281530000000 1.0
C      1  0.4907430000000  0.4678300000000  0.4353170000000 1.0
C      1  0.4033920000000  0.5199370000000  0.5908630000000 1.0
C      1  0.5383280000000  0.5706890000000  0.4267150000000 1.0
END
