TITL C-3866671-3735-553 5.64493320193348 125000 -230.31268173333 0 0 40 (C1) n - 1
REM
REM in /home/nfs/bkarasulu/CARBON/AIRSS/Generating-Clusters/LCBOP/Only-C1/SD-CG/FIRE-CG
REM
REM
REM
REM
REM
REM ./C.cell (11c1c37f851c82e70ff6c80c92926a4b)
REM AIRSS Version 0.9.1 bugfix July 2018 build 013d7b7c2542+ Fri, 06 Jul 2018 19:26:36 +0100
REM compiler GCC version 9.2.1 20190827 (Red Hat 9.2.1-1)
REM options -cpp -mtune=generic -march=x86-64 -g -O0 -fpre-include=/usr/include/finclude/math-vector-fortran.h
REM seed 1657211049 265760177 -1349802622 751822557 -926850414 646126583 1752574319 1845009982 -2130646326 6967593 491922877 -750684862 1955684454 -686750497 -410191400 1733421579 -1816289211 -1431227084 -728869329 -249901141 1429934102 -1777393664 -30605083 689674377 -1318701824 1707111454 -177204174 1641480600 924247263 1763793052 -985986561 437734015 -1786949825
REM
CELL 1.54180   50.00000   50.00000   50.00000   90.00000   90.00000   90.00000
LATT -1
SFAC C  
C      1  0.5244250000000  0.4405820000000  0.4986640000000 1.0
C      1  0.5236150000000  0.4324600000000  0.5239060000000 1.0
C      1  0.4982870000000  0.5045800000000  0.5031820000000 1.0
C      1  0.4981480000000  0.4730970000000  0.4370790000000 1.0
C      1  0.3621160000000  0.4061250000000  0.4760810000000 1.0
C      1  0.4647810000000  0.4758600000000  0.5250290000000 1.0
C      1  0.5022270000000  0.6260720000000  0.3885790000000 1.0
C      1  0.4429550000000  0.4607130000000  0.5164260000000 1.0
C      1  0.4519230000000  0.5193670000000  0.5067230000000 1.0
C      1  0.5053030000000  0.5028540000000  0.4757270000000 1.0
C      1  0.4714640000000  0.5000020000000  0.5114950000000 1.0
C      1  0.5156920000000  0.4734200000000  0.5797940000000 1.0
C      1  0.4023190000000  0.4332250000000  0.4964170000000 1.0
C      1  0.5237150000000  0.4729140000000  0.6309260000000 1.0
C      1  0.5157960000000  0.4336610000000  0.5507630000000 1.0
C      1  0.5190020000000  0.4560910000000  0.4778460000000 1.0
C      1  0.5534470000000  0.5078890000000  0.6176860000000 1.0
C      1  0.5986000000000  0.6400170000000  0.3872260000000 1.0
C      1  0.5314740000000  0.4963530000000  0.5722700000000 1.0
C      1  0.5132230000000  0.4664440000000  0.6070030000000 1.0
C      1  0.5423220000000  0.4917690000000  0.6363190000000 1.0
C      1  0.5098110000000  0.5261470000000  0.4610190000000 1.0
C      1  0.4338330000000  0.5373400000000  0.5013580000000 1.0
C      1  0.5165690000000  0.5692430000000  0.4309510000000 1.0
C      1  0.5154730000000  0.4746180000000  0.4159240000000 1.0
C      1  0.5078250000000  0.4772990000000  0.4634710000000 1.0
C      1  0.5496290000000  0.6227080000000  0.3953030000000 1.0
C      1  0.5743090000000  0.6314410000000  0.3912250000000 1.0
C      1  0.5033360000000  0.4576650000000  0.5596850000000 1.0
C      1  0.5236770000000  0.6132980000000  0.3997540000000 1.0
C      1  0.5177780000000  0.5095490000000  0.5226020000000 1.0
C      1  0.5291230000000  0.5066690000000  0.5464110000000 1.0
C      1  0.5132590000000  0.5477710000000  0.4461220000000 1.0
C      1  0.5482750000000  0.5086310000000  0.5912850000000 1.0
C      1  0.4226070000000  0.4468940000000  0.5066030000000 1.0
C      1  0.4805190000000  0.4668870000000  0.5463550000000 1.0
C      1  0.5199020000000  0.5906830000000  0.4157580000000 1.0
C      1  0.3820510000000  0.4195620000000  0.4861650000000 1.0
C      1  0.5195940000000  0.4125280000000  0.5676520000000 1.0
C      1  0.4715980000000  0.4675760000000  0.4332190000000 1.0
END
