TITL C-3866675-3766-616 -80.82930450487 125000 -591.164423388476 0 0 100 (C1) n - 1
REM
REM in /home/nfs/bkarasulu/CARBON/AIRSS/Generating-Clusters/LCBOP/Only-C1/SD-CG/FIRE-CG
REM
REM
REM
REM
REM
REM ./C.cell (11c1c37f851c82e70ff6c80c92926a4b)
REM AIRSS Version 0.9.1 bugfix July 2018 build 013d7b7c2542+ Fri, 06 Jul 2018 19:26:36 +0100
REM compiler GCC version 9.2.1 20190827 (Red Hat 9.2.1-1)
REM options -cpp -mtune=generic -march=x86-64 -g -O0 -fpre-include=/usr/include/finclude/math-vector-fortran.h
REM seed -597126277 -1906396738 1418807405 1430811380 -1659829139 -592423344 682887336 1202532571 -754664022 1946587331 -1214915065 1669893178 -1698836360 374022394 -1062939744 512726386 -726516387 -623349073 -993901328 438868081 1690069528 -1036187433 -1623696481 -533840548 1286234978 -1475828828 -1761925565 -1007986749 287174329 -1705494475 327411655 722345655 -775900830
REM
CELL 1.54180   50.00000   50.00000   50.00000   90.00000   90.00000   90.00000
LATT -1
SFAC C  
C      1  0.5029710000000  0.6017560000000  0.5439610000000 1.0
C      1  0.5068540000000  0.5521210000000  0.4498290000000 1.0
C      1  0.4801270000000  0.5114620000000  0.5905080000000 1.0
C      1  0.4990290000000  0.5516240000000  0.4980950000000 1.0
C      1  0.5099590000000  0.5297260000000  0.5122680000000 1.0
C      1  0.5568430000000  0.5152750000000  0.5288640000000 1.0
C      1  0.5381500000000  0.4724720000000  0.4386510000000 1.0
C      1  0.4740500000000  0.3160930000000  0.4992300000000 1.0
C      1  0.5010540000000  0.4471660000000  0.4647510000000 1.0
C      1  0.4369030000000  0.4695180000000  0.5285430000000 1.0
C      1  0.5416530000000  0.4459700000000  0.5432380000000 1.0
C      1  0.4014900000000  0.5167890000000  0.5215690000000 1.0
C      1  0.5638930000000  0.5808910000000  0.4830890000000 1.0
C      1  0.5281040000000  0.4059770000000  0.5209890000000 1.0
C      1  0.4877250000000  0.3381120000000  0.5047420000000 1.0
C      1  0.5527700000000  0.4239220000000  0.4756500000000 1.0
C      1  0.4535020000000  0.5746320000000  0.4566650000000 1.0
C      1  0.5000700000000  0.4705970000000  0.6103160000000 1.0
C      1  0.5363730000000  0.5736650000000  0.4827400000000 1.0
C      1  0.4729980000000  0.4838550000000  0.4322220000000 1.0
C      1  0.5072340000000  0.4799720000000  0.6349850000000 1.0
C      1  0.5136980000000  0.5906810000000  0.5661760000000 1.0
C      1  0.4562600000000  0.4480340000000  0.4809020000000 1.0
C      1  0.5801000000000  0.4849130000000  0.4999640000000 1.0
C      1  0.5585890000000  0.5028860000000  0.5040760000000 1.0
C      1  0.4360880000000  0.4539590000000  0.4606250000000 1.0
C      1  0.4923170000000  0.4903130000000  0.4526830000000 1.0
C      1  0.5734050000000  0.5071060000000  0.5506380000000 1.0
C      1  0.5715030000000  0.4583420000000  0.4992260000000 1.0
C      1  0.5123970000000  0.5773780000000  0.5009560000000 1.0
C      1  0.5013920000000  0.3601370000000  0.5102470000000 1.0
C      1  0.4494420000000  0.4900100000000  0.5160650000000 1.0
C      1  0.5026820000000  0.5372850000000  0.4037450000000 1.0
C      1  0.4108630000000  0.5347910000000  0.5436430000000 1.0
C      1  0.5149170000000  0.3822530000000  0.5156730000000 1.0
C      1  0.4281200000000  0.4969270000000  0.4778100000000 1.0
C      1  0.4308040000000  0.4820300000000  0.4538440000000 1.0
C      1  0.4964260000000  0.6098530000000  0.4083480000000 1.0
C      1  0.4208200000000  0.5365740000000  0.5712350000000 1.0
C      1  0.4680190000000  0.5351180000000  0.5852420000000 1.0
C      1  0.4659290000000  0.5830810000000  0.5181620000000 1.0
C      1  0.4995870000000  0.4223640000000  0.5903210000000 1.0
C      1  0.5634200000000  0.4708480000000  0.4516970000000 1.0
C      1  0.4407550000000  0.5489250000000  0.4900480000000 1.0
C      1  0.5144230000000  0.4712510000000  0.4541760000000 1.0
C      1  0.5400460000000  0.4695450000000  0.5595230000000 1.0
C      1  0.5001180000000  0.5843290000000  0.4143740000000 1.0
C      1  0.5216630000000  0.5405550000000  0.5798590000000 1.0
C      1  0.5258970000000  0.4213730000000  0.5454070000000 1.0
C      1  0.4462570000000  0.5261370000000  0.4333060000000 1.0
C      1  0.4493240000000  0.5678990000000  0.5466840000000 1.0
C      1  0.4891680000000  0.5477250000000  0.4715160000000 1.0
C      1  0.5271170000000  0.5661840000000  0.5676350000000 1.0
C      1  0.5388690000000  0.5583250000000  0.5424010000000 1.0
C      1  0.4558020000000  0.4949480000000  0.4886230000000 1.0
C      1  0.4471860000000  0.5373620000000  0.5148500000000 1.0
C      1  0.5713410000000  0.5222410000000  0.4522930000000 1.0
C      1  0.4299380000000  0.5527640000000  0.5318590000000 1.0
C      1  0.4956440000000  0.4433500000000  0.6060920000000 1.0
C      1  0.4882860000000  0.6606160000000  0.3973470000000 1.0
C      1  0.4476720000000  0.4969720000000  0.4350120000000 1.0
C      1  0.4938360000000  0.5916360000000  0.5191780000000 1.0
C      1  0.5454170000000  0.5264700000000  0.4638470000000 1.0
C      1  0.5457360000000  0.4195170000000  0.5031460000000 1.0
C      1  0.4603660000000  0.2940720000000  0.4937130000000 1.0
C      1  0.4469060000000  0.2724160000000  0.4882840000000 1.0
C      1  0.5876240000000  0.5455640000000  0.4550300000000 1.0
C      1  0.4153680000000  0.5402170000000  0.4811570000000 1.0
C      1  0.4480210000000  0.5511250000000  0.5725540000000 1.0
C      1  0.5839980000000  0.5682900000000  0.4696090000000 1.0
C      1  0.4967210000000  0.4825820000000  0.5381980000000 1.0
C      1  0.5226140000000  0.5180390000000  0.5611170000000 1.0
C      1  0.5316380000000  0.5302470000000  0.5338740000000 1.0
C      1  0.4923370000000  0.6354440000000  0.4027880000000 1.0
C      1  0.5563220000000  0.4433310000000  0.5181390000000 1.0
C      1  0.4579570000000  0.5145960000000  0.5274260000000 1.0
C      1  0.5109640000000  0.4144820000000  0.5676780000000 1.0
C      1  0.4215710000000  0.4338280000000  0.4489870000000 1.0
C      1  0.4870930000000  0.4373370000000  0.4408720000000 1.0
C      1  0.4815930000000  0.5073510000000  0.5395610000000 1.0
C      1  0.5370480000000  0.4745980000000  0.4113910000000 1.0
C      1  0.5029530000000  0.5577890000000  0.4227100000000 1.0
C      1  0.5009200000000  0.5207260000000  0.3836980000000 1.0
C      1  0.5959490000000  0.5205310000000  0.5579320000000 1.0
C      1  0.4847280000000  0.4996130000000  0.4791770000000 1.0
C      1  0.5098770000000  0.5075500000000  0.4937110000000 1.0
C      1  0.4974790000000  0.4883500000000  0.5883230000000 1.0
C      1  0.5809360000000  0.4948550000000  0.4543480000000 1.0
C      1  0.5968440000000  0.4918730000000  0.4781020000000 1.0
C      1  0.5324990000000  0.5520980000000  0.4623720000000 1.0
C      1  0.4930580000000  0.4628570000000  0.5156400000000 1.0
C      1  0.5642190000000  0.4839110000000  0.5639110000000 1.0
C      1  0.5151250000000  0.4867500000000  0.5627800000000 1.0
C      1  0.4752790000000  0.4561510000000  0.4242630000000 1.0
C      1  0.4529590000000  0.5740830000000  0.4859430000000 1.0
C      1  0.5658550000000  0.4494500000000  0.4714080000000 1.0
C      1  0.5378470000000  0.5079200000000  0.4845900000000 1.0
C      1  0.4844430000000  0.4503210000000  0.4892160000000 1.0
C      1  0.4489350000000  0.5527680000000  0.4397860000000 1.0
C      1  0.4089290000000  0.5142830000000  0.4923540000000 1.0
END
