TITL C-3866669-3764-259 -369082.819403368 125000 -533.764975568141 0 0 89 (C1) n - 1
REM
REM in /home/nfs/bkarasulu/CARBON/AIRSS/Generating-Clusters/LCBOP/Only-C1/SD-CG/HFTN-CG/FIRE-CG
REM
REM
REM
REM
REM
REM ./C.cell (11c1c37f851c82e70ff6c80c92926a4b)
REM AIRSS Version 0.9.1 bugfix July 2018 build 013d7b7c2542+ Fri, 06 Jul 2018 19:26:36 +0100
REM compiler GCC version 9.2.1 20190827 (Red Hat 9.2.1-1)
REM options -cpp -mtune=generic -march=x86-64 -g -O0 -fpre-include=/usr/include/finclude/math-vector-fortran.h
REM seed -1472229315 -2044369507 1286717179 -430169699 -295869596 -1882290812 -844419660 773877125 -220808519 375650185 -1477121197 1439536439 2131448838 -1349400032 -1923930156 -1142856736 -486109325 -1729143153 741403064 1149626234 1733242962 217334996 761348579 -1378253328 -155720097 1473547532 1322792183 -1929860581 1249341342 695620922 -508697682 1774983783 -316781251
REM
CELL 1.54180   50.00000   50.00000   50.00000   90.00000   90.00000   90.00000
LATT -1
SFAC C  
C      1  0.4983440000000  0.4443870000000  0.4832170000000 1.0
C      1  0.5691760000000  0.5100590000000  0.4517940000000 1.0
C      1  0.5070020000000  0.4081200000000  0.5632090000000 1.0
C      1  0.5247200000000  0.5357720000000  0.4195670000000 1.0
C      1  0.4805630000000  0.5841740000000  0.4686880000000 1.0
C      1  0.4105000000000  0.4895700000000  0.5166180000000 1.0
C      1  0.4961940000000  0.5058380000000  0.3995240000000 1.0
C      1  0.4821020000000  0.5248070000000  0.5171720000000 1.0
C      1  0.4503960000000  0.4326790000000  0.5148350000000 1.0
C      1  0.4509680000000  0.5653450000000  0.5443480000000 1.0
C      1  0.4391170000000  0.4885250000000  0.5212240000000 1.0
C      1  0.5572760000000  0.4570420000000  0.5551100000000 1.0
C      1  0.4366990000000  0.4991070000000  0.4647420000000 1.0
C      1  0.5630780000000  0.5579180000000  0.4605920000000 1.0
C      1  0.5678660000000  0.5316650000000  0.4704700000000 1.0
C      1  0.5786990000000  0.4334490000000  0.5168490000000 1.0
C      1  0.3768710000000  0.4479750000000  0.5145500000000 1.0
C      1  0.4943540000000  0.4770470000000  0.5160220000000 1.0
C      1  0.4648980000000  0.4875100000000  0.5657540000000 1.0
C      1  0.4416500000000  0.5442460000000  0.4433720000000 1.0
C      1  0.5093930000000  0.4588000000000  0.5321170000000 1.0
C      1  0.4531590000000  0.5154880000000  0.5244450000000 1.0
C      1  0.5249480000000  0.4552720000000  0.4860250000000 1.0
C      1  0.6226900000000  0.4951440000000  0.5114680000000 1.0
C      1  0.4758580000000  0.5047420000000  0.4208940000000 1.0
C      1  0.4339590000000  0.5554690000000  0.4681610000000 1.0
C      1  0.5354140000000  0.5914570000000  0.4835860000000 1.0
C      1  0.5266780000000  0.5122560000000  0.5256400000000 1.0
C      1  0.4281550000000  0.4742310000000  0.4598250000000 1.0
C      1  0.4576630000000  0.5136500000000  0.4729450000000 1.0
C      1  0.4892660000000  0.5576120000000  0.4672610000000 1.0
C      1  0.5193970000000  0.5268390000000  0.4466010000000 1.0
C      1  0.5088720000000  0.5312260000000  0.3980750000000 1.0
C      1  0.5386410000000  0.4944530000000  0.5811830000000 1.0
C      1  0.5282860000000  0.5999300000000  0.5080780000000 1.0
C      1  0.4794220000000  0.4635440000000  0.4966690000000 1.0
C      1  0.4639340000000  0.4391600000000  0.4551030000000 1.0
C      1  0.4563270000000  0.5261960000000  0.4274140000000 1.0
C      1  0.5139030000000  0.4948170000000  0.5048910000000 1.0
C      1  0.4421050000000  0.4520520000000  0.4691590000000 1.0
C      1  0.5378380000000  0.5697980000000  0.4657180000000 1.0
C      1  0.5570990000000  0.4469790000000  0.5280030000000 1.0
C      1  0.4492380000000  0.4638660000000  0.5580480000000 1.0
C      1  0.4551290000000  0.5997400000000  0.5073560000000 1.0
C      1  0.6331620000000  0.4716010000000  0.5045090000000 1.0
C      1  0.4059830000000  0.5173760000000  0.5115000000000 1.0
C      1  0.4303130000000  0.5325500000000  0.5119530000000 1.0
C      1  0.3922350000000  0.4689040000000  0.5167570000000 1.0
C      1  0.5538940000000  0.4856320000000  0.5587620000000 1.0
C      1  0.5734130000000  0.5133820000000  0.5180450000000 1.0
C      1  0.5130820000000  0.6114610000000  0.5529510000000 1.0
C      1  0.4797560000000  0.4234920000000  0.4755120000000 1.0
C      1  0.4955780000000  0.5476300000000  0.5544510000000 1.0
C      1  0.4523480000000  0.4544220000000  0.4960050000000 1.0
C      1  0.5333100000000  0.5366380000000  0.5075770000000 1.0
C      1  0.4679500000000  0.4124480000000  0.5014550000000 1.0
C      1  0.5019470000000  0.5216220000000  0.5408650000000 1.0
C      1  0.4664320000000  0.5452110000000  0.5592230000000 1.0
C      1  0.5028620000000  0.4557710000000  0.5593890000000 1.0
C      1  0.6006650000000  0.5084930000000  0.5180260000000 1.0
C      1  0.5224890000000  0.4847670000000  0.4790500000000 1.0
C      1  0.4347820000000  0.5567520000000  0.4979370000000 1.0
C      1  0.5599140000000  0.4946170000000  0.4314930000000 1.0
C      1  0.5055740000000  0.5670630000000  0.5342820000000 1.0
C      1  0.5322490000000  0.4505070000000  0.5147700000000 1.0
C      1  0.4694960000000  0.6024960000000  0.4847820000000 1.0
C      1  0.4795630000000  0.4568670000000  0.4372820000000 1.0
C      1  0.4823580000000  0.3957090000000  0.5191700000000 1.0
C      1  0.4879810000000  0.4447610000000  0.4137710000000 1.0
C      1  0.5110110000000  0.4984120000000  0.4555390000000 1.0
C      1  0.4573610000000  0.5158830000000  0.5561570000000 1.0
C      1  0.4741760000000  0.5346830000000  0.4735830000000 1.0
C      1  0.4920340000000  0.4792020000000  0.5730250000000 1.0
C      1  0.5120820000000  0.4937750000000  0.5866540000000 1.0
C      1  0.5085430000000  0.5514340000000  0.5099660000000 1.0
C      1  0.4449230000000  0.5757520000000  0.5177720000000 1.0
C      1  0.5155830000000  0.5934450000000  0.5326250000000 1.0
C      1  0.5601900000000  0.5294000000000  0.4979730000000 1.0
C      1  0.4954380000000  0.3953000000000  0.5426220000000 1.0
C      1  0.5534700000000  0.5028930000000  0.5361450000000 1.0
C      1  0.5159270000000  0.5518730000000  0.4609310000000 1.0
C      1  0.4467200000000  0.4419430000000  0.5417180000000 1.0
C      1  0.5166720000000  0.4334540000000  0.5709970000000 1.0
C      1  0.6035210000000  0.4317830000000  0.5074880000000 1.0
C      1  0.5179760000000  0.4863080000000  0.4003090000000 1.0
C      1  0.5420680000000  0.4852990000000  0.4132570000000 1.0
C      1  0.6254930000000  0.4460540000000  0.5024920000000 1.0
C      1  0.5445070000000  0.4393110000000  0.5738230000000 1.0
C      1  0.4871240000000  0.4856660000000  0.4410880000000 1.0
END
