TITL C-3866674-3872-623 21737.2957837245 125000 -1021.01075171995 0 0 166 (C1) n - 1
REM
REM in /home/nfs/bkarasulu/CARBON/AIRSS/Generating-Clusters/LCBOP/Only-C1/SD-CG/FIRE-CG
REM
REM
REM
REM
REM
REM ./C.cell (11c1c37f851c82e70ff6c80c92926a4b)
REM AIRSS Version 0.9.1 bugfix July 2018 build 013d7b7c2542+ Fri, 06 Jul 2018 19:26:36 +0100
REM compiler GCC version 9.2.1 20190827 (Red Hat 9.2.1-1)
REM options -cpp -mtune=generic -march=x86-64 -g -O0 -fpre-include=/usr/include/finclude/math-vector-fortran.h
REM seed -113300537 -1443263277 1589213952 -571774668 1124168552 -39160638 1865496205 551150487 596712501 1520094448 -1833928623 -153354246 1927098396 -18209486 903347970 -1098569135 982569542 750703631 849202661 -1813973940 -578189942 1606610791 -1085452937 235270891 -373697085 914959879 -1293103432 -1761481494 1555614071 -9986753 1010034735 80343840 746817776
REM
CELL 1.54180   50.00000   50.00000   50.00000   90.00000   90.00000   90.00000
LATT -1
SFAC C  
C      1  0.4204230000000  0.5383870000000  0.4175090000000 1.0
C      1  0.4566380000000  0.5906280000000  0.5194120000000 1.0
C      1  0.5276540000000  0.4941360000000  0.5552120000000 1.0
C      1  0.4704200000000  0.4622620000000  0.5242980000000 1.0
C      1  0.5533690000000  0.4758560000000  0.4576230000000 1.0
C      1  0.4216530000000  0.5602060000000  0.4962680000000 1.0
C      1  0.6201970000000  0.4339440000000  0.5612490000000 1.0
C      1  0.4273070000000  0.4441870000000  0.5053280000000 1.0
C      1  0.5987570000000  0.5177870000000  0.5494780000000 1.0
C      1  0.5179550000000  0.5432040000000  0.6655920000000 1.0
C      1  0.5503950000000  0.4339490000000  0.5400790000000 1.0
C      1  0.4265340000000  0.5460420000000  0.5726050000000 1.0
C      1  0.6024010000000  0.4489770000000  0.4948870000000 1.0
C      1  0.4001650000000  0.4496060000000  0.5514680000000 1.0
C      1  0.4886400000000  0.4964970000000  0.3859670000000 1.0
C      1  0.4135630000000  0.3714030000000  0.4431680000000 1.0
C      1  0.4445650000000  0.5699970000000  0.3801220000000 1.0
C      1  0.5566620000000  0.5324770000000  0.5134290000000 1.0
C      1  0.4193320000000  0.5470690000000  0.4701870000000 1.0
C      1  0.4577240000000  0.5276640000000  0.6033630000000 1.0
C      1  0.5058450000000  0.4002060000000  0.4463670000000 1.0
C      1  0.5022590000000  0.5616000000000  0.4233500000000 1.0
C      1  0.4532420000000  0.4549270000000  0.5013900000000 1.0
C      1  0.4179120000000  0.4427520000000  0.4465710000000 1.0
C      1  0.4978540000000  0.5025340000000  0.5154310000000 1.0
C      1  0.4100020000000  0.4990010000000  0.5448830000000 1.0
C      1  0.5195390000000  0.5189340000000  0.6550590000000 1.0
C      1  0.4949600000000  0.6010720000000  0.5528880000000 1.0
C      1  0.4920370000000  0.4226290000000  0.5144610000000 1.0
C      1  0.4878320000000  0.5415830000000  0.4864550000000 1.0
C      1  0.6061940000000  0.4984560000000  0.4773270000000 1.0
C      1  0.5379980000000  0.4536670000000  0.5246810000000 1.0
C      1  0.4851880000000  0.5932100000000  0.5779550000000 1.0
C      1  0.4040630000000  0.3476330000000  0.4480860000000 1.0
C      1  0.6118940000000  0.5615300000000  0.4510180000000 1.0
C      1  0.5758050000000  0.5371760000000  0.4294720000000 1.0
C      1  0.4174490000000  0.5415870000000  0.5188830000000 1.0
C      1  0.3974170000000  0.5897160000000  0.5742500000000 1.0
C      1  0.4379150000000  0.4071040000000  0.5361240000000 1.0
C      1  0.5545380000000  0.4538330000000  0.4382860000000 1.0
C      1  0.4939650000000  0.5242570000000  0.3925590000000 1.0
C      1  0.5055590000000  0.3854260000000  0.5432760000000 1.0
C      1  0.4475660000000  0.5240140000000  0.5748810000000 1.0
C      1  0.5062570000000  0.4114460000000  0.5896110000000 1.0
C      1  0.5227440000000  0.6338290000000  0.5015330000000 1.0
C      1  0.5157670000000  0.5675090000000  0.6747620000000 1.0
C      1  0.4010990000000  0.4589300000000  0.4603250000000 1.0
C      1  0.5210710000000  0.5316490000000  0.3878520000000 1.0
C      1  0.3988170000000  0.5214460000000  0.5282400000000 1.0
C      1  0.5783970000000  0.4315950000000  0.5350650000000 1.0
C      1  0.4542290000000  0.5084160000000  0.6231180000000 1.0
C      1  0.5761350000000  0.4357570000000  0.5836920000000 1.0
C      1  0.4922840000000  0.4696910000000  0.5824840000000 1.0
C      1  0.4857980000000  0.4843470000000  0.5341230000000 1.0
C      1  0.4651740000000  0.4960450000000  0.4907120000000 1.0
C      1  0.5929440000000  0.4337430000000  0.5598960000000 1.0
C      1  0.5252270000000  0.4976030000000  0.5106260000000 1.0
C      1  0.5364060000000  0.5276040000000  0.4110220000000 1.0
C      1  0.4870560000000  0.3957190000000  0.5237610000000 1.0
C      1  0.4590450000000  0.3904510000000  0.5270450000000 1.0
C      1  0.5088720000000  0.4481780000000  0.3910980000000 1.0
C      1  0.4680230000000  0.4345180000000  0.5616410000000 1.0
C      1  0.4696820000000  0.5530720000000  0.6078460000000 1.0
C      1  0.6103850000000  0.4729890000000  0.4853320000000 1.0
C      1  0.4375640000000  0.5657620000000  0.4055750000000 1.0
C      1  0.4492430000000  0.4908120000000  0.6416770000000 1.0
C      1  0.5569640000000  0.4264250000000  0.4908560000000 1.0
C      1  0.4800870000000  0.4385390000000  0.5359010000000 1.0
C      1  0.5369100000000  0.4810670000000  0.5306390000000 1.0
C      1  0.4186250000000  0.4198790000000  0.5193690000000 1.0
C      1  0.4391460000000  0.5794190000000  0.4319190000000 1.0
C      1  0.6497560000000  0.5488850000000  0.5057590000000 1.0
C      1  0.5050080000000  0.4387120000000  0.4918760000000 1.0
C      1  0.5925230000000  0.5402920000000  0.4530260000000 1.0
C      1  0.4776730000000  0.4932090000000  0.4411130000000 1.0
C      1  0.3779310000000  0.4962000000000  0.4884200000000 1.0
C      1  0.5163670000000  0.6269940000000  0.4763710000000 1.0
C      1  0.4723460000000  0.5312230000000  0.5575530000000 1.0
C      1  0.5021990000000  0.5287850000000  0.4653490000000 1.0
C      1  0.4386450000000  0.4969270000000  0.3994350000000 1.0
C      1  0.5327960000000  0.4100090000000  0.4499610000000 1.0
C      1  0.4899500000000  0.4167350000000  0.4281390000000 1.0
C      1  0.4612530000000  0.4895030000000  0.3867580000000 1.0
C      1  0.5328970000000  0.5040610000000  0.4265880000000 1.0
C      1  0.4438390000000  0.5128480000000  0.4936470000000 1.0
C      1  0.4113460000000  0.5676850000000  0.5741740000000 1.0
C      1  0.5797950000000  0.5163400000000  0.4085620000000 1.0
C      1  0.5222320000000  0.4341460000000  0.5997870000000 1.0
C      1  0.5221290000000  0.6103040000000  0.5487510000000 1.0
C      1  0.5318330000000  0.5962330000000  0.4411550000000 1.0
C      1  0.5772740000000  0.4533870000000  0.4214350000000 1.0
C      1  0.5348610000000  0.4335590000000  0.4325310000000 1.0
C      1  0.4235440000000  0.3956270000000  0.4392760000000 1.0
C      1  0.4881380000000  0.5286980000000  0.5121410000000 1.0
C      1  0.4882010000000  0.5368990000000  0.4187150000000 1.0
C      1  0.6539610000000  0.5540540000000  0.4799130000000 1.0
C      1  0.5012630000000  0.4830570000000  0.5594010000000 1.0
C      1  0.4349990000000  0.4212910000000  0.4386910000000 1.0
C      1  0.6031450000000  0.5870910000000  0.4438410000000 1.0
C      1  0.5253850000000  0.5771460000000  0.4978770000000 1.0
C      1  0.5504120000000  0.5662280000000  0.5498000000000 1.0
C      1  0.5694750000000  0.4929350000000  0.3938350000000 1.0
C      1  0.5296650000000  0.5197430000000  0.4704940000000 1.0
C      1  0.4592100000000  0.5972130000000  0.4395850000000 1.0
C      1  0.6040710000000  0.5315830000000  0.5257110000000 1.0
C      1  0.4665760000000  0.5335320000000  0.5299470000000 1.0
C      1  0.4988970000000  0.4731750000000  0.4435620000000 1.0
C      1  0.3950030000000  0.4261440000000  0.5352780000000 1.0
C      1  0.4624640000000  0.4225290000000  0.4310550000000 1.0
C      1  0.5099600000000  0.4597760000000  0.6029070000000 1.0
C      1  0.4834120000000  0.5923330000000  0.5283280000000 1.0
C      1  0.5258580000000  0.6292160000000  0.5278610000000 1.0
C      1  0.4422790000000  0.5274510000000  0.5178460000000 1.0
C      1  0.4227300000000  0.5603860000000  0.4461390000000 1.0
C      1  0.5386210000000  0.5178820000000  0.4970640000000 1.0
C      1  0.5423820000000  0.5913830000000  0.5543280000000 1.0
C      1  0.4922280000000  0.4574150000000  0.4699140000000 1.0
C      1  0.3938280000000  0.4731890000000  0.4838870000000 1.0
C      1  0.5157250000000  0.4027030000000  0.5634460000000 1.0
C      1  0.5332640000000  0.4420870000000  0.4988440000000 1.0
C      1  0.6385580000000  0.5575710000000  0.4584210000000 1.0
C      1  0.4073550000000  0.4649680000000  0.5073740000000 1.0
C      1  0.5834270000000  0.6044980000000  0.4402630000000 1.0
C      1  0.5460090000000  0.5399500000000  0.5401420000000 1.0
C      1  0.5951420000000  0.5037340000000  0.5711270000000 1.0
C      1  0.5492270000000  0.5493790000000  0.4251420000000 1.0
C      1  0.5161840000000  0.4817940000000  0.4216870000000 1.0
C      1  0.5006910000000  0.5332590000000  0.5637690000000 1.0
C      1  0.5640160000000  0.4733440000000  0.4824320000000 1.0
C      1  0.5482050000000  0.4303870000000  0.5861990000000 1.0
C      1  0.4527130000000  0.4823690000000  0.4506710000000 1.0
C      1  0.4316670000000  0.5020970000000  0.4477220000000 1.0
C      1  0.5030780000000  0.5834310000000  0.5099060000000 1.0
C      1  0.5835210000000  0.4691370000000  0.4005720000000 1.0
C      1  0.4684940000000  0.5620950000000  0.4830880000000 1.0
C      1  0.5109210000000  0.4327030000000  0.4147490000000 1.0
C      1  0.4866070000000  0.5203320000000  0.4420510000000 1.0
C      1  0.4628430000000  0.4700420000000  0.4772740000000 1.0
C      1  0.4235000000000  0.4461500000000  0.5678250000000 1.0
C      1  0.4399330000000  0.4702880000000  0.5751990000000 1.0
C      1  0.5191310000000  0.4959990000000  0.6417920000000 1.0
C      1  0.4282080000000  0.5195090000000  0.4705670000000 1.0
C      1  0.4780540000000  0.5762850000000  0.5973930000000 1.0
C      1  0.5423690000000  0.5017940000000  0.4524230000000 1.0
C      1  0.5157550000000  0.4758100000000  0.6249760000000 1.0
C      1  0.4272260000000  0.5117150000000  0.4208340000000 1.0
C      1  0.5134530000000  0.3592370000000  0.5421730000000 1.0
C      1  0.5290290000000  0.5698640000000  0.4306000000000 1.0
C      1  0.5131120000000  0.4776960000000  0.3915650000000 1.0
C      1  0.5571260000000  0.6081200000000  0.4395240000000 1.0
C      1  0.5270320000000  0.5233600000000  0.5556030000000 1.0
C      1  0.4415940000000  0.4231700000000  0.5600940000000 1.0
C      1  0.5931160000000  0.5240750000000  0.4777090000000 1.0
C      1  0.4322700000000  0.4975150000000  0.5658280000000 1.0
C      1  0.5424260000000  0.4871620000000  0.3824390000000 1.0
C      1  0.5102970000000  0.6104160000000  0.4541290000000 1.0
C      1  0.4833610000000  0.6068700000000  0.4460910000000 1.0
C      1  0.5842740000000  0.5322180000000  0.5047790000000 1.0
C      1  0.4471250000000  0.5745270000000  0.4981240000000 1.0
C      1  0.6296240000000  0.5422290000000  0.5218320000000 1.0
C      1  0.5392270000000  0.4190780000000  0.5604750000000 1.0
C      1  0.4668440000000  0.4585380000000  0.5783660000000 1.0
C      1  0.4019490000000  0.4729620000000  0.5347000000000 1.0
C      1  0.5821380000000  0.4323340000000  0.5060720000000 1.0
C      1  0.3788400000000  0.5138860000000  0.5090830000000 1.0
C      1  0.5516480000000  0.4077310000000  0.4705140000000 1.0
END
