TITL C-3866673-4222-51 1.63213802643143e-06 125000 -400.15710393758 0 0 66 (C1) n - 1
REM
REM in /home/nfs/bkarasulu/CARBON/AIRSS/Generating-Clusters/LCBOP/Only-C1/SD-CG/HFTN-CG/FIRE-CG
REM
REM
REM
REM
REM
REM ./C.cell (11c1c37f851c82e70ff6c80c92926a4b)
REM AIRSS Version 0.9.1 bugfix July 2018 build 013d7b7c2542+ Fri, 06 Jul 2018 19:26:36 +0100
REM compiler GCC version 9.2.1 20190827 (Red Hat 9.2.1-1)
REM options -cpp -mtune=generic -march=x86-64 -g -O0 -fpre-include=/usr/include/finclude/math-vector-fortran.h
REM seed -766577901 1460267580 -1196093529 -722577466 625249693 -1401882434 536976113 1114579795 1651499503 415576716 -506125114 -285742321 -1372369495 -963474712 652363538 -1992211214 -1862321211 -1719626877 -44197252 -1704334060 -1148914888 -1567425454 492697089 1782285989 -1199687301 -609683162 -211933093 -1936719733 644264494 -1827264870 -471973240 755160657 2134519495
REM
CELL 1.54180   50.00000   50.00000   50.00000   90.00000   90.00000   90.00000
LATT -1
SFAC C  
C      1  0.5075570000000  0.4777020000000  0.4769640000000 1.0
C      1  0.5200910000000  0.4653210000000  0.4269340000000 1.0
C      1  0.5757080000000  0.4765650000000  0.5458050000000 1.0
C      1  0.4957060000000  0.5242300000000  0.4618610000000 1.0
C      1  0.4962720000000  0.4430550000000  0.5088290000000 1.0
C      1  0.4130320000000  0.4401300000000  0.4443130000000 1.0
C      1  0.4839150000000  0.5719530000000  0.5357980000000 1.0
C      1  0.4919140000000  0.5009980000000  0.4808830000000 1.0
C      1  0.4973110000000  0.4938010000000  0.3944970000000 1.0
C      1  0.5701860000000  0.4723760000000  0.5200860000000 1.0
C      1  0.5069390000000  0.5643420000000  0.5486750000000 1.0
C      1  0.5079100000000  0.4421930000000  0.4375640000000 1.0
C      1  0.4231940000000  0.5416380000000  0.4713560000000 1.0
C      1  0.4635400000000  0.5450200000000  0.4291580000000 1.0
C      1  0.4789920000000  0.5097780000000  0.5920080000000 1.0
C      1  0.5049460000000  0.5671590000000  0.4923440000000 1.0
C      1  0.5008770000000  0.4083650000000  0.4771560000000 1.0
C      1  0.4938190000000  0.4536980000000  0.4816030000000 1.0
C      1  0.4912090000000  0.4316380000000  0.4600010000000 1.0
C      1  0.4800360000000  0.5662140000000  0.5078280000000 1.0
C      1  0.3841120000000  0.4827670000000  0.4499730000000 1.0
C      1  0.4948850000000  0.4614870000000  0.5304090000000 1.0
C      1  0.4693410000000  0.5376570000000  0.4549180000000 1.0
C      1  0.4565840000000  0.5211560000000  0.5450260000000 1.0
C      1  0.5608240000000  0.5270270000000  0.4797490000000 1.0
C      1  0.5186970000000  0.5056800000000  0.6163810000000 1.0
C      1  0.4506700000000  0.5429140000000  0.4758880000000 1.0
C      1  0.5479460000000  0.4658990000000  0.4231460000000 1.0
C      1  0.5706130000000  0.4789460000000  0.4282520000000 1.0
C      1  0.5332490000000  0.5304800000000  0.5219780000000 1.0
C      1  0.5269570000000  0.5760790000000  0.5093030000000 1.0
C      1  0.4639250000000  0.5221100000000  0.5178780000000 1.0
C      1  0.5546520000000  0.4856090000000  0.5935190000000 1.0
C      1  0.5772740000000  0.5166640000000  0.4616080000000 1.0
C      1  0.5341220000000  0.4661000000000  0.6001330000000 1.0
C      1  0.5353560000000  0.4766730000000  0.4813730000000 1.0
C      1  0.4374020000000  0.4298650000000  0.4464750000000 1.0
C      1  0.4633110000000  0.4273940000000  0.4514690000000 1.0
C      1  0.5294220000000  0.5574930000000  0.5321590000000 1.0
C      1  0.5173850000000  0.5466890000000  0.5965020000000 1.0
C      1  0.4760440000000  0.4614500000000  0.5788650000000 1.0
C      1  0.5135680000000  0.5429220000000  0.4787820000000 1.0
C      1  0.4994010000000  0.5257470000000  0.6049260000000 1.0
C      1  0.4626390000000  0.5182760000000  0.5709240000000 1.0
C      1  0.4006080000000  0.5293930000000  0.4646720000000 1.0
C      1  0.3938920000000  0.4584880000000  0.4454780000000 1.0
C      1  0.4848700000000  0.4813570000000  0.5961650000000 1.0
C      1  0.4823810000000  0.5030750000000  0.5078310000000 1.0
C      1  0.4827300000000  0.4536030000000  0.5543220000000 1.0
C      1  0.5096080000000  0.5151940000000  0.4361390000000 1.0
C      1  0.5163510000000  0.5369120000000  0.3925330000000 1.0
C      1  0.4613470000000  0.5456540000000  0.5018630000000 1.0
C      1  0.5203990000000  0.5361030000000  0.4195140000000 1.0
C      1  0.5221620000000  0.5066600000000  0.5334080000000 1.0
C      1  0.5000880000000  0.4897920000000  0.5265450000000 1.0
C      1  0.5561970000000  0.4721320000000  0.4974150000000 1.0
C      1  0.5099780000000  0.4783390000000  0.6098450000000 1.0
C      1  0.5815740000000  0.4986550000000  0.4424590000000 1.0
C      1  0.5463920000000  0.5108700000000  0.6051680000000 1.0
C      1  0.5038050000000  0.5160930000000  0.3801540000000 1.0
C      1  0.5019180000000  0.4151360000000  0.5042340000000 1.0
C      1  0.5438500000000  0.5381970000000  0.5961890000000 1.0
C      1  0.5061050000000  0.4898000000000  0.4215560000000 1.0
C      1  0.5364650000000  0.5310350000000  0.4927640000000 1.0
C      1  0.3864450000000  0.5083000000000  0.4569230000000 1.0
C      1  0.5713050000000  0.4819510000000  0.5715250000000 1.0
END
