TITL C-3866671-3735-563 0.000309679433095507 125000 -1044.0294343564 0 0 171 (C1) n - 1
REM
REM in /home/nfs/bkarasulu/CARBON/AIRSS/Generating-Clusters/LCBOP/Only-C1/SD-CG/FIRE-CG
REM
REM
REM
REM
REM
REM ./C.cell (11c1c37f851c82e70ff6c80c92926a4b)
REM AIRSS Version 0.9.1 bugfix July 2018 build 013d7b7c2542+ Fri, 06 Jul 2018 19:26:36 +0100
REM compiler GCC version 9.2.1 20190827 (Red Hat 9.2.1-1)
REM options -cpp -mtune=generic -march=x86-64 -g -O0 -fpre-include=/usr/include/finclude/math-vector-fortran.h
REM seed -314057030 -85452044 -268930689 -69420326 -1411055849 1999957858 -962168250 -612688968 592939913 -18198925 -1500781798 -1180038453 1716802571 -1837719313 -1642777615 -1820308743 519659109 -1373076845 1280667856 1346159271 -343342803 -1346833812 -1979095574 1286177755 935951873 -518849152 -1974880620 -839415431 2067515996 1690296215 -1111357069 -589252668 933040202
REM
CELL 1.54180   50.00000   50.00000   50.00000   90.00000   90.00000   90.00000
LATT -1
SFAC C  
C      1  0.5403880000000  0.5012810000000  0.5881420000000 1.0
C      1  0.3813880000000  0.5151000000000  0.5561880000000 1.0
C      1  0.5811860000000  0.5396460000000  0.4387550000000 1.0
C      1  0.4283150000000  0.5714080000000  0.4943300000000 1.0
C      1  0.4074880000000  0.3732750000000  0.4224460000000 1.0
C      1  0.5182030000000  0.4278120000000  0.4876330000000 1.0
C      1  0.4398560000000  0.5431420000000  0.4598640000000 1.0
C      1  0.4721910000000  0.4688260000000  0.3989360000000 1.0
C      1  0.5523710000000  0.4012690000000  0.4663610000000 1.0
C      1  0.4335360000000  0.5036520000000  0.6047820000000 1.0
C      1  0.5351190000000  0.4102990000000  0.5404420000000 1.0
C      1  0.5762480000000  0.4392530000000  0.4296550000000 1.0
C      1  0.5507950000000  0.5067540000000  0.5094130000000 1.0
C      1  0.5247780000000  0.6135490000000  0.4765620000000 1.0
C      1  0.5412670000000  0.5894330000000  0.5559190000000 1.0
C      1  0.5993720000000  0.5418730000000  0.4999550000000 1.0
C      1  0.4610760000000  0.4935720000000  0.5994720000000 1.0
C      1  0.4426640000000  0.5121860000000  0.5346000000000 1.0
C      1  0.4222810000000  0.4540810000000  0.5433370000000 1.0
C      1  0.4318040000000  0.5021340000000  0.5105570000000 1.0
C      1  0.5980010000000  0.5559230000000  0.5260760000000 1.0
C      1  0.4624760000000  0.5169670000000  0.4030170000000 1.0
C      1  0.6608900000000  0.5809450000000  0.6250130000000 1.0
C      1  0.4306990000000  0.4833140000000  0.4202400000000 1.0
C      1  0.4667980000000  0.6081490000000  0.4628210000000 1.0
C      1  0.4898750000000  0.3703810000000  0.4120870000000 1.0
C      1  0.5827350000000  0.4903310000000  0.4386240000000 1.0
C      1  0.5406430000000  0.5176320000000  0.4356470000000 1.0
C      1  0.5069920000000  0.4758910000000  0.5552410000000 1.0
C      1  0.6514630000000  0.5870800000000  0.5993940000000 1.0
C      1  0.5049080000000  0.4337360000000  0.4187610000000 1.0
C      1  0.5538330000000  0.3763090000000  0.4805040000000 1.0
C      1  0.4168430000000  0.5778500000000  0.5388360000000 1.0
C      1  0.5795720000000  0.5795220000000  0.5241380000000 1.0
C      1  0.5692280000000  0.5142520000000  0.4323340000000 1.0
C      1  0.5358230000000  0.4510770000000  0.4838020000000 1.0
C      1  0.4467880000000  0.5164660000000  0.4519370000000 1.0
C      1  0.4606170000000  0.6131530000000  0.4891400000000 1.0
C      1  0.4029080000000  0.4728290000000  0.5337340000000 1.0
C      1  0.5423510000000  0.5464420000000  0.4705360000000 1.0
C      1  0.6259290000000  0.5733880000000  0.5943610000000 1.0
C      1  0.4909790000000  0.5285530000000  0.4571800000000 1.0
C      1  0.4075950000000  0.4801920000000  0.4362070000000 1.0
C      1  0.4309940000000  0.4578480000000  0.5925700000000 1.0
C      1  0.5530400000000  0.4606010000000  0.5046850000000 1.0
C      1  0.4798780000000  0.3931360000000  0.4771480000000 1.0
C      1  0.4176510000000  0.4798270000000  0.6052430000000 1.0
C      1  0.3842930000000  0.5088720000000  0.4704010000000 1.0
C      1  0.4820350000000  0.4817360000000  0.5457280000000 1.0
C      1  0.5577210000000  0.4550550000000  0.5324970000000 1.0
C      1  0.5078380000000  0.6004150000000  0.4946300000000 1.0
C      1  0.5205160000000  0.5685770000000  0.4231330000000 1.0
C      1  0.5296470000000  0.5409200000000  0.4213380000000 1.0
C      1  0.4840350000000  0.5494980000000  0.4439480000000 1.0
C      1  0.5191420000000  0.4698160000000  0.3898170000000 1.0
C      1  0.4901770000000  0.5721410000000  0.4255140000000 1.0
C      1  0.4257920000000  0.5300750000000  0.5984670000000 1.0
C      1  0.4622880000000  0.5621310000000  0.5497410000000 1.0
C      1  0.6012170000000  0.5509220000000  0.4241270000000 1.0
C      1  0.4207040000000  0.3914830000000  0.4356130000000 1.0
C      1  0.5020060000000  0.4300400000000  0.5787500000000 1.0
C      1  0.5072640000000  0.4956310000000  0.3847330000000 1.0
C      1  0.5886940000000  0.5927260000000  0.5681460000000 1.0
C      1  0.4795210000000  0.5146330000000  0.5942890000000 1.0
C      1  0.5692160000000  0.5520610000000  0.4618350000000 1.0
C      1  0.6099030000000  0.5739850000000  0.5717220000000 1.0
C      1  0.6126920000000  0.5555460000000  0.5501540000000 1.0
C      1  0.5454740000000  0.4608890000000  0.3931360000000 1.0
C      1  0.4668020000000  0.4348170000000  0.5482700000000 1.0
C      1  0.5236960000000  0.4104060000000  0.4618830000000 1.0
C      1  0.5220100000000  0.4964990000000  0.5671640000000 1.0
C      1  0.5433390000000  0.4631820000000  0.6239100000000 1.0
C      1  0.5094200000000  0.5210680000000  0.5572830000000 1.0
C      1  0.5757800000000  0.4181940000000  0.5053580000000 1.0
C      1  0.5811830000000  0.4443590000000  0.4577150000000 1.0
C      1  0.4083540000000  0.5602750000000  0.5614390000000 1.0
C      1  0.4434490000000  0.4267390000000  0.4700960000000 1.0
C      1  0.4401150000000  0.5981880000000  0.5343820000000 1.0
C      1  0.4334910000000  0.4098090000000  0.4498520000000 1.0
C      1  0.5210710000000  0.5368010000000  0.5341090000000 1.0
C      1  0.4316220000000  0.5519760000000  0.3943000000000 1.0
C      1  0.4503050000000  0.5575330000000  0.4834880000000 1.0
C      1  0.4517000000000  0.4896240000000  0.4948940000000 1.0
C      1  0.4912790000000  0.4360140000000  0.4911540000000 1.0
C      1  0.5458520000000  0.4860320000000  0.6105580000000 1.0
C      1  0.5216460000000  0.4329160000000  0.4413920000000 1.0
C      1  0.4440060000000  0.4203010000000  0.3820180000000 1.0
C      1  0.3974330000000  0.4849570000000  0.4621790000000 1.0
C      1  0.6427420000000  0.5637420000000  0.6372970000000 1.0
C      1  0.4097200000000  0.4835440000000  0.5086960000000 1.0
C      1  0.4771390000000  0.3790590000000  0.5013720000000 1.0
C      1  0.5355890000000  0.5906830000000  0.4323090000000 1.0
C      1  0.5394890000000  0.5745430000000  0.5802980000000 1.0
C      1  0.5551270000000  0.4026310000000  0.5206580000000 1.0
C      1  0.4882050000000  0.4616460000000  0.5018580000000 1.0
C      1  0.4995780000000  0.6060360000000  0.5219270000000 1.0
C      1  0.6216640000000  0.5588330000000  0.6195640000000 1.0
C      1  0.3813550000000  0.5293280000000  0.4877400000000 1.0
C      1  0.4586480000000  0.3981780000000  0.3820150000000 1.0
C      1  0.5642300000000  0.4477730000000  0.4071580000000 1.0
C      1  0.4795880000000  0.4970260000000  0.3926560000000 1.0
C      1  0.5797240000000  0.4950580000000  0.5556990000000 1.0
C      1  0.4304920000000  0.4434950000000  0.3899860000000 1.0
C      1  0.4750120000000  0.5625560000000  0.4984750000000 1.0
C      1  0.5724540000000  0.4695550000000  0.5501320000000 1.0
C      1  0.4748110000000  0.3797760000000  0.3922980000000 1.0
C      1  0.3883010000000  0.5489860000000  0.5048860000000 1.0
C      1  0.4602160000000  0.4638340000000  0.5909400000000 1.0
C      1  0.4194990000000  0.4454170000000  0.5701630000000 1.0
C      1  0.5067040000000  0.5629780000000  0.5369840000000 1.0
C      1  0.4812710000000  0.4834560000000  0.4564240000000 1.0
C      1  0.5165280000000  0.5898050000000  0.5405350000000 1.0
C      1  0.5248190000000  0.5071180000000  0.4930040000000 1.0
C      1  0.4780320000000  0.5962940000000  0.4408090000000 1.0
C      1  0.5000160000000  0.3735980000000  0.4364610000000 1.0
C      1  0.4490780000000  0.4509310000000  0.5316630000000 1.0
C      1  0.4660130000000  0.5055380000000  0.5486790000000 1.0
C      1  0.4758660000000  0.4443000000000  0.5756420000000 1.0
C      1  0.4081860000000  0.5673980000000  0.5131370000000 1.0
C      1  0.4530360000000  0.5623670000000  0.5747860000000 1.0
C      1  0.5101490000000  0.4160250000000  0.5537010000000 1.0
C      1  0.4188740000000  0.5568980000000  0.4445990000000 1.0
C      1  0.5312850000000  0.4396030000000  0.6208600000000 1.0
C      1  0.4081760000000  0.4692330000000  0.4837100000000 1.0
C      1  0.5664880000000  0.4854610000000  0.5010410000000 1.0
C      1  0.5156360000000  0.4277760000000  0.6028910000000 1.0
C      1  0.4701600000000  0.4205130000000  0.4792970000000 1.0
C      1  0.5019320000000  0.3898060000000  0.4591090000000 1.0
C      1  0.4842010000000  0.4128660000000  0.5402880000000 1.0
C      1  0.3866600000000  0.4895770000000  0.5496720000000 1.0
C      1  0.5518830000000  0.3770960000000  0.5077750000000 1.0
C      1  0.4791860000000  0.5609460000000  0.5278890000000 1.0
C      1  0.5358280000000  0.6083050000000  0.4526060000000 1.0
C      1  0.5658570000000  0.5201860000000  0.5560630000000 1.0
C      1  0.5400820000000  0.5493790000000  0.5928200000000 1.0
C      1  0.4451000000000  0.5078850000000  0.4244390000000 1.0
C      1  0.4444510000000  0.4638820000000  0.4039860000000 1.0
C      1  0.3875190000000  0.5411670000000  0.5583880000000 1.0
C      1  0.4960680000000  0.5290480000000  0.6118940000000 1.0
C      1  0.4641640000000  0.6083980000000  0.5181520000000 1.0
C      1  0.5863190000000  0.5612620000000  0.4817590000000 1.0
C      1  0.4040200000000  0.4465620000000  0.3836820000000 1.0
C      1  0.5537810000000  0.5265190000000  0.5819340000000 1.0
C      1  0.6005840000000  0.4241610000000  0.5169720000000 1.0
C      1  0.4969110000000  0.4535050000000  0.4004970000000 1.0
C      1  0.4002140000000  0.5735350000000  0.4560040000000 1.0
C      1  0.4586180000000  0.5438760000000  0.3941950000000 1.0
C      1  0.4823350000000  0.5210390000000  0.5663880000000 1.0
C      1  0.5188710000000  0.5433630000000  0.6108970000000 1.0
C      1  0.5719670000000  0.4218440000000  0.4759680000000 1.0
C      1  0.4772230000000  0.5644920000000  0.3997490000000 1.0
C      1  0.5345820000000  0.5178400000000  0.4642890000000 1.0
C      1  0.4777530000000  0.3897190000000  0.5260530000000 1.0
C      1  0.5139630000000  0.5323900000000  0.5046030000000 1.0
C      1  0.5782900000000  0.5844550000000  0.4962930000000 1.0
C      1  0.6242630000000  0.4303850000000  0.5258980000000 1.0
C      1  0.5497760000000  0.5247580000000  0.5326170000000 1.0
C      1  0.5067870000000  0.4770980000000  0.4515770000000 1.0
C      1  0.5883280000000  0.4734970000000  0.4613900000000 1.0
C      1  0.4171560000000  0.5548410000000  0.4166110000000 1.0
C      1  0.6026450000000  0.5145020000000  0.4917530000000 1.0
C      1  0.5066320000000  0.4837270000000  0.4990190000000 1.0
C      1  0.4593860000000  0.4967210000000  0.4686920000000 1.0
C      1  0.5205950000000  0.5546080000000  0.4872040000000 1.0
C      1  0.4275950000000  0.5529720000000  0.5816790000000 1.0
C      1  0.5895660000000  0.4893180000000  0.4856900000000 1.0
C      1  0.4248650000000  0.4464330000000  0.4791910000000 1.0
C      1  0.5271620000000  0.4580870000000  0.4559430000000 1.0
C      1  0.5688400000000  0.5913860000000  0.5474240000000 1.0
C      1  0.5000100000000  0.5736390000000  0.4873600000000 1.0
C      1  0.4615640000000  0.4667490000000  0.5094520000000 1.0
END
