TITL C-3866674-3872-70 -1.6470007117283e-07 125000 -433.492619108645 0 0 70 (C1) n - 1
REM
REM in /home/nfs/bkarasulu/CARBON/AIRSS/Generating-Clusters/LCBOP/Only-C1/SD-CG/HFTN-CG/FIRE-CG
REM
REM
REM
REM
REM
REM ./C.cell (11c1c37f851c82e70ff6c80c92926a4b)
REM AIRSS Version 0.9.1 bugfix July 2018 build 013d7b7c2542+ Fri, 06 Jul 2018 19:26:36 +0100
REM compiler GCC version 9.2.1 20190827 (Red Hat 9.2.1-1)
REM options -cpp -mtune=generic -march=x86-64 -g -O0 -fpre-include=/usr/include/finclude/math-vector-fortran.h
REM seed 1731824689 -1482040883 -621774106 167695470 44877694 1933378092 906978455 -323512653 265820060 1166983411 1369072064 1541963947 -823008468 675748783 1456452291 -407244229 406738804 -767866679 -1364248112 -1210433510 760811685 -1767766996 408071619 519906935 -1304837826 -902689927 1863205347 177835315 1039973177 43485121 118277683 2107250122 -993242688
REM
CELL 1.54180   50.00000   50.00000   50.00000   90.00000   90.00000   90.00000
LATT -1
SFAC C  
C      1  0.4309770000000  0.5920250000000  0.4771910000000 1.0
C      1  0.5591310000000  0.4726590000000  0.4900480000000 1.0
C      1  0.4931130000000  0.4358320000000  0.5638210000000 1.0
C      1  0.4824560000000  0.5220680000000  0.4679460000000 1.0
C      1  0.5723870000000  0.5122110000000  0.5218820000000 1.0
C      1  0.4834230000000  0.4844460000000  0.5659380000000 1.0
C      1  0.4951690000000  0.4792740000000  0.4810130000000 1.0
C      1  0.5352410000000  0.4875630000000  0.5317900000000 1.0
C      1  0.4785420000000  0.5099810000000  0.4066190000000 1.0
C      1  0.5387360000000  0.4420020000000  0.5379710000000 1.0
C      1  0.4583450000000  0.5129310000000  0.4269230000000 1.0
C      1  0.5377500000000  0.4822950000000  0.4452960000000 1.0
C      1  0.5339910000000  0.4365070000000  0.5104790000000 1.0
C      1  0.4951810000000  0.5421190000000  0.4518930000000 1.0
C      1  0.4397650000000  0.5345920000000  0.4290030000000 1.0
C      1  0.4495580000000  0.5735040000000  0.4693240000000 1.0
C      1  0.4895430000000  0.4812230000000  0.4519950000000 1.0
C      1  0.4674120000000  0.5629510000000  0.5335830000000 1.0
C      1  0.4430530000000  0.5547560000000  0.4488720000000 1.0
C      1  0.4754770000000  0.5732520000000  0.4815900000000 1.0
C      1  0.4899690000000  0.4538590000000  0.4912420000000 1.0
C      1  0.4689190000000  0.5024140000000  0.4511950000000 1.0
C      1  0.5350460000000  0.5510910000000  0.4281180000000 1.0
C      1  0.5353040000000  0.5698410000000  0.5602080000000 1.0
C      1  0.5600440000000  0.4867600000000  0.5149950000000 1.0
C      1  0.5108490000000  0.3903190000000  0.5543580000000 1.0
C      1  0.4981280000000  0.5676760000000  0.4637950000000 1.0
C      1  0.3980160000000  0.5370820000000  0.3948810000000 1.0
C      1  0.5761330000000  0.3986850000000  0.4922360000000 1.0
C      1  0.5531460000000  0.5535610000000  0.5486330000000 1.0
C      1  0.5015870000000  0.4630110000000  0.5611960000000 1.0
C      1  0.4957710000000  0.5079940000000  0.4906860000000 1.0
C      1  0.5066390000000  0.4340750000000  0.5046070000000 1.0
C      1  0.5069200000000  0.5523820000000  0.5098900000000 1.0
C      1  0.4888540000000  0.4161070000000  0.5203040000000 1.0
C      1  0.4397200000000  0.5047620000000  0.5681550000000 1.0
C      1  0.4454330000000  0.4716340000000  0.5348060000000 1.0
C      1  0.4810540000000  0.5651270000000  0.5088170000000 1.0
C      1  0.5529650000000  0.5301900000000  0.5336050000000 1.0
C      1  0.4630040000000  0.4196340000000  0.5080450000000 1.0
C      1  0.5458270000000  0.5593250000000  0.4533290000000 1.0
C      1  0.4634990000000  0.4416870000000  0.4913570000000 1.0
C      1  0.5055660000000  0.5100820000000  0.4171790000000 1.0
C      1  0.5321760000000  0.3762210000000  0.5465850000000 1.0
C      1  0.5088340000000  0.5725100000000  0.5629940000000 1.0
C      1  0.5263980000000  0.5718960000000  0.4708410000000 1.0
C      1  0.4553620000000  0.4826340000000  0.5587440000000 1.0
C      1  0.5119350000000  0.4872390000000  0.4345990000000 1.0
C      1  0.5563110000000  0.4883710000000  0.4660140000000 1.0
C      1  0.5687070000000  0.3802100000000  0.5100580000000 1.0
C      1  0.5528070000000  0.3725620000000  0.5300720000000 1.0
C      1  0.4322840000000  0.4837120000000  0.5145710000000 1.0
C      1  0.5282680000000  0.5676220000000  0.4988180000000 1.0
C      1  0.5714950000000  0.4237290000000  0.4838340000000 1.0
C      1  0.4485450000000  0.5309740000000  0.5628340000000 1.0
C      1  0.4254080000000  0.5088890000000  0.5081660000000 1.0
C      1  0.5676650000000  0.5143780000000  0.4655860000000 1.0
C      1  0.4290870000000  0.5337020000000  0.5177850000000 1.0
C      1  0.4949130000000  0.4124380000000  0.5477570000000 1.0
C      1  0.5266450000000  0.4659990000000  0.5474120000000 1.0
C      1  0.5276260000000  0.5150340000000  0.5300040000000 1.0
C      1  0.5648400000000  0.5410290000000  0.4635680000000 1.0
C      1  0.5117300000000  0.5353720000000  0.4291150000000 1.0
C      1  0.4765120000000  0.5353570000000  0.5709160000000 1.0
C      1  0.4908130000000  0.5109420000000  0.5745340000000 1.0
C      1  0.4180950000000  0.5359270000000  0.4114540000000 1.0
C      1  0.4442240000000  0.5458070000000  0.5380510000000 1.0
C      1  0.4847180000000  0.5596560000000  0.5575300000000 1.0
C      1  0.5544850000000  0.4444380000000  0.4920950000000 1.0
C      1  0.5084770000000  0.5238650000000  0.5112470000000 1.0
END
