TITL C-3866671-3735-438 0.000263051579342814 125000 -312.677369252801 0 0 53 (C1) n - 1
REM
REM in /home/nfs/bkarasulu/CARBON/AIRSS/Generating-Clusters/LCBOP/Only-C1/SD-CG/FIRE-CG
REM
REM
REM
REM
REM
REM ./C.cell (11c1c37f851c82e70ff6c80c92926a4b)
REM AIRSS Version 0.9.1 bugfix July 2018 build 013d7b7c2542+ Fri, 06 Jul 2018 19:26:36 +0100
REM compiler GCC version 9.2.1 20190827 (Red Hat 9.2.1-1)
REM options -cpp -mtune=generic -march=x86-64 -g -O0 -fpre-include=/usr/include/finclude/math-vector-fortran.h
REM seed -1462027563 -1062451557 -24821884 -1846952065 324413383 -276319397 1471267737 34646592 1550627128 853932376 1431542009 -1240858234 -611122853 1788120940 330368831 1814772647 -414849923 1016302146 -609627488 -608805650 -402302357 2115977509 -1197637860 -983088862 1489070047 1167039595 1688361940 1229266463 -1495218327 1375068655 1416887364 1651155879 1503274997
REM
CELL 1.54180   50.00000   50.00000   50.00000   90.00000   90.00000   90.00000
LATT -1
SFAC C  
C      1  0.5483470000000  0.4541380000000  0.5041950000000 1.0
C      1  0.4180340000000  0.5153980000000  0.4910940000000 1.0
C      1  0.4547930000000  0.4844170000000  0.4901440000000 1.0
C      1  0.5823500000000  0.4962150000000  0.5089740000000 1.0
C      1  0.4700060000000  0.4664250000000  0.5387560000000 1.0
C      1  0.5204200000000  0.4436540000000  0.5071800000000 1.0
C      1  0.4640370000000  0.5495300000000  0.4167190000000 1.0
C      1  0.4025000000000  0.4644910000000  0.5385950000000 1.0
C      1  0.4868720000000  0.5376170000000  0.4099640000000 1.0
C      1  0.5042490000000  0.4586160000000  0.4879310000000 1.0
C      1  0.5595650000000  0.4600040000000  0.5303500000000 1.0
C      1  0.4622430000000  0.4777640000000  0.4454960000000 1.0
C      1  0.5740290000000  0.4844290000000  0.5335700000000 1.0
C      1  0.5149950000000  0.5256890000000  0.5920240000000 1.0
C      1  0.5073530000000  0.4925260000000  0.3997340000000 1.0
C      1  0.4669410000000  0.4524920000000  0.4596500000000 1.0
C      1  0.5493950000000  0.4728780000000  0.4824520000000 1.0
C      1  0.4920540000000  0.5599360000000  0.5337880000000 1.0
C      1  0.4727950000000  0.4584940000000  0.4892720000000 1.0
C      1  0.5059770000000  0.5178060000000  0.4141430000000 1.0
C      1  0.5200360000000  0.4856650000000  0.4455470000000 1.0
C      1  0.4301720000000  0.4922670000000  0.5016660000000 1.0
C      1  0.5379060000000  0.5115890000000  0.5930370000000 1.0
C      1  0.5491090000000  0.4922250000000  0.5756810000000 1.0
C      1  0.5656870000000  0.5516490000000  0.5503510000000 1.0
C      1  0.4786210000000  0.5206450000000  0.4751820000000 1.0
C      1  0.5310780000000  0.5339920000000  0.4542300000000 1.0
C      1  0.5229870000000  0.4737520000000  0.4705410000000 1.0
C      1  0.4711110000000  0.5774410000000  0.5355380000000 1.0
C      1  0.5185120000000  0.5684060000000  0.5375810000000 1.0
C      1  0.5321550000000  0.4699700000000  0.5693510000000 1.0
C      1  0.4165120000000  0.5347210000000  0.4728210000000 1.0
C      1  0.5758610000000  0.5276370000000  0.5559350000000 1.0
C      1  0.4169430000000  0.4774200000000  0.5211700000000 1.0
C      1  0.5701020000000  0.4917700000000  0.4850670000000 1.0
C      1  0.4850130000000  0.4855770000000  0.5528010000000 1.0
C      1  0.4252530000000  0.5478970000000  0.4513950000000 1.0
C      1  0.4637660000000  0.4986460000000  0.4657620000000 1.0
C      1  0.5443170000000  0.5659330000000  0.5434460000000 1.0
C      1  0.4873650000000  0.5321230000000  0.5278540000000 1.0
C      1  0.4865520000000  0.5261980000000  0.5003550000000 1.0
C      1  0.4421720000000  0.5530240000000  0.4314930000000 1.0
C      1  0.5027710000000  0.4880380000000  0.3734230000000 1.0
C      1  0.5402310000000  0.4508850000000  0.5501960000000 1.0
C      1  0.5691170000000  0.5003530000000  0.5567150000000 1.0
C      1  0.5043400000000  0.4744830000000  0.5704940000000 1.0
C      1  0.5198990000000  0.4365080000000  0.5350150000000 1.0
C      1  0.4678560000000  0.4496460000000  0.5175240000000 1.0
C      1  0.4532810000000  0.4803130000000  0.4200080000000 1.0
C      1  0.5190980000000  0.5142800000000  0.4398330000000 1.0
C      1  0.4861190000000  0.5144140000000  0.5507010000000 1.0
C      1  0.4938930000000  0.5267000000000  0.5753850000000 1.0
C      1  0.5152080000000  0.4733110000000  0.4198710000000 1.0
END
