TITL C-3866670-4165-19 -5.44674759285673e-07 125000 -947.092936164883 0 0 152 (C1) n - 1
REM
REM in /home/nfs/bkarasulu/CARBON/AIRSS/Generating-Clusters/LCBOP/Only-C1/SD-CG/HFTN-CG/FIRE-CG
REM
REM
REM
REM
REM
REM ./C.cell (11c1c37f851c82e70ff6c80c92926a4b)
REM AIRSS Version 0.9.1 bugfix July 2018 build 013d7b7c2542+ Fri, 06 Jul 2018 19:26:36 +0100
REM compiler GCC version 9.2.1 20190827 (Red Hat 9.2.1-1)
REM options -cpp -mtune=generic -march=x86-64 -g -O0 -fpre-include=/usr/include/finclude/math-vector-fortran.h
REM seed 1039732621 1926944331 1547171561 -37074906 1213321486 -1079765284 -736526641 -609673923 -949633554 263882250 -2088098249 898379331 1882308174 1161740864 -1214426027 -1270452402 -2090283232 1645660847 -1013645592 -1622805725 -330074221 -1698923745 440522424 -1026633608 1826350672 -1021560290 -424607931 4417536 1289605543 1172978719 -1458712527 -2122629945 639273345
REM
CELL 1.54180   50.00000   50.00000   50.00000   90.00000   90.00000   90.00000
LATT -1
SFAC C  
C      1  0.4569210000000  0.4315990000000  0.5756860000000 1.0
C      1  0.5981220000000  0.4966200000000  0.4775480000000 1.0
C      1  0.4406070000000  0.5099460000000  0.4751380000000 1.0
C      1  0.5942370000000  0.5284850000000  0.5257390000000 1.0
C      1  0.5969000000000  0.4319090000000  0.5140030000000 1.0
C      1  0.4811520000000  0.5303790000000  0.4503390000000 1.0
C      1  0.5035300000000  0.4905870000000  0.4951360000000 1.0
C      1  0.5503220000000  0.4181310000000  0.5195300000000 1.0
C      1  0.5499880000000  0.5193930000000  0.5265700000000 1.0
C      1  0.5170280000000  0.5575650000000  0.4788970000000 1.0
C      1  0.5603150000000  0.5558280000000  0.4211610000000 1.0
C      1  0.5310200000000  0.4572210000000  0.4098680000000 1.0
C      1  0.5836500000000  0.4775090000000  0.4593150000000 1.0
C      1  0.4702410000000  0.4753800000000  0.4434640000000 1.0
C      1  0.5628670000000  0.4210190000000  0.4248220000000 1.0
C      1  0.5137480000000  0.4108860000000  0.4194250000000 1.0
C      1  0.4971850000000  0.6185370000000  0.5247640000000 1.0
C      1  0.5436630000000  0.5099300000000  0.6030240000000 1.0
C      1  0.5415640000000  0.5457420000000  0.4002400000000 1.0
C      1  0.4457720000000  0.4395920000000  0.4787320000000 1.0
C      1  0.5915880000000  0.5232940000000  0.4698960000000 1.0
C      1  0.4500930000000  0.5599130000000  0.4318290000000 1.0
C      1  0.5875580000000  0.4491100000000  0.4559340000000 1.0
C      1  0.5211750000000  0.4114580000000  0.5177790000000 1.0
C      1  0.4624560000000  0.5438740000000  0.6081180000000 1.0
C      1  0.5118560000000  0.4743640000000  0.3967330000000 1.0
C      1  0.4858330000000  0.4459490000000  0.5410670000000 1.0
C      1  0.4816790000000  0.4829150000000  0.5760300000000 1.0
C      1  0.4732820000000  0.5546320000000  0.5478840000000 1.0
C      1  0.5611680000000  0.4937250000000  0.5849360000000 1.0
C      1  0.4262490000000  0.5541140000000  0.5709430000000 1.0
C      1  0.4965870000000  0.4664750000000  0.5579760000000 1.0
C      1  0.4130380000000  0.5086620000000  0.4851610000000 1.0
C      1  0.5655830000000  0.4069310000000  0.4508490000000 1.0
C      1  0.5203300000000  0.4581760000000  0.4534280000000 1.0
C      1  0.4265690000000  0.4785760000000  0.5737500000000 1.0
C      1  0.5247700000000  0.4065430000000  0.4723680000000 1.0
C      1  0.4946660000000  0.4010710000000  0.4363510000000 1.0
C      1  0.4893600000000  0.5567430000000  0.4660530000000 1.0
C      1  0.5027510000000  0.5201940000000  0.5362200000000 1.0
C      1  0.4558920000000  0.4357430000000  0.4269680000000 1.0
C      1  0.3800740000000  0.4701500000000  0.5525170000000 1.0
C      1  0.5328560000000  0.5593320000000  0.5869540000000 1.0
C      1  0.5842200000000  0.4405590000000  0.4276320000000 1.0
C      1  0.6067080000000  0.5012310000000  0.5059540000000 1.0
C      1  0.5191330000000  0.5515770000000  0.5063240000000 1.0
C      1  0.4816060000000  0.5270280000000  0.6181800000000 1.0
C      1  0.5440500000000  0.5710900000000  0.4400010000000 1.0
C      1  0.4416400000000  0.4358350000000  0.5281240000000 1.0
C      1  0.5531580000000  0.4551930000000  0.5542790000000 1.0
C      1  0.5419850000000  0.5656650000000  0.4675620000000 1.0
C      1  0.4501290000000  0.4177660000000  0.5506250000000 1.0
C      1  0.5293650000000  0.5799560000000  0.5399880000000 1.0
C      1  0.5626990000000  0.5587100000000  0.4856790000000 1.0
C      1  0.6164770000000  0.4788170000000  0.5195730000000 1.0
C      1  0.4587870000000  0.3980780000000  0.5058810000000 1.0
C      1  0.4688210000000  0.5724540000000  0.5697100000000 1.0
C      1  0.4590370000000  0.3943460000000  0.5352590000000 1.0
C      1  0.4674390000000  0.4606640000000  0.4188630000000 1.0
C      1  0.5621420000000  0.4865850000000  0.4394490000000 1.0
C      1  0.4462270000000  0.6025570000000  0.5147360000000 1.0
C      1  0.4821940000000  0.5280990000000  0.5537620000000 1.0
C      1  0.4069720000000  0.4799770000000  0.4862200000000 1.0
C      1  0.4397820000000  0.5021370000000  0.5639870000000 1.0
C      1  0.5432420000000  0.5704600000000  0.5624490000000 1.0
C      1  0.4932010000000  0.5755330000000  0.4402120000000 1.0
C      1  0.4760930000000  0.4040740000000  0.4584610000000 1.0
C      1  0.4684190000000  0.5538750000000  0.4910260000000 1.0
C      1  0.4170760000000  0.5569480000000  0.5189790000000 1.0
C      1  0.4745070000000  0.5667150000000  0.4180800000000 1.0
C      1  0.4442130000000  0.5705430000000  0.4818520000000 1.0
C      1  0.4683770000000  0.4543020000000  0.4937570000000 1.0
C      1  0.5175570000000  0.5608360000000  0.4020590000000 1.0
C      1  0.5773960000000  0.5336430000000  0.4263560000000 1.0
C      1  0.3872620000000  0.4688850000000  0.5023640000000 1.0
C      1  0.5363680000000  0.4279260000000  0.4132420000000 1.0
C      1  0.4265590000000  0.4628590000000  0.4685510000000 1.0
C      1  0.4679050000000  0.4877080000000  0.5248000000000 1.0
C      1  0.5767260000000  0.4255790000000  0.4712700000000 1.0
C      1  0.4512210000000  0.5104880000000  0.5194770000000 1.0
C      1  0.5188730000000  0.5768080000000  0.4270810000000 1.0
C      1  0.5528560000000  0.4798990000000  0.5072070000000 1.0
C      1  0.4500330000000  0.5594270000000  0.5872010000000 1.0
C      1  0.5565430000000  0.5083670000000  0.5006660000000 1.0
C      1  0.4708490000000  0.6149260000000  0.5127500000000 1.0
C      1  0.5088740000000  0.4002930000000  0.4944170000000 1.0
C      1  0.4227900000000  0.5440340000000  0.5437960000000 1.0
C      1  0.4821830000000  0.4728980000000  0.3974310000000 1.0
C      1  0.3896460000000  0.5515400000000  0.4750930000000 1.0
C      1  0.4797990000000  0.4816730000000  0.6041450000000 1.0
C      1  0.4923970000000  0.5199470000000  0.3917030000000 1.0
C      1  0.5153850000000  0.4779710000000  0.5399240000000 1.0
C      1  0.4394270000000  0.5151730000000  0.4208550000000 1.0
C      1  0.4401360000000  0.4544600000000  0.5809520000000 1.0
C      1  0.3764040000000  0.4659550000000  0.5264680000000 1.0
C      1  0.5739440000000  0.5139350000000  0.5415010000000 1.0
C      1  0.5759440000000  0.5122510000000  0.5691280000000 1.0
C      1  0.5069760000000  0.5712030000000  0.5233420000000 1.0
C      1  0.5570340000000  0.4284320000000  0.5460740000000 1.0
C      1  0.5255030000000  0.5317530000000  0.5254700000000 1.0
C      1  0.4312470000000  0.5788840000000  0.5063560000000 1.0
C      1  0.4561700000000  0.4244210000000  0.4537800000000 1.0
C      1  0.4452980000000  0.5052400000000  0.3965980000000 1.0
C      1  0.5151620000000  0.5065340000000  0.4754370000000 1.0
C      1  0.5251090000000  0.6158510000000  0.5130150000000 1.0
C      1  0.4977470000000  0.4947530000000  0.5232160000000 1.0
C      1  0.5831070000000  0.5578830000000  0.5308670000000 1.0
C      1  0.4475020000000  0.4852640000000  0.4597500000000 1.0
C      1  0.4939660000000  0.4675620000000  0.4570210000000 1.0
C      1  0.4092310000000  0.4529590000000  0.4455830000000 1.0
C      1  0.5038250000000  0.5141770000000  0.4522790000000 1.0
C      1  0.5709880000000  0.5602320000000  0.5585490000000 1.0
C      1  0.5686160000000  0.5304120000000  0.4846710000000 1.0
C      1  0.5066230000000  0.4428880000000  0.5979970000000 1.0
C      1  0.5499440000000  0.4672350000000  0.5804980000000 1.0
C      1  0.5224730000000  0.4925820000000  0.6118930000000 1.0
C      1  0.5975530000000  0.5341330000000  0.4452580000000 1.0
C      1  0.5177160000000  0.5036060000000  0.3944470000000 1.0
C      1  0.4330600000000  0.5173230000000  0.5405630000000 1.0
C      1  0.5263630000000  0.4645310000000  0.5992240000000 1.0
C      1  0.4809530000000  0.3970330000000  0.4870040000000 1.0
C      1  0.3772500000000  0.5650930000000  0.4566130000000 1.0
C      1  0.4717130000000  0.4992870000000  0.3894640000000 1.0
C      1  0.4550250000000  0.5319320000000  0.4369630000000 1.0
C      1  0.4945890000000  0.6150710000000  0.5533940000000 1.0
C      1  0.5489680000000  0.5377730000000  0.5974440000000 1.0
C      1  0.5734500000000  0.5393120000000  0.5795640000000 1.0
C      1  0.4634500000000  0.4572810000000  0.5231950000000 1.0
C      1  0.5673100000000  0.5740080000000  0.5103310000000 1.0
C      1  0.5446360000000  0.3911150000000  0.4604360000000 1.0
C      1  0.5028710000000  0.4243900000000  0.5349740000000 1.0
C      1  0.4389700000000  0.4206950000000  0.5018160000000 1.0
C      1  0.3987520000000  0.4766080000000  0.5703960000000 1.0
C      1  0.4563710000000  0.5243130000000  0.4945050000000 1.0
C      1  0.4896150000000  0.4689600000000  0.4842990000000 1.0
C      1  0.6122200000000  0.4524900000000  0.5214170000000 1.0
C      1  0.4910560000000  0.5487400000000  0.3991570000000 1.0
C      1  0.5630270000000  0.5087740000000  0.4209700000000 1.0
C      1  0.5416320000000  0.4708490000000  0.5328700000000 1.0
C      1  0.4952670000000  0.5017180000000  0.6172960000000 1.0
C      1  0.5392490000000  0.4692290000000  0.4354840000000 1.0
C      1  0.3990320000000  0.5338840000000  0.4967510000000 1.0
C      1  0.4682740000000  0.5062790000000  0.5669830000000 1.0
C      1  0.5417370000000  0.5166070000000  0.4017900000000 1.0
C      1  0.5257100000000  0.4341010000000  0.4663020000000 1.0
C      1  0.4828200000000  0.4311710000000  0.5898120000000 1.0
C      1  0.4797870000000  0.5640910000000  0.5220550000000 1.0
C      1  0.4394770000000  0.5737200000000  0.4541280000000 1.0
C      1  0.4813630000000  0.5976400000000  0.5694350000000 1.0
C      1  0.3764380000000  0.5258140000000  0.5150900000000 1.0
C      1  0.5455140000000  0.5945010000000  0.5197490000000 1.0
C      1  0.5732380000000  0.4232050000000  0.5002370000000 1.0
END
