TITL C-3866675-3766-500 0.575529983149375 125000 -266.972991595549 0 0 46 (C1) n - 1
REM
REM in /home/nfs/bkarasulu/CARBON/AIRSS/Generating-Clusters/LCBOP/Only-C1/SD-CG/FIRE-CG
REM
REM
REM
REM
REM
REM ./C.cell (11c1c37f851c82e70ff6c80c92926a4b)
REM AIRSS Version 0.9.1 bugfix July 2018 build 013d7b7c2542+ Fri, 06 Jul 2018 19:26:36 +0100
REM compiler GCC version 9.2.1 20190827 (Red Hat 9.2.1-1)
REM options -cpp -mtune=generic -march=x86-64 -g -O0 -fpre-include=/usr/include/finclude/math-vector-fortran.h
REM seed 2094151914 1309976444 -1615033315 660639810 -1087119978 -1125619225 153261354 560079524 1602776074 1238433848 698290872 -187327687 2067695586 1917515711 -546886516 -1501143545 -64841341 -1771986075 1980806523 1033208049 118386375 1092864061 -276488592 333560027 -1722174873 486638527 1031818710 -1208029838 236316849 1034605125 341867035 361592574 -1588898317
REM
CELL 1.54180   50.00000   50.00000   50.00000   90.00000   90.00000   90.00000
LATT -1
SFAC C  
C      1  0.5557880000000  0.5202870000000  0.4917320000000 1.0
C      1  0.4059200000000  0.5582400000000  0.5348500000000 1.0
C      1  0.5378910000000  0.4335640000000  0.5103640000000 1.0
C      1  0.5072130000000  0.4624840000000  0.5356040000000 1.0
C      1  0.4562410000000  0.4720400000000  0.4201090000000 1.0
C      1  0.4510470000000  0.4697750000000  0.3678390000000 1.0
C      1  0.4620900000000  0.5033330000000  0.4861120000000 1.0
C      1  0.4627480000000  0.4772510000000  0.4737230000000 1.0
C      1  0.4634000000000  0.5467940000000  0.5416080000000 1.0
C      1  0.4925200000000  0.4433980000000  0.4941180000000 1.0
C      1  0.4498910000000  0.5695810000000  0.5518180000000 1.0
C      1  0.4687320000000  0.5262670000000  0.4707730000000 1.0
C      1  0.5132310000000  0.4460330000000  0.5133350000000 1.0
C      1  0.4570060000000  0.5052510000000  0.5144790000000 1.0
C      1  0.4492130000000  0.5451290000000  0.4643220000000 1.0
C      1  0.4325820000000  0.4411290000000  0.5246010000000 1.0
C      1  0.5159780000000  0.5352030000000  0.5448830000000 1.0
C      1  0.4616570000000  0.4813040000000  0.5294630000000 1.0
C      1  0.5638430000000  0.5191520000000  0.4191540000000 1.0
C      1  0.4950480000000  0.5293640000000  0.4618710000000 1.0
C      1  0.4859950000000  0.4773170000000  0.5433060000000 1.0
C      1  0.6052690000000  0.4740630000000  0.4962390000000 1.0
C      1  0.5391660000000  0.5253540000000  0.5366280000000 1.0
C      1  0.4589850000000  0.4736320000000  0.4464030000000 1.0
C      1  0.5475890000000  0.5192720000000  0.4649880000000 1.0
C      1  0.5655710000000  0.5100920000000  0.4448880000000 1.0
C      1  0.4905410000000  0.5425640000000  0.5458890000000 1.0
C      1  0.4536210000000  0.4708920000000  0.3937580000000 1.0
C      1  0.4521580000000  0.4577850000000  0.5159140000000 1.0
C      1  0.4305220000000  0.5627170000000  0.4597970000000 1.0
C      1  0.4669960000000  0.4552220000000  0.4914470000000 1.0
C      1  0.4235420000000  0.5753510000000  0.5490260000000 1.0
C      1  0.3788930000000  0.5631970000000  0.5313000000000 1.0
C      1  0.3534890000000  0.5678730000000  0.5278370000000 1.0
C      1  0.5785920000000  0.4979000000000  0.5278880000000 1.0
C      1  0.5608550000000  0.4215240000000  0.5077390000000 1.0
C      1  0.6254800000000  0.4548660000000  0.5637180000000 1.0
C      1  0.4468940000000  0.5285050000000  0.5266180000000 1.0
C      1  0.5211740000000  0.5260600000000  0.4589030000000 1.0
C      1  0.5581570000000  0.5148400000000  0.5190920000000 1.0
C      1  0.5991850000000  0.4795000000000  0.5230590000000 1.0
C      1  0.5997540000000  0.4788130000000  0.4706490000000 1.0
C      1  0.6128190000000  0.4670840000000  0.5439100000000 1.0
C      1  0.5854060000000  0.4917330000000  0.4523730000000 1.0
C      1  0.6379150000000  0.4428080000000  0.5832020000000 1.0
C      1  0.4193940000000  0.5354540000000  0.5246690000000 1.0
END
