TITL C-3866672-3872-599 0.980761245214397 125000 -223.886917073151 0 0 39 (C1) n - 1
REM
REM in /home/nfs/bkarasulu/CARBON/AIRSS/Generating-Clusters/LCBOP/Only-C1/SD-CG/FIRE-CG
REM
REM
REM
REM
REM
REM ./C.cell (11c1c37f851c82e70ff6c80c92926a4b)
REM AIRSS Version 0.9.1 bugfix July 2018 build 013d7b7c2542+ Fri, 06 Jul 2018 19:26:36 +0100
REM compiler GCC version 9.2.1 20190827 (Red Hat 9.2.1-1)
REM options -cpp -mtune=generic -march=x86-64 -g -O0 -fpre-include=/usr/include/finclude/math-vector-fortran.h
REM seed 1800275622 -1492601968 951963463 1907702310 -891145419 -877930860 -1811642123 1182327501 1567052028 1967539668 2073086496 678175427 -210658843 -689442422 -118405 -823828126 -1968203630 -1999757258 -256920043 155478369 1694507233 -648227271 2130445231 -826785824 -1491547142 1498224410 1461983403 1360930743 1925770760 -1752358392 -479071666 -1329225807 1914017897
REM
CELL 1.54180   50.00000   50.00000   50.00000   90.00000   90.00000   90.00000
LATT -1
SFAC C  
C      1  0.3457120000000  0.4850430000000  0.5640620000000 1.0
C      1  0.4632210000000  0.5710580000000  0.4730190000000 1.0
C      1  0.3675610000000  0.4720640000000  0.5698400000000 1.0
C      1  0.4744040000000  0.5030800000000  0.4772880000000 1.0
C      1  0.6044930000000  0.4715570000000  0.4848700000000 1.0
C      1  0.4600380000000  0.4807720000000  0.5399790000000 1.0
C      1  0.4789490000000  0.5512820000000  0.4611180000000 1.0
C      1  0.5617420000000  0.4485850000000  0.4317900000000 1.0
C      1  0.5789050000000  0.4953190000000  0.5237390000000 1.0
C      1  0.5449720000000  0.5247660000000  0.5493120000000 1.0
C      1  0.5167880000000  0.4983860000000  0.4964840000000 1.0
C      1  0.4873380000000  0.5291450000000  0.4761270000000 1.0
C      1  0.5599450000000  0.5397900000000  0.5670020000000 1.0
C      1  0.5743350000000  0.5539190000000  0.5835060000000 1.0
C      1  0.5071370000000  0.4992570000000  0.5402960000000 1.0
C      1  0.5112500000000  0.4513260000000  0.4174480000000 1.0
C      1  0.4931310000000  0.5540740000000  0.4091150000000 1.0
C      1  0.3911060000000  0.4582510000000  0.5759180000000 1.0
C      1  0.3907580000000  0.4374830000000  0.5937150000000 1.0
C      1  0.4343830000000  0.6073920000000  0.4977360000000 1.0
C      1  0.5108290000000  0.5279850000000  0.4934020000000 1.0
C      1  0.4627680000000  0.4902720000000  0.4555360000000 1.0
C      1  0.6070840000000  0.4579090000000  0.4605610000000 1.0
C      1  0.4486640000000  0.5893960000000  0.4854140000000 1.0
C      1  0.5842250000000  0.4524770000000  0.4453160000000 1.0
C      1  0.5296800000000  0.4907410000000  0.5214020000000 1.0
C      1  0.4865910000000  0.4603810000000  0.4214830000000 1.0
C      1  0.4862940000000  0.5535030000000  0.4342570000000 1.0
C      1  0.5159850000000  0.5276630000000  0.5434380000000 1.0
C      1  0.4375430000000  0.4733270000000  0.5518130000000 1.0
C      1  0.4878750000000  0.4882370000000  0.4982960000000 1.0
C      1  0.6317340000000  0.4499440000000  0.4517740000000 1.0
C      1  0.4150100000000  0.4659100000000  0.5635970000000 1.0
C      1  0.5957660000000  0.4842470000000  0.5064710000000 1.0
C      1  0.5113070000000  0.5419830000000  0.5186810000000 1.0
C      1  0.4832490000000  0.4887900000000  0.5272300000000 1.0
C      1  0.5372160000000  0.4477070000000  0.4216780000000 1.0
C      1  0.4683640000000  0.4743630000000  0.4349050000000 1.0
C      1  0.5536500000000  0.5026150000000  0.5323830000000 1.0
END
