TITL C-3866674-3872-448 -1.58962712059243e-06 125000 -479.997226707517 0 0 78 (C1) n - 1
REM
REM in /home/nfs/bkarasulu/CARBON/AIRSS/Generating-Clusters/LCBOP/Only-C1/SD-CG/FIRE-CG
REM
REM
REM
REM
REM
REM ./C.cell (11c1c37f851c82e70ff6c80c92926a4b)
REM AIRSS Version 0.9.1 bugfix July 2018 build 013d7b7c2542+ Fri, 06 Jul 2018 19:26:36 +0100
REM compiler GCC version 9.2.1 20190827 (Red Hat 9.2.1-1)
REM options -cpp -mtune=generic -march=x86-64 -g -O0 -fpre-include=/usr/include/finclude/math-vector-fortran.h
REM seed 206026592 -1409504008 -1161900057 -224457698 -564603369 764842791 2441327 -1804964929 2145168488 -1881136758 -1267992082 1774881899 414868646 -1841406667 -1980197907 1775918268 -184977004 -1334169410 1601683380 1782932355 1957244152 115165848 -1413414697 -945812548 150454767 -1524345351 250636680 -582037979 -1616427875 1086806178 -625786282 -347053536 -621545249
REM
CELL 1.54180   50.00000   50.00000   50.00000   90.00000   90.00000   90.00000
LATT -1
SFAC C  
C      1  0.4796140000000  0.4575810000000  0.4156790000000 1.0
C      1  0.5085010000000  0.4484160000000  0.5253700000000 1.0
C      1  0.5318680000000  0.4362940000000  0.5125470000000 1.0
C      1  0.4427750000000  0.4903320000000  0.5569860000000 1.0
C      1  0.4211510000000  0.5325920000000  0.4797930000000 1.0
C      1  0.4784450000000  0.5008310000000  0.4597510000000 1.0
C      1  0.4059070000000  0.5035480000000  0.5307420000000 1.0
C      1  0.4268020000000  0.4515480000000  0.4730810000000 1.0
C      1  0.5576370000000  0.4480910000000  0.5160220000000 1.0
C      1  0.4799650000000  0.4391040000000  0.5262210000000 1.0
C      1  0.4658630000000  0.5511800000000  0.5346970000000 1.0
C      1  0.5688050000000  0.5308100000000  0.4053620000000 1.0
C      1  0.6006270000000  0.5122540000000  0.5377360000000 1.0
C      1  0.4631420000000  0.4859950000000  0.5776190000000 1.0
C      1  0.4586540000000  0.4745880000000  0.4121000000000 1.0
C      1  0.4218790000000  0.4693890000000  0.4536440000000 1.0
C      1  0.4723970000000  0.4584590000000  0.5749370000000 1.0
C      1  0.4039010000000  0.4790590000000  0.5188270000000 1.0
C      1  0.4261270000000  0.4951840000000  0.4425770000000 1.0
C      1  0.4648580000000  0.4476620000000  0.5492700000000 1.0
C      1  0.4898440000000  0.4954110000000  0.5292110000000 1.0
C      1  0.4977650000000  0.4990900000000  0.4373420000000 1.0
C      1  0.4369000000000  0.4459410000000  0.4989670000000 1.0
C      1  0.5849330000000  0.4896160000000  0.4961940000000 1.0
C      1  0.4700140000000  0.4151550000000  0.4818580000000 1.0
C      1  0.4181300000000  0.5171240000000  0.4582840000000 1.0
C      1  0.5711150000000  0.5347560000000  0.5054910000000 1.0
C      1  0.5740220000000  0.5219750000000  0.4581630000000 1.0
C      1  0.5874850000000  0.5125770000000  0.5131870000000 1.0
C      1  0.5713700000000  0.5192740000000  0.6065440000000 1.0
C      1  0.5823580000000  0.4969370000000  0.4688960000000 1.0
C      1  0.4942920000000  0.5551440000000  0.5336460000000 1.0
C      1  0.4307220000000  0.5123860000000  0.5427220000000 1.0
C      1  0.5199490000000  0.5183340000000  0.6138510000000 1.0
C      1  0.4630140000000  0.5660990000000  0.4525820000000 1.0
C      1  0.4570180000000  0.5481710000000  0.4330460000000 1.0
C      1  0.6011760000000  0.5139860000000  0.5642400000000 1.0
C      1  0.4765010000000  0.5770140000000  0.4736280000000 1.0
C      1  0.5084580000000  0.5356250000000  0.4672100000000 1.0
C      1  0.5210140000000  0.5604130000000  0.4704950000000 1.0
C      1  0.4924490000000  0.5077260000000  0.5029060000000 1.0
C      1  0.5015340000000  0.5748710000000  0.4873660000000 1.0
C      1  0.5464040000000  0.5201180000000  0.6155830000000 1.0
C      1  0.5524400000000  0.5829180000000  0.4967450000000 1.0
C      1  0.4428150000000  0.5352270000000  0.5288890000000 1.0
C      1  0.4892270000000  0.5160850000000  0.4165480000000 1.0
C      1  0.5491580000000  0.5645680000000  0.4743910000000 1.0
C      1  0.5091010000000  0.5330590000000  0.5451570000000 1.0
C      1  0.5505230000000  0.5435140000000  0.5235390000000 1.0
C      1  0.5043150000000  0.4271040000000  0.4467150000000 1.0
C      1  0.4251390000000  0.4602840000000  0.5204210000000 1.0
C      1  0.5267050000000  0.4203850000000  0.4626650000000 1.0
C      1  0.4415900000000  0.4642040000000  0.5428610000000 1.0
C      1  0.4831050000000  0.5056530000000  0.5784550000000 1.0
C      1  0.5301750000000  0.4202840000000  0.4893670000000 1.0
C      1  0.5339790000000  0.5227480000000  0.5338110000000 1.0
C      1  0.5187590000000  0.4752200000000  0.4738810000000 1.0
C      1  0.4805470000000  0.4154390000000  0.4570610000000 1.0
C      1  0.5665290000000  0.5416340000000  0.4774350000000 1.0
C      1  0.4453500000000  0.4986540000000  0.4214030000000 1.0
C      1  0.5343330000000  0.4945240000000  0.5219380000000 1.0
C      1  0.5764800000000  0.4649200000000  0.5068290000000 1.0
C      1  0.5387380000000  0.5701190000000  0.5188040000000 1.0
C      1  0.4917130000000  0.5123310000000  0.5526800000000 1.0
C      1  0.4879020000000  0.5195680000000  0.4785350000000 1.0
C      1  0.5265210000000  0.4939170000000  0.4942600000000 1.0
C      1  0.4971120000000  0.5135570000000  0.6011240000000 1.0
C      1  0.5092300000000  0.5714730000000  0.5155450000000 1.0
C      1  0.5906960000000  0.5167910000000  0.5884890000000 1.0
C      1  0.4622960000000  0.4318180000000  0.5033470000000 1.0
C      1  0.4715840000000  0.4759070000000  0.4714690000000 1.0
C      1  0.4933830000000  0.4626610000000  0.4813730000000 1.0
C      1  0.5027310000000  0.4519200000000  0.4320840000000 1.0
C      1  0.4311800000000  0.5400160000000  0.5033480000000 1.0
C      1  0.5125760000000  0.4763910000000  0.5325410000000 1.0
C      1  0.4613500000000  0.5234340000000  0.4191970000000 1.0
C      1  0.5147200000000  0.4764460000000  0.4439320000000 1.0
C      1  0.5726120000000  0.5265680000000  0.4307910000000 1.0
END
