TITL C-3866669-3764-274 7.48251988543086e-08 125000 -793.552424914317 0 0 131 (C1) n - 1
REM
REM in /home/nfs/bkarasulu/CARBON/AIRSS/Generating-Clusters/LCBOP/Only-C1/SD-CG/HFTN-CG/FIRE-CG
REM
REM
REM
REM
REM
REM ./C.cell (11c1c37f851c82e70ff6c80c92926a4b)
REM AIRSS Version 0.9.1 bugfix July 2018 build 013d7b7c2542+ Fri, 06 Jul 2018 19:26:36 +0100
REM compiler GCC version 9.2.1 20190827 (Red Hat 9.2.1-1)
REM options -cpp -mtune=generic -march=x86-64 -g -O0 -fpre-include=/usr/include/finclude/math-vector-fortran.h
REM seed -821538315 -38972883 -1031587914 -1702224187 -1459477418 -230166018 -774316907 -876516625 -1617690265 -2063660277 1837674898 1529675417 56999157 1282175037 -2113939389 1643546100 -429957657 -1312998372 457448175 1903707826 1863118175 653534010 -1868627345 454289441 405103211 542016158 -375121611 859580666 1323380364 1935286805 178792127 360485638 -1623886522
REM
CELL 1.54180   50.00000   50.00000   50.00000   90.00000   90.00000   90.00000
LATT -1
SFAC C  
C      1  0.5665030000000  0.4374810000000  0.4717020000000 1.0
C      1  0.4495990000000  0.4957920000000  0.5236570000000 1.0
C      1  0.4584130000000  0.5218890000000  0.4635170000000 1.0
C      1  0.4296500000000  0.4825590000000  0.5387510000000 1.0
C      1  0.5821710000000  0.4597870000000  0.5152050000000 1.0
C      1  0.4989150000000  0.5666370000000  0.4756060000000 1.0
C      1  0.4267860000000  0.5731770000000  0.4706840000000 1.0
C      1  0.5289870000000  0.4824580000000  0.5740130000000 1.0
C      1  0.5986490000000  0.5056050000000  0.4847580000000 1.0
C      1  0.4327590000000  0.5911340000000  0.5224310000000 1.0
C      1  0.4671790000000  0.3970580000000  0.5889490000000 1.0
C      1  0.4175310000000  0.4598490000000  0.5272250000000 1.0
C      1  0.5301870000000  0.5146790000000  0.4314340000000 1.0
C      1  0.4795880000000  0.4510260000000  0.5297720000000 1.0
C      1  0.4534240000000  0.5305150000000  0.4141410000000 1.0
C      1  0.5873910000000  0.4822340000000  0.4712510000000 1.0
C      1  0.4697440000000  0.5577240000000  0.5875110000000 1.0
C      1  0.5730330000000  0.5438170000000  0.4059470000000 1.0
C      1  0.5041490000000  0.4502720000000  0.4578350000000 1.0
C      1  0.5079000000000  0.5441400000000  0.5168320000000 1.0
C      1  0.5402500000000  0.4295260000000  0.4795260000000 1.0
C      1  0.3970890000000  0.5392030000000  0.5191090000000 1.0
C      1  0.4588380000000  0.4841280000000  0.4985140000000 1.0
C      1  0.4776930000000  0.5892000000000  0.5268700000000 1.0
C      1  0.4926440000000  0.4045440000000  0.5856090000000 1.0
C      1  0.5800170000000  0.5331900000000  0.5329810000000 1.0
C      1  0.4188820000000  0.5190800000000  0.4421470000000 1.0
C      1  0.5008850000000  0.5161240000000  0.5553780000000 1.0
C      1  0.5498350000000  0.5029230000000  0.4481750000000 1.0
C      1  0.4990200000000  0.5142800000000  0.4739570000000 1.0
C      1  0.5253110000000  0.4350870000000  0.5648020000000 1.0
C      1  0.5713430000000  0.5656630000000  0.4217460000000 1.0
C      1  0.5195590000000  0.3931780000000  0.5365150000000 1.0
C      1  0.5598090000000  0.5520120000000  0.5822220000000 1.0
C      1  0.5435790000000  0.5073650000000  0.4750400000000 1.0
C      1  0.5102230000000  0.5267680000000  0.3920100000000 1.0
C      1  0.4208100000000  0.4378670000000  0.5125110000000 1.0
C      1  0.5119160000000  0.4674960000000  0.5014960000000 1.0
C      1  0.5486780000000  0.4922570000000  0.5280570000000 1.0
C      1  0.5342010000000  0.5525850000000  0.5740650000000 1.0
C      1  0.5873800000000  0.4937310000000  0.5550360000000 1.0
C      1  0.4059090000000  0.4717610000000  0.4523230000000 1.0
C      1  0.5263960000000  0.6023030000000  0.4916520000000 1.0
C      1  0.5673330000000  0.5804130000000  0.4441830000000 1.0
C      1  0.4569720000000  0.5728170000000  0.5682930000000 1.0
C      1  0.4569020000000  0.5427860000000  0.4831670000000 1.0
C      1  0.5525990000000  0.5213650000000  0.5291640000000 1.0
C      1  0.4830210000000  0.4682530000000  0.4576110000000 1.0
C      1  0.5306550000000  0.4493070000000  0.5425040000000 1.0
C      1  0.4920250000000  0.5406070000000  0.5942310000000 1.0
C      1  0.4997000000000  0.5020990000000  0.4003900000000 1.0
C      1  0.5889460000000  0.5313210000000  0.4767640000000 1.0
C      1  0.5367430000000  0.5452700000000  0.5246110000000 1.0
C      1  0.5782150000000  0.5323440000000  0.5850910000000 1.0
C      1  0.5704080000000  0.4383920000000  0.4430810000000 1.0
C      1  0.3854430000000  0.5205850000000  0.5038300000000 1.0
C      1  0.4766680000000  0.3966310000000  0.4833220000000 1.0
C      1  0.5000960000000  0.5938990000000  0.4856240000000 1.0
C      1  0.5533120000000  0.5699640000000  0.5188850000000 1.0
C      1  0.5258100000000  0.4584270000000  0.3994920000000 1.0
C      1  0.4295150000000  0.4282090000000  0.6025110000000 1.0
C      1  0.5114670000000  0.5409630000000  0.4860090000000 1.0
C      1  0.4843000000000  0.4661550000000  0.5538250000000 1.0
C      1  0.4838470000000  0.4677050000000  0.6114570000000 1.0
C      1  0.4991440000000  0.4883670000000  0.5686840000000 1.0
C      1  0.5631980000000  0.5752100000000  0.4716910000000 1.0
C      1  0.5670250000000  0.4626300000000  0.4287850000000 1.0
C      1  0.5056520000000  0.4334430000000  0.4349740000000 1.0
C      1  0.5656700000000  0.5474410000000  0.4770390000000 1.0
C      1  0.4483700000000  0.5401910000000  0.5099540000000 1.0
C      1  0.4367240000000  0.5076950000000  0.4193390000000 1.0
C      1  0.4729560000000  0.4635170000000  0.4081030000000 1.0
C      1  0.5209880000000  0.4509620000000  0.4802880000000 1.0
C      1  0.4428890000000  0.4061320000000  0.5954590000000 1.0
C      1  0.5009470000000  0.5163170000000  0.6090970000000 1.0
C      1  0.5065180000000  0.4972940000000  0.4285110000000 1.0
C      1  0.4227490000000  0.5465320000000  0.5194220000000 1.0
C      1  0.5521640000000  0.4693270000000  0.4047000000000 1.0
C      1  0.4712730000000  0.5332150000000  0.4372180000000 1.0
C      1  0.4624510000000  0.5210940000000  0.5254050000000 1.0
C      1  0.3954010000000  0.5053030000000  0.4844540000000 1.0
C      1  0.4903220000000  0.5238430000000  0.5304510000000 1.0
C      1  0.4371190000000  0.4390000000000  0.4672180000000 1.0
C      1  0.4614170000000  0.4136610000000  0.5009290000000 1.0
C      1  0.4512190000000  0.4817150000000  0.4124860000000 1.0
C      1  0.4225620000000  0.4749810000000  0.5896430000000 1.0
C      1  0.4339820000000  0.4556770000000  0.6064540000000 1.0
C      1  0.5040820000000  0.4059010000000  0.5180200000000 1.0
C      1  0.5468090000000  0.4972020000000  0.5905150000000 1.0
C      1  0.4425900000000  0.5910500000000  0.4935290000000 1.0
C      1  0.6108160000000  0.5048790000000  0.5109570000000 1.0
C      1  0.5099980000000  0.5385800000000  0.5715740000000 1.0
C      1  0.4193200000000  0.5501550000000  0.4543930000000 1.0
C      1  0.4799860000000  0.4230880000000  0.5222950000000 1.0
C      1  0.4155980000000  0.4973390000000  0.4642340000000 1.0
C      1  0.5004340000000  0.4491960000000  0.4107770000000 1.0
C      1  0.5164650000000  0.4081820000000  0.4430650000000 1.0
C      1  0.4576300000000  0.4628860000000  0.6199580000000 1.0
C      1  0.5049510000000  0.3972190000000  0.4897970000000 1.0
C      1  0.4126640000000  0.4459690000000  0.4553870000000 1.0
C      1  0.5792720000000  0.5613870000000  0.5286390000000 1.0
C      1  0.5718490000000  0.4851660000000  0.4461440000000 1.0
C      1  0.5307400000000  0.5117930000000  0.6108240000000 1.0
C      1  0.5017160000000  0.4463310000000  0.6065910000000 1.0
C      1  0.4381520000000  0.4273260000000  0.4931340000000 1.0
C      1  0.4713830000000  0.5633170000000  0.4713190000000 1.0
C      1  0.5189920000000  0.5387660000000  0.4179610000000 1.0
C      1  0.4933280000000  0.4942690000000  0.4535920000000 1.0
C      1  0.4456710000000  0.4971280000000  0.4746570000000 1.0
C      1  0.4507280000000  0.5529780000000  0.3973560000000 1.0
C      1  0.5730770000000  0.4773490000000  0.5357720000000 1.0
C      1  0.4536640000000  0.5860060000000  0.5428020000000 1.0
C      1  0.4732340000000  0.5982780000000  0.4986870000000 1.0
C      1  0.5248360000000  0.4058120000000  0.4710260000000 1.0
C      1  0.4894950000000  0.4919680000000  0.5978450000000 1.0
C      1  0.4656950000000  0.5755030000000  0.4004710000000 1.0
C      1  0.4979590000000  0.5701750000000  0.5286170000000 1.0
C      1  0.6001210000000  0.5132680000000  0.5363180000000 1.0
C      1  0.5289970000000  0.4715430000000  0.5239140000000 1.0
C      1  0.5499850000000  0.5867400000000  0.4950610000000 1.0
C      1  0.5612260000000  0.4936880000000  0.3924240000000 1.0
C      1  0.5696410000000  0.5192920000000  0.3951110000000 1.0
C      1  0.4585650000000  0.4548660000000  0.4584520000000 1.0
C      1  0.5731330000000  0.5047040000000  0.5793070000000 1.0
C      1  0.4867780000000  0.5755240000000  0.4177900000000 1.0
C      1  0.5810280000000  0.4579790000000  0.4866860000000 1.0
C      1  0.5088430000000  0.4275560000000  0.5865870000000 1.0
C      1  0.4950470000000  0.5507170000000  0.4297860000000 1.0
C      1  0.5407740000000  0.5344420000000  0.4814130000000 1.0
C      1  0.4242820000000  0.4869400000000  0.5658490000000 1.0
C      1  0.4829030000000  0.4683860000000  0.5060490000000 1.0
END
