TITL C-3866676-3738-455 -1502.75250082698 125000 -1014.34667006322 0 0 166 (C1) n - 1
REM
REM in /home/nfs/bkarasulu/CARBON/AIRSS/Generating-Clusters/LCBOP/Only-C1/SD-CG/FIRE-CG
REM
REM
REM
REM
REM
REM ./C.cell (11c1c37f851c82e70ff6c80c92926a4b)
REM AIRSS Version 0.9.1 bugfix July 2018 build 013d7b7c2542+ Fri, 06 Jul 2018 19:26:36 +0100
REM compiler GCC version 9.2.1 20190827 (Red Hat 9.2.1-1)
REM options -cpp -mtune=generic -march=x86-64 -g -O0 -fpre-include=/usr/include/finclude/math-vector-fortran.h
REM seed 2067631579 -711569240 448240626 -1525025774 798551624 -1371025948 -1301613680 -2043654890 -1282378792 -79116692 -752147627 212807695 540186371 839008189 -152911573 -425027701 -1772775788 -1878093443 -687570685 -46697834 2050338724 1794398869 39644383 452986488 -1964663507 -152674807 -1742833100 646260066 -1391142289 1780854992 898731763 902781398 1155825966
REM
CELL 1.54180   50.00000   50.00000   50.00000   90.00000   90.00000   90.00000
LATT -1
SFAC C  
C      1  0.4201950000000  0.5753000000000  0.4533700000000 1.0
C      1  0.4358240000000  0.4659610000000  0.4819510000000 1.0
C      1  0.5241940000000  0.6065410000000  0.5224190000000 1.0
C      1  0.4919560000000  0.4532110000000  0.5659590000000 1.0
C      1  0.5760870000000  0.4789620000000  0.4277210000000 1.0
C      1  0.4834760000000  0.5166730000000  0.6139380000000 1.0
C      1  0.4791160000000  0.5946040000000  0.4034850000000 1.0
C      1  0.5532940000000  0.5690220000000  0.5754580000000 1.0
C      1  0.5233580000000  0.5450530000000  0.5355120000000 1.0
C      1  0.4498090000000  0.5491570000000  0.5046490000000 1.0
C      1  0.4219250000000  0.5002090000000  0.4473950000000 1.0
C      1  0.4767930000000  0.5194460000000  0.4778830000000 1.0
C      1  0.4358690000000  0.4221700000000  0.5059480000000 1.0
C      1  0.5358250000000  0.4512890000000  0.5503000000000 1.0
C      1  0.5027640000000  0.4667880000000  0.4795060000000 1.0
C      1  0.3906810000000  0.5007770000000  0.5672650000000 1.0
C      1  0.5086760000000  0.4353640000000  0.4202390000000 1.0
C      1  0.4951030000000  0.3959040000000  0.5198030000000 1.0
C      1  0.5559870000000  0.4962300000000  0.4747370000000 1.0
C      1  0.4725180000000  0.4901120000000  0.3847430000000 1.0
C      1  0.5953380000000  0.4857560000000  0.5167920000000 1.0
C      1  0.5544760000000  0.5411710000000  0.5838800000000 1.0
C      1  0.5629160000000  0.5135220000000  0.5845480000000 1.0
C      1  0.5730060000000  0.4665340000000  0.5752750000000 1.0
C      1  0.4102330000000  0.4602380000000  0.5877380000000 1.0
C      1  0.4598500000000  0.4253110000000  0.4178950000000 1.0
C      1  0.4338690000000  0.5890000000000  0.4335080000000 1.0
C      1  0.5213740000000  0.4807740000000  0.5962490000000 1.0
C      1  0.5456960000000  0.6042750000000  0.5415930000000 1.0
C      1  0.4645590000000  0.5257660000000  0.5435230000000 1.0
C      1  0.6100390000000  0.4781090000000  0.5409230000000 1.0
C      1  0.5289410000000  0.4843590000000  0.3666710000000 1.0
C      1  0.5781520000000  0.5787870000000  0.5628040000000 1.0
C      1  0.5331830000000  0.5913370000000  0.5666370000000 1.0
C      1  0.5875400000000  0.5013410000000  0.5750720000000 1.0
C      1  0.6082250000000  0.5268240000000  0.5358810000000 1.0
C      1  0.5506420000000  0.4633520000000  0.4250050000000 1.0
C      1  0.6026050000000  0.4494530000000  0.5405420000000 1.0
C      1  0.4896160000000  0.5668380000000  0.4720860000000 1.0
C      1  0.5895410000000  0.4729770000000  0.4527650000000 1.0
C      1  0.5807370000000  0.5237060000000  0.4461840000000 1.0
C      1  0.4300380000000  0.4655590000000  0.4110190000000 1.0
C      1  0.5392700000000  0.5768780000000  0.4352690000000 1.0
C      1  0.3742440000000  0.4790610000000  0.4935180000000 1.0
C      1  0.5352080000000  0.5610050000000  0.5115180000000 1.0
C      1  0.4985420000000  0.5398080000000  0.4717000000000 1.0
C      1  0.4449030000000  0.4388140000000  0.4848390000000 1.0
C      1  0.4063110000000  0.5499510000000  0.5006050000000 1.0
C      1  0.5276110000000  0.5161160000000  0.5426920000000 1.0
C      1  0.4214420000000  0.4764480000000  0.5038490000000 1.0
C      1  0.5802660000000  0.4437460000000  0.5581510000000 1.0
C      1  0.5201780000000  0.5844840000000  0.5045170000000 1.0
C      1  0.4777090000000  0.5674560000000  0.5660940000000 1.0
C      1  0.5206580000000  0.4602440000000  0.3758230000000 1.0
C      1  0.3979350000000  0.4939110000000  0.4970980000000 1.0
C      1  0.4112270000000  0.5526290000000  0.4698590000000 1.0
C      1  0.6208030000000  0.5088630000000  0.4733140000000 1.0
C      1  0.4893520000000  0.5072330000000  0.5020670000000 1.0
C      1  0.4820740000000  0.5445050000000  0.6089670000000 1.0
C      1  0.4655230000000  0.5562700000000  0.5890890000000 1.0
C      1  0.4903990000000  0.4464820000000  0.4937060000000 1.0
C      1  0.5256700000000  0.5108830000000  0.3711560000000 1.0
C      1  0.6260380000000  0.5357060000000  0.5146900000000 1.0
C      1  0.4970830000000  0.6078960000000  0.5358630000000 1.0
C      1  0.5177880000000  0.5226410000000  0.4328290000000 1.0
C      1  0.5262890000000  0.4084890000000  0.4798550000000 1.0
C      1  0.4744370000000  0.5705250000000  0.4490600000000 1.0
C      1  0.5660120000000  0.4697440000000  0.4709250000000 1.0
C      1  0.4536750000000  0.4506610000000  0.4064120000000 1.0
C      1  0.4575970000000  0.5044850000000  0.6104740000000 1.0
C      1  0.4714070000000  0.4330410000000  0.4777860000000 1.0
C      1  0.3813770000000  0.4559930000000  0.5356240000000 1.0
C      1  0.3957410000000  0.4316310000000  0.5428040000000 1.0
C      1  0.4384130000000  0.5453080000000  0.5834000000000 1.0
C      1  0.3963800000000  0.5287020000000  0.5628310000000 1.0
C      1  0.4852230000000  0.4891900000000  0.4387670000000 1.0
C      1  0.5086260000000  0.4553490000000  0.5894100000000 1.0
C      1  0.3690590000000  0.4579610000000  0.5099100000000 1.0
C      1  0.5245830000000  0.4564090000000  0.5262960000000 1.0
C      1  0.6103010000000  0.4811920000000  0.4714690000000 1.0
C      1  0.5980560000000  0.4423300000000  0.5105860000000 1.0
C      1  0.4544380000000  0.5372930000000  0.4815290000000 1.0
C      1  0.4880300000000  0.4342690000000  0.5446580000000 1.0
C      1  0.5296050000000  0.4807360000000  0.4172490000000 1.0
C      1  0.5732720000000  0.5186210000000  0.4732730000000 1.0
C      1  0.5299450000000  0.5051850000000  0.4749650000000 1.0
C      1  0.5627820000000  0.5463130000000  0.3845650000000 1.0
C      1  0.4843730000000  0.4780510000000  0.5546700000000 1.0
C      1  0.5596030000000  0.5591390000000  0.4957660000000 1.0
C      1  0.4753290000000  0.5954760000000  0.5159780000000 1.0
C      1  0.3812290000000  0.4080810000000  0.5413510000000 1.0
C      1  0.4425300000000  0.4036200000000  0.4156320000000 1.0
C      1  0.5024410000000  0.5009260000000  0.5474760000000 1.0
C      1  0.4256510000000  0.3837660000000  0.4155370000000 1.0
C      1  0.6037650000000  0.5596090000000  0.4752620000000 1.0
C      1  0.5057120000000  0.6023580000000  0.5641950000000 1.0
C      1  0.4345510000000  0.4864870000000  0.5275940000000 1.0
C      1  0.4439530000000  0.4173920000000  0.5332530000000 1.0
C      1  0.5722820000000  0.5003260000000  0.5240650000000 1.0
C      1  0.4532510000000  0.5079970000000  0.5633320000000 1.0
C      1  0.5651380000000  0.4194850000000  0.5495550000000 1.0
C      1  0.5125790000000  0.4905200000000  0.4929700000000 1.0
C      1  0.4124300000000  0.5263280000000  0.4555720000000 1.0
C      1  0.4810690000000  0.5156940000000  0.3846920000000 1.0
C      1  0.4558010000000  0.4522610000000  0.6162050000000 1.0
C      1  0.5403810000000  0.4283890000000  0.4633420000000 1.0
C      1  0.4928760000000  0.5828960000000  0.4950080000000 1.0
C      1  0.4034090000000  0.5207710000000  0.5076180000000 1.0
C      1  0.5304660000000  0.4803550000000  0.5142020000000 1.0
C      1  0.4683880000000  0.4973740000000  0.4594360000000 1.0
C      1  0.4173340000000  0.4861140000000  0.4232030000000 1.0
C      1  0.5475320000000  0.4877540000000  0.5880390000000 1.0
C      1  0.5453220000000  0.4989720000000  0.5286220000000 1.0
C      1  0.5060680000000  0.5003080000000  0.6101460000000 1.0
C      1  0.4236700000000  0.4287940000000  0.5522730000000 1.0
C      1  0.3804170000000  0.4810890000000  0.5492980000000 1.0
C      1  0.5096440000000  0.4962860000000  0.4275720000000 1.0
C      1  0.4423690000000  0.4866070000000  0.4629180000000 1.0
C      1  0.4582200000000  0.5854320000000  0.5557450000000 1.0
C      1  0.4833090000000  0.4152460000000  0.4590200000000 1.0
C      1  0.5471870000000  0.5666320000000  0.3750100000000 1.0
C      1  0.5187470000000  0.5677990000000  0.4176740000000 1.0
C      1  0.4886860000000  0.3836040000000  0.4950140000000 1.0
C      1  0.4849710000000  0.4229860000000  0.4319490000000 1.0
C      1  0.6049610000000  0.4679460000000  0.4968010000000 1.0
C      1  0.4542410000000  0.5958670000000  0.4157920000000 1.0
C      1  0.4735390000000  0.4107910000000  0.5362400000000 1.0
C      1  0.5205370000000  0.5272530000000  0.4601850000000 1.0
C      1  0.5735050000000  0.5979340000000  0.5434880000000 1.0
C      1  0.4014240000000  0.4856730000000  0.5888760000000 1.0
C      1  0.5251050000000  0.5832080000000  0.3762330000000 1.0
C      1  0.4166890000000  0.5502520000000  0.5610650000000 1.0
C      1  0.5005540000000  0.3969190000000  0.4722100000000 1.0
C      1  0.5553140000000  0.4170510000000  0.5216160000000 1.0
C      1  0.5293520000000  0.4068260000000  0.5104820000000 1.0
C      1  0.5073530000000  0.5265410000000  0.3866180000000 1.0
C      1  0.5757010000000  0.5716310000000  0.4745260000000 1.0
C      1  0.4275950000000  0.4395490000000  0.5786330000000 1.0
C      1  0.5611080000000  0.3988950000000  0.5673560000000 1.0
C      1  0.5598610000000  0.4431970000000  0.4788620000000 1.0
C      1  0.5722280000000  0.4314960000000  0.5024240000000 1.0
C      1  0.5351190000000  0.4391350000000  0.4355200000000 1.0
C      1  0.4481270000000  0.4346380000000  0.5972300000000 1.0
C      1  0.5714750000000  0.5246610000000  0.3987240000000 1.0
C      1  0.4249260000000  0.5146670000000  0.5259610000000 1.0
C      1  0.5152600000000  0.5401230000000  0.4112530000000 1.0
C      1  0.6081830000000  0.5034780000000  0.5556330000000 1.0
C      1  0.5820910000000  0.5270070000000  0.5226670000000 1.0
C      1  0.6199050000000  0.5359220000000  0.4858490000000 1.0
C      1  0.4541010000000  0.4786430000000  0.6206550000000 1.0
C      1  0.5606310000000  0.5793150000000  0.4516170000000 1.0
C      1  0.4553890000000  0.4828370000000  0.5493140000000 1.0
C      1  0.4757350000000  0.4633940000000  0.3936030000000 1.0
C      1  0.5000350000000  0.4442050000000  0.5202670000000 1.0
C      1  0.4186150000000  0.5682730000000  0.5294570000000 1.0
C      1  0.4435590000000  0.5163300000000  0.5883190000000 1.0
C      1  0.4494080000000  0.5871490000000  0.5289080000000 1.0
C      1  0.5729040000000  0.5346170000000  0.4973540000000 1.0
C      1  0.5011680000000  0.5573310000000  0.5516520000000 1.0
C      1  0.4652470000000  0.5534240000000  0.4310260000000 1.0
C      1  0.5061850000000  0.5854420000000  0.3982700000000 1.0
C      1  0.4855300000000  0.5145950000000  0.5288380000000 1.0
C      1  0.4448840000000  0.5340180000000  0.5269930000000 1.0
C      1  0.5769430000000  0.5084950000000  0.4217880000000 1.0
C      1  0.5131640000000  0.4333850000000  0.6052370000000 1.0
C      1  0.5021610000000  0.4507480000000  0.3953270000000 1.0
END
