TITL C-3866670-4165-650 0.000173572499157709 125000 -464.873842431001 0 0 78 (C1) n - 1
REM
REM in /home/nfs/bkarasulu/CARBON/AIRSS/Generating-Clusters/LCBOP/Only-C1/SD-CG/FIRE-CG
REM
REM
REM
REM
REM
REM ./C.cell (11c1c37f851c82e70ff6c80c92926a4b)
REM AIRSS Version 0.9.1 bugfix July 2018 build 013d7b7c2542+ Fri, 06 Jul 2018 19:26:36 +0100
REM compiler GCC version 9.2.1 20190827 (Red Hat 9.2.1-1)
REM options -cpp -mtune=generic -march=x86-64 -g -O0 -fpre-include=/usr/include/finclude/math-vector-fortran.h
REM seed 1112511970 1432545126 -639038730 -1655036995 -1292845648 947163403 -1630439298 -1924272829 1012518211 -1347322677 10901155 276616449 1349615984 2036753596 -2095197358 1903615862 1041158071 -421125339 -1440530128 624195704 2113039466 -1733721203 -1454288606 992118134 1791352740 1581830660 -915710927 1159391030 -79059472 -345791367 -431124805 1600684204 -1437400926
REM
CELL 1.54180   50.00000   50.00000   50.00000   90.00000   90.00000   90.00000
LATT -1
SFAC C  
C      1  0.4420380000000  0.5306250000000  0.5581350000000 1.0
C      1  0.4517250000000  0.5515280000000  0.4808760000000 1.0
C      1  0.4749830000000  0.4866400000000  0.5192220000000 1.0
C      1  0.5126570000000  0.4705250000000  0.5799660000000 1.0
C      1  0.4189780000000  0.4424880000000  0.5080380000000 1.0
C      1  0.5774190000000  0.5554690000000  0.5038350000000 1.0
C      1  0.4417650000000  0.4557410000000  0.5493440000000 1.0
C      1  0.4542230000000  0.5566570000000  0.4309370000000 1.0
C      1  0.5133950000000  0.4592460000000  0.5276740000000 1.0
C      1  0.5081190000000  0.5623280000000  0.5560300000000 1.0
C      1  0.4348280000000  0.5181390000000  0.4512570000000 1.0
C      1  0.5019370000000  0.4124960000000  0.5168190000000 1.0
C      1  0.4176650000000  0.4885330000000  0.5174420000000 1.0
C      1  0.4784250000000  0.4123720000000  0.4755090000000 1.0
C      1  0.4618440000000  0.5646410000000  0.5269500000000 1.0
C      1  0.4631630000000  0.4558350000000  0.5688170000000 1.0
C      1  0.4294140000000  0.4819500000000  0.5437760000000 1.0
C      1  0.4654120000000  0.5699090000000  0.4981000000000 1.0
C      1  0.4547160000000  0.4142050000000  0.5204240000000 1.0
C      1  0.4766170000000  0.5452440000000  0.4204540000000 1.0
C      1  0.4901470000000  0.4263110000000  0.4556400000000 1.0
C      1  0.4772110000000  0.4096160000000  0.5036020000000 1.0
C      1  0.5084510000000  0.4323730000000  0.5351670000000 1.0
C      1  0.5091980000000  0.4699600000000  0.3844950000000 1.0
C      1  0.5143330000000  0.5174580000000  0.4780860000000 1.0
C      1  0.5845820000000  0.4619650000000  0.4718560000000 1.0
C      1  0.5740500000000  0.5405640000000  0.5281070000000 1.0
C      1  0.4910020000000  0.4729230000000  0.4661760000000 1.0
C      1  0.5427570000000  0.5555650000000  0.6185460000000 1.0
C      1  0.4662650000000  0.4632860000000  0.5087050000000 1.0
C      1  0.4189400000000  0.4943070000000  0.4542750000000 1.0
C      1  0.5119660000000  0.4788390000000  0.4102010000000 1.0
C      1  0.4617480000000  0.5248800000000  0.4872300000000 1.0
C      1  0.5787140000000  0.5441260000000  0.4781080000000 1.0
C      1  0.4367920000000  0.4344870000000  0.5290770000000 1.0
C      1  0.4095950000000  0.5153280000000  0.5129620000000 1.0
C      1  0.4327980000000  0.4736920000000  0.4710470000000 1.0
C      1  0.5701190000000  0.5499380000000  0.4511910000000 1.0
C      1  0.5154200000000  0.5096280000000  0.5264630000000 1.0
C      1  0.5387100000000  0.5559730000000  0.5928040000000 1.0
C      1  0.5843840000000  0.5139960000000  0.5253520000000 1.0
C      1  0.4203030000000  0.4683790000000  0.4967460000000 1.0
C      1  0.5062860000000  0.5356950000000  0.4569210000000 1.0
C      1  0.4841190000000  0.5669210000000  0.5447080000000 1.0
C      1  0.4394000000000  0.5485320000000  0.5360110000000 1.0
C      1  0.5373180000000  0.4751970000000  0.5685550000000 1.0
C      1  0.5354150000000  0.4757960000000  0.4922670000000 1.0
C      1  0.4358010000000  0.5043480000000  0.5602600000000 1.0
C      1  0.4916000000000  0.5766010000000  0.4876450000000 1.0
C      1  0.5947300000000  0.4722880000000  0.4964420000000 1.0
C      1  0.6093240000000  0.4571530000000  0.5137820000000 1.0
C      1  0.5403240000000  0.4666420000000  0.5192060000000 1.0
C      1  0.4994020000000  0.5625750000000  0.4640430000000 1.0
C      1  0.4600050000000  0.5086970000000  0.4641010000000 1.0
C      1  0.4625460000000  0.4803270000000  0.4665400000000 1.0
C      1  0.5668730000000  0.5267060000000  0.4363180000000 1.0
C      1  0.5563280000000  0.5489160000000  0.5484580000000 1.0
C      1  0.5006480000000  0.4853940000000  0.5297540000000 1.0
C      1  0.5063810000000  0.5056240000000  0.4170720000000 1.0
C      1  0.5135940000000  0.4885640000000  0.4773640000000 1.0
C      1  0.5479320000000  0.4624400000000  0.4384000000000 1.0
C      1  0.5518250000000  0.4732990000000  0.5450060000000 1.0
C      1  0.4660540000000  0.5117080000000  0.5111020000000 1.0
C      1  0.5731150000000  0.5032320000000  0.4518920000000 1.0
C      1  0.5266600000000  0.5544680000000  0.5091870000000 1.0
C      1  0.5205910000000  0.4609700000000  0.4309640000000 1.0
C      1  0.5887500000000  0.4998650000000  0.5009980000000 1.0
C      1  0.5205600000000  0.5274150000000  0.5047910000000 1.0
C      1  0.5002850000000  0.4517530000000  0.4492260000000 1.0
C      1  0.4977060000000  0.5286750000000  0.4303640000000 1.0
C      1  0.5695130000000  0.4750510000000  0.4514900000000 1.0
C      1  0.4178670000000  0.5404090000000  0.5191280000000 1.0
C      1  0.5343070000000  0.5558140000000  0.5651060000000 1.0
C      1  0.4909220000000  0.4520330000000  0.5751250000000 1.0
C      1  0.4395180000000  0.5472460000000  0.4535230000000 1.0
C      1  0.5137180000000  0.5778220000000  0.5050730000000 1.0
C      1  0.5825290000000  0.5147970000000  0.4775730000000 1.0
C      1  0.5012440000000  0.4288640000000  0.5621640000000 1.0
END
