TITL C-3866669-3764-167 23499.1515883601 125000 -632.300967118836 0 0 108 (C1) n - 1
REM
REM in /home/nfs/bkarasulu/CARBON/AIRSS/Generating-Clusters/LCBOP/Only-C1/SD-CG/HFTN-CG/FIRE-CG
REM
REM
REM
REM
REM
REM ./C.cell (11c1c37f851c82e70ff6c80c92926a4b)
REM AIRSS Version 0.9.1 bugfix July 2018 build 013d7b7c2542+ Fri, 06 Jul 2018 19:26:36 +0100
REM compiler GCC version 9.2.1 20190827 (Red Hat 9.2.1-1)
REM options -cpp -mtune=generic -march=x86-64 -g -O0 -fpre-include=/usr/include/finclude/math-vector-fortran.h
REM seed 2105100791 -564767840 1150249578 -1594024141 -2026505877 1432562254 1813824049 -1902512564 -1964066498 551780396 1486581613 1650632098 1973635623 -346795937 -1174775679 -1665013742 -1468838005 2067081072 -2028133777 33980791 1625695226 -906345432 1203239959 -731650926 -1118402414 -284277643 1025424970 -1573008792 1098821137 -1262240359 1331044780 -1881961195 392178703
REM
CELL 1.54180   50.00000   50.00000   50.00000   90.00000   90.00000   90.00000
LATT -1
SFAC C  
C      1  0.5993440000000  0.5024880000000  0.4823320000000 1.0
C      1  0.4955350000000  0.5436610000000  0.3976690000000 1.0
C      1  0.4565800000000  0.4659970000000  0.4416340000000 1.0
C      1  0.4352720000000  0.4914250000000  0.5518530000000 1.0
C      1  0.5312360000000  0.4870400000000  0.5592530000000 1.0
C      1  0.4940320000000  0.5794040000000  0.4665780000000 1.0
C      1  0.4552300000000  0.5609520000000  0.4425120000000 1.0
C      1  0.5460220000000  0.4314040000000  0.6033090000000 1.0
C      1  0.5515620000000  0.5634840000000  0.5432660000000 1.0
C      1  0.4515220000000  0.5649030000000  0.5434710000000 1.0
C      1  0.4727390000000  0.4842070000000  0.4582480000000 1.0
C      1  0.5759410000000  0.4525470000000  0.4707220000000 1.0
C      1  0.4336680000000  0.4530150000000  0.4909610000000 1.0
C      1  0.5068570000000  0.4831810000000  0.6021510000000 1.0
C      1  0.5233230000000  0.5816570000000  0.4722800000000 1.0
C      1  0.5258640000000  0.4572180000000  0.4914830000000 1.0
C      1  0.5471280000000  0.5025220000000  0.4764060000000 1.0
C      1  0.5098860000000  0.5080560000000  0.5620310000000 1.0
C      1  0.4542180000000  0.4585120000000  0.5129880000000 1.0
C      1  0.4543220000000  0.5722380000000  0.5085030000000 1.0
C      1  0.3970740000000  0.4690490000000  0.5311450000000 1.0
C      1  0.5913610000000  0.5188500000000  0.5069740000000 1.0
C      1  0.4688680000000  0.5170380000000  0.4905240000000 1.0
C      1  0.4849900000000  0.4096550000000  0.4927040000000 1.0
C      1  0.4983790000000  0.4605150000000  0.4831460000000 1.0
C      1  0.4342600000000  0.5665970000000  0.4877530000000 1.0
C      1  0.4421640000000  0.5344150000000  0.4349620000000 1.0
C      1  0.5103370000000  0.5337190000000  0.5096160000000 1.0
C      1  0.5046050000000  0.5850260000000  0.5139280000000 1.0
C      1  0.5123400000000  0.5206540000000  0.3988760000000 1.0
C      1  0.5257130000000  0.4709330000000  0.5831010000000 1.0
C      1  0.4543160000000  0.4085440000000  0.4887390000000 1.0
C      1  0.6028350000000  0.5047990000000  0.5540130000000 1.0
C      1  0.4922530000000  0.4765160000000  0.5303710000000 1.0
C      1  0.4912630000000  0.5542220000000  0.5779690000000 1.0
C      1  0.4174400000000  0.5445600000000  0.4798370000000 1.0
C      1  0.5161710000000  0.4795810000000  0.4270670000000 1.0
C      1  0.5939870000000  0.5607380000000  0.4803320000000 1.0
C      1  0.4949850000000  0.5289000000000  0.4872390000000 1.0
C      1  0.5315210000000  0.5807430000000  0.5005550000000 1.0
C      1  0.5558660000000  0.5678530000000  0.5145400000000 1.0
C      1  0.5138020000000  0.5360890000000  0.5709810000000 1.0
C      1  0.5403560000000  0.4394970000000  0.4137650000000 1.0
C      1  0.4954790000000  0.5428920000000  0.5304190000000 1.0
C      1  0.5369770000000  0.5286120000000  0.4108440000000 1.0
C      1  0.5391560000000  0.4616230000000  0.4301700000000 1.0
C      1  0.4557330000000  0.5017980000000  0.4721410000000 1.0
C      1  0.5613220000000  0.4658340000000  0.4487630000000 1.0
C      1  0.4129270000000  0.4716110000000  0.5537140000000 1.0
C      1  0.4969410000000  0.5706440000000  0.5367380000000 1.0
C      1  0.4597260000000  0.4310410000000  0.5276040000000 1.0
C      1  0.4871500000000  0.4200040000000  0.5213550000000 1.0
C      1  0.4473160000000  0.5336730000000  0.5848240000000 1.0
C      1  0.4825520000000  0.5693480000000  0.4410990000000 1.0
C      1  0.5391100000000  0.4799080000000  0.5018470000000 1.0
C      1  0.4285080000000  0.4924880000000  0.4653920000000 1.0
C      1  0.5093360000000  0.5319980000000  0.4637390000000 1.0
C      1  0.4239170000000  0.4227010000000  0.4526340000000 1.0
C      1  0.4376720000000  0.4285480000000  0.4755230000000 1.0
C      1  0.4607330000000  0.5108420000000  0.5164130000000 1.0
C      1  0.4748190000000  0.4861880000000  0.4077750000000 1.0
C      1  0.5686760000000  0.4086620000000  0.6449240000000 1.0
C      1  0.4020590000000  0.4874750000000  0.5092470000000 1.0
C      1  0.4481280000000  0.5059850000000  0.4213270000000 1.0
C      1  0.4848260000000  0.4993690000000  0.6067340000000 1.0
C      1  0.5616210000000  0.4289000000000  0.4793510000000 1.0
C      1  0.4168220000000  0.4766370000000  0.4861020000000 1.0
C      1  0.4337390000000  0.4840000000000  0.4371530000000 1.0
C      1  0.5058460000000  0.4175980000000  0.4728040000000 1.0
C      1  0.5788280000000  0.5512290000000  0.5026080000000 1.0
C      1  0.4774540000000  0.5714250000000  0.5581200000000 1.0
C      1  0.4434380000000  0.4092890000000  0.5167100000000 1.0
C      1  0.5648450000000  0.4926900000000  0.4555080000000 1.0
C      1  0.5928960000000  0.4725290000000  0.4871460000000 1.0
C      1  0.4061520000000  0.5143510000000  0.5209560000000 1.0
C      1  0.4610450000000  0.4929110000000  0.5675970000000 1.0
C      1  0.4941840000000  0.4419560000000  0.4592350000000 1.0
C      1  0.5962400000000  0.4991000000000  0.5282350000000 1.0
C      1  0.5331930000000  0.4294530000000  0.4832300000000 1.0
C      1  0.5427880000000  0.4867530000000  0.5314750000000 1.0
C      1  0.5578520000000  0.4200200000000  0.6241040000000 1.0
C      1  0.5501160000000  0.5307310000000  0.4356100000000 1.0
C      1  0.5368610000000  0.5291290000000  0.5133430000000 1.0
C      1  0.4224160000000  0.5198340000000  0.5452230000000 1.0
C      1  0.4981280000000  0.4906050000000  0.4471270000000 1.0
C      1  0.5313380000000  0.4431500000000  0.5827220000000 1.0
C      1  0.5378130000000  0.5501730000000  0.5627050000000 1.0
C      1  0.4623640000000  0.5093250000000  0.5911400000000 1.0
C      1  0.4969700000000  0.5187010000000  0.4434270000000 1.0
C      1  0.4763940000000  0.4523780000000  0.4291670000000 1.0
C      1  0.4410250000000  0.5773940000000  0.4615850000000 1.0
C      1  0.4190200000000  0.5341930000000  0.4541190000000 1.0
C      1  0.4473490000000  0.4862610000000  0.5244230000000 1.0
C      1  0.4364050000000  0.5423110000000  0.5581090000000 1.0
C      1  0.5217120000000  0.4276720000000  0.5613280000000 1.0
C      1  0.4865960000000  0.4918600000000  0.5537320000000 1.0
C      1  0.5519100000000  0.5137460000000  0.5289310000000 1.0
C      1  0.4826220000000  0.4654220000000  0.5056380000000 1.0
C      1  0.4936040000000  0.5640320000000  0.4156110000000 1.0
C      1  0.5722470000000  0.5127280000000  0.4373100000000 1.0
C      1  0.5032870000000  0.4929540000000  0.4031460000000 1.0
C      1  0.6096970000000  0.5461630000000  0.4635780000000 1.0
C      1  0.4813340000000  0.5820590000000  0.4949890000000 1.0
C      1  0.5371720000000  0.5275800000000  0.4626650000000 1.0
C      1  0.5953450000000  0.4723260000000  0.5165080000000 1.0
C      1  0.5077500000000  0.4198390000000  0.5400740000000 1.0
C      1  0.4725450000000  0.5278790000000  0.5348940000000 1.0
C      1  0.6128030000000  0.5190650000000  0.4635500000000 1.0
END
