TITL C-3866675-3766-595 63301.792843419 125000 -400.184161596053 0 0 67 (C1) n - 1
REM
REM in /home/nfs/bkarasulu/CARBON/AIRSS/Generating-Clusters/LCBOP/Only-C1/SD-CG/FIRE-CG
REM
REM
REM
REM
REM
REM ./C.cell (11c1c37f851c82e70ff6c80c92926a4b)
REM AIRSS Version 0.9.1 bugfix July 2018 build 013d7b7c2542+ Fri, 06 Jul 2018 19:26:36 +0100
REM compiler GCC version 9.2.1 20190827 (Red Hat 9.2.1-1)
REM options -cpp -mtune=generic -march=x86-64 -g -O0 -fpre-include=/usr/include/finclude/math-vector-fortran.h
REM seed 2018050997 1852941445 1873577965 1471320958 565037283 -1473678756 -4620414 -1498505905 1934277409 2086314267 -2147174751 1243551547 -815161080 -1454600071 1478713315 -657059319 646465370 872464466 599029198 -1800517582 1816460542 -208708389 -1419308068 1553451068 897961371 1276301334 1552379029 -193885163 803388549 -53997717 -909198386 783731271 -976870440
REM
CELL 1.54180   50.00000   50.00000   50.00000   90.00000   90.00000   90.00000
LATT -1
SFAC C  
C      1  0.4868340000000  0.4410810000000  0.5111360000000 1.0
C      1  0.4288240000000  0.4665150000000  0.5023890000000 1.0
C      1  0.4875820000000  0.5350060000000  0.5213140000000 1.0
C      1  0.5428380000000  0.5257700000000  0.4572560000000 1.0
C      1  0.5544160000000  0.5501180000000  0.4499330000000 1.0
C      1  0.4332210000000  0.4636300000000  0.4749340000000 1.0
C      1  0.4500240000000  0.5350740000000  0.4543710000000 1.0
C      1  0.5266680000000  0.4804720000000  0.5688990000000 1.0
C      1  0.5116950000000  0.5584470000000  0.5558290000000 1.0
C      1  0.4744300000000  0.5698540000000  0.4865850000000 1.0
C      1  0.5123800000000  0.5709330000000  0.5294790000000 1.0
C      1  0.4897710000000  0.5058640000000  0.5261500000000 1.0
C      1  0.5550820000000  0.5450560000000  0.5207110000000 1.0
C      1  0.4653560000000  0.5907070000000  0.4706540000000 1.0
C      1  0.4839420000000  0.4669000000000  0.5538190000000 1.0
C      1  0.5887890000000  0.4966100000000  0.4854950000000 1.0
C      1  0.5276730000000  0.4383240000000  0.4848320000000 1.0
C      1  0.5715860000000  0.4852440000000  0.4667380000000 1.0
C      1  0.5075700000000  0.4578550000000  0.5687100000000 1.0
C      1  0.5312580000000  0.5567050000000  0.5123950000000 1.0
C      1  0.5047480000000  0.4534570000000  0.4917420000000 1.0
C      1  0.4359010000000  0.5325960000000  0.5187420000000 1.0
C      1  0.4148670000000  0.4914460000000  0.5083750000000 1.0
C      1  0.5503800000000  0.4891490000000  0.4238670000000 1.0
C      1  0.4752720000000  0.5155230000000  0.4847030000000 1.0
C      1  0.4688790000000  0.5270350000000  0.4333950000000 1.0
C      1  0.4576410000000  0.5659110000000  0.5453590000000 1.0
C      1  0.5649000000000  0.4449440000000  0.5145540000000 1.0
C      1  0.4265820000000  0.4715510000000  0.5480710000000 1.0
C      1  0.4667870000000  0.5426720000000  0.4774440000000 1.0
C      1  0.4204700000000  0.5221030000000  0.5415330000000 1.0
C      1  0.4705620000000  0.4543510000000  0.5312040000000 1.0
C      1  0.4910320000000  0.4134780000000  0.5163700000000 1.0
C      1  0.5606190000000  0.4567300000000  0.5384670000000 1.0
C      1  0.5100020000000  0.4073530000000  0.5614410000000 1.0
C      1  0.4254430000000  0.5159320000000  0.4949650000000 1.0
C      1  0.4328600000000  0.5130720000000  0.4663100000000 1.0
C      1  0.5083140000000  0.4817480000000  0.4881140000000 1.0
C      1  0.5409820000000  0.4983200000000  0.5266820000000 1.0
C      1  0.4424030000000  0.4580630000000  0.5273560000000 1.0
C      1  0.5552570000000  0.5014210000000  0.4491140000000 1.0
C      1  0.4395020000000  0.4851650000000  0.4574540000000 1.0
C      1  0.5157010000000  0.4951720000000  0.5134510000000 1.0
C      1  0.4739020000000  0.5412710000000  0.4101350000000 1.0
C      1  0.4691280000000  0.4978840000000  0.5062780000000 1.0
C      1  0.4627090000000  0.4817270000000  0.4410570000000 1.0
C      1  0.4810710000000  0.5558520000000  0.3897590000000 1.0
C      1  0.4870620000000  0.4960660000000  0.5532170000000 1.0
C      1  0.5612990000000  0.5176610000000  0.5211070000000 1.0
C      1  0.5124770000000  0.4309280000000  0.5739840000000 1.0
C      1  0.5009540000000  0.3998270000000  0.5372930000000 1.0
C      1  0.5849180000000  0.5090360000000  0.5088090000000 1.0
C      1  0.5099500000000  0.5056120000000  0.5692810000000 1.0
C      1  0.5459880000000  0.4791450000000  0.5475510000000 1.0
C      1  0.5555140000000  0.4628020000000  0.4192410000000 1.0
C      1  0.5664940000000  0.5728530000000  0.4458980000000 1.0
C      1  0.5138410000000  0.5341500000000  0.5687280000000 1.0
C      1  0.5674870000000  0.4566650000000  0.4657470000000 1.0
C      1  0.5138950000000  0.5401750000000  0.4972270000000 1.0
C      1  0.5646760000000  0.4466660000000  0.4392070000000 1.0
C      1  0.5189860000000  0.5257410000000  0.4728870000000 1.0
C      1  0.5552800000000  0.4437470000000  0.4879680000000 1.0
C      1  0.4904520000000  0.5783470000000  0.5102520000000 1.0
C      1  0.4981640000000  0.5040180000000  0.4678060000000 1.0
C      1  0.4130050000000  0.4948510000000  0.5380280000000 1.0
C      1  0.4829420000000  0.5021610000000  0.4412180000000 1.0
C      1  0.4607650000000  0.5454590000000  0.5269800000000 1.0
END
