TITL C-3866676-3738-332 -47972.6457694963 125000 -976.77105801868 0 0 162 (C1) n - 1
REM
REM in /home/nfs/bkarasulu/CARBON/AIRSS/Generating-Clusters/LCBOP/Only-C1/SD-CG/FIRE-CG
REM
REM
REM
REM
REM
REM ./C.cell (11c1c37f851c82e70ff6c80c92926a4b)
REM AIRSS Version 0.9.1 bugfix July 2018 build 013d7b7c2542+ Fri, 06 Jul 2018 19:26:36 +0100
REM compiler GCC version 9.2.1 20190827 (Red Hat 9.2.1-1)
REM options -cpp -mtune=generic -march=x86-64 -g -O0 -fpre-include=/usr/include/finclude/math-vector-fortran.h
REM seed -2044729605 -488953411 -1355170310 1587532376 -1721938452 -1828138048 -1693652543 767578316 1410288424 -1448650705 -626269465 -1781144144 1374684987 -1596340314 -1902433905 5687256 436152228 1369057315 1839323953 166458352 -1577013095 -1823555585 1015217401 -92108600 953003826 -1304294635 799032384 -786617969 1979133387 -446313942 814499554 -540364508 -508186800
REM
CELL 1.54180   50.00000   50.00000   50.00000   90.00000   90.00000   90.00000
LATT -1
SFAC C  
C      1  0.4969620000000  0.4480560000000  0.5362670000000 1.0
C      1  0.5140070000000  0.5116280000000  0.4688220000000 1.0
C      1  0.5179100000000  0.4320770000000  0.5247100000000 1.0
C      1  0.5276760000000  0.4119770000000  0.5418930000000 1.0
C      1  0.5178170000000  0.4456560000000  0.4028740000000 1.0
C      1  0.4922220000000  0.4707080000000  0.5805480000000 1.0
C      1  0.5065570000000  0.5934190000000  0.5530010000000 1.0
C      1  0.4694790000000  0.4597670000000  0.4162530000000 1.0
C      1  0.5055800000000  0.4818590000000  0.4348610000000 1.0
C      1  0.5413660000000  0.4626080000000  0.4062150000000 1.0
C      1  0.4934400000000  0.5093620000000  0.3450610000000 1.0
C      1  0.4781760000000  0.5883600000000  0.5034860000000 1.0
C      1  0.4825310000000  0.5605830000000  0.3785780000000 1.0
C      1  0.5216470000000  0.5512250000000  0.5370430000000 1.0
C      1  0.5759280000000  0.4476710000000  0.4732720000000 1.0
C      1  0.5244910000000  0.5773000000000  0.5724080000000 1.0
C      1  0.4033540000000  0.4901700000000  0.5143880000000 1.0
C      1  0.3990480000000  0.4781630000000  0.5402900000000 1.0
C      1  0.6105470000000  0.4943020000000  0.5187830000000 1.0
C      1  0.5882650000000  0.5879450000000  0.5788620000000 1.0
C      1  0.5620470000000  0.5210550000000  0.5193140000000 1.0
C      1  0.3958470000000  0.5706580000000  0.5158970000000 1.0
C      1  0.4391880000000  0.5825000000000  0.4742610000000 1.0
C      1  0.3880840000000  0.5433210000000  0.5188870000000 1.0
C      1  0.5477020000000  0.5594470000000  0.5811870000000 1.0
C      1  0.5048280000000  0.5741010000000  0.3853310000000 1.0
C      1  0.5038390000000  0.6084990000000  0.4545990000000 1.0
C      1  0.4331990000000  0.4548970000000  0.5697150000000 1.0
C      1  0.5554810000000  0.5053480000000  0.4512850000000 1.0
C      1  0.4785480000000  0.4217910000000  0.5768050000000 1.0
C      1  0.5670460000000  0.3915360000000  0.5264250000000 1.0
C      1  0.5588800000000  0.5331950000000  0.4129670000000 1.0
C      1  0.5651270000000  0.4848170000000  0.6002180000000 1.0
C      1  0.4802350000000  0.5868720000000  0.5401300000000 1.0
C      1  0.4427370000000  0.5197150000000  0.4864930000000 1.0
C      1  0.3915780000000  0.5484220000000  0.5673590000000 1.0
C      1  0.6029020000000  0.4771770000000  0.4433140000000 1.0
C      1  0.4574470000000  0.5981580000000  0.4578850000000 1.0
C      1  0.5724750000000  0.4814890000000  0.6270290000000 1.0
C      1  0.4787990000000  0.5268920000000  0.5441890000000 1.0
C      1  0.4899020000000  0.5397640000000  0.4942440000000 1.0
C      1  0.3958960000000  0.3806480000000  0.4436990000000 1.0
C      1  0.6001430000000  0.5064270000000  0.4438800000000 1.0
C      1  0.5065380000000  0.5310710000000  0.5475350000000 1.0
C      1  0.5149960000000  0.5697690000000  0.4708520000000 1.0
C      1  0.5444830000000  0.4872990000000  0.3921890000000 1.0
C      1  0.5505320000000  0.5136800000000  0.3931070000000 1.0
C      1  0.5197480000000  0.5104550000000  0.5602710000000 1.0
C      1  0.5443330000000  0.5320530000000  0.4980180000000 1.0
C      1  0.5240060000000  0.3924740000000  0.4098450000000 1.0
C      1  0.4120310000000  0.5488020000000  0.6452010000000 1.0
C      1  0.5891890000000  0.4628660000000  0.4225770000000 1.0
C      1  0.5566560000000  0.3796050000000  0.5026570000000 1.0
C      1  0.5424440000000  0.6045620000000  0.4915040000000 1.0
C      1  0.4130430000000  0.5849350000000  0.5312500000000 1.0
C      1  0.5180240000000  0.4876400000000  0.5151780000000 1.0
C      1  0.4543310000000  0.3897420000000  0.4865780000000 1.0
C      1  0.4001380000000  0.5239980000000  0.5017300000000 1.0
C      1  0.3803700000000  0.5374720000000  0.5454080000000 1.0
C      1  0.5766330000000  0.5448560000000  0.5289130000000 1.0
C      1  0.5412950000000  0.5584200000000  0.4151810000000 1.0
C      1  0.4589440000000  0.4757970000000  0.4376170000000 1.0
C      1  0.4326420000000  0.4464830000000  0.4985610000000 1.0
C      1  0.4910740000000  0.4929810000000  0.5072390000000 1.0
C      1  0.5297670000000  0.4436050000000  0.5921210000000 1.0
C      1  0.3982320000000  0.4297040000000  0.5450830000000 1.0
C      1  0.4933780000000  0.4839800000000  0.6038120000000 1.0
C      1  0.5611540000000  0.4577080000000  0.4266790000000 1.0
C      1  0.4076620000000  0.4542380000000  0.5553280000000 1.0
C      1  0.5293690000000  0.4368280000000  0.4975130000000 1.0
C      1  0.5592910000000  0.4388970000000  0.4951570000000 1.0
C      1  0.5195200000000  0.5682850000000  0.5171140000000 1.0
C      1  0.5996200000000  0.4664610000000  0.4718900000000 1.0
C      1  0.4811780000000  0.3984540000000  0.4977620000000 1.0
C      1  0.4212850000000  0.4734870000000  0.4981030000000 1.0
C      1  0.4017340000000  0.4174600000000  0.5214320000000 1.0
C      1  0.4197000000000  0.5362390000000  0.4811660000000 1.0
C      1  0.4678350000000  0.5292520000000  0.4791800000000 1.0
C      1  0.5210400000000  0.4178930000000  0.4049250000000 1.0
C      1  0.5739680000000  0.4403340000000  0.5194000000000 1.0
C      1  0.5839650000000  0.4146600000000  0.5265420000000 1.0
C      1  0.4733540000000  0.5032170000000  0.5285300000000 1.0
C      1  0.4917680000000  0.5313210000000  0.4372430000000 1.0
C      1  0.6068480000000  0.4906900000000  0.4899680000000 1.0
C      1  0.4573790000000  0.5423280000000  0.5878300000000 1.0
C      1  0.4611780000000  0.4436760000000  0.5033340000000 1.0
C      1  0.4523150000000  0.4351760000000  0.5797780000000 1.0
C      1  0.5520610000000  0.4626860000000  0.5860350000000 1.0
C      1  0.4799820000000  0.6088820000000  0.4717590000000 1.0
C      1  0.4581970000000  0.5718220000000  0.5503940000000 1.0
C      1  0.5566240000000  0.4588900000000  0.4549780000000 1.0
C      1  0.4278530000000  0.3994690000000  0.4833000000000 1.0
C      1  0.4517600000000  0.5034580000000  0.4364040000000 1.0
C      1  0.5634670000000  0.5434410000000  0.4796110000000 1.0
C      1  0.5747510000000  0.5177250000000  0.4337760000000 1.0
C      1  0.5203400000000  0.4871030000000  0.5446940000000 1.0
C      1  0.5074430000000  0.4406530000000  0.4774180000000 1.0
C      1  0.4885580000000  0.4708450000000  0.3737730000000 1.0
C      1  0.3674690000000  0.3695450000000  0.4008950000000 1.0
C      1  0.5422110000000  0.4849620000000  0.4981770000000 1.0
C      1  0.4110740000000  0.3883440000000  0.4639980000000 1.0
C      1  0.5490070000000  0.5309670000000  0.5901630000000 1.0
C      1  0.5631610000000  0.4906050000000  0.5185050000000 1.0
C      1  0.3814080000000  0.3746990000000  0.4223150000000 1.0
C      1  0.5205030000000  0.6139080000000  0.5380130000000 1.0
C      1  0.5746340000000  0.5653530000000  0.5721640000000 1.0
C      1  0.5306450000000  0.6187610000000  0.5133790000000 1.0
C      1  0.5654090000000  0.5894150000000  0.4994990000000 1.0
C      1  0.4983090000000  0.5684590000000  0.4965200000000 1.0
C      1  0.4691450000000  0.5221080000000  0.4514380000000 1.0
C      1  0.5322240000000  0.3778340000000  0.4910210000000 1.0
C      1  0.5507550000000  0.4834020000000  0.4691930000000 1.0
C      1  0.4662080000000  0.5840720000000  0.4331380000000 1.0
C      1  0.5711250000000  0.5107020000000  0.5868520000000 1.0
C      1  0.4980130000000  0.5084420000000  0.4192670000000 1.0
C      1  0.4186930000000  0.4214210000000  0.4993220000000 1.0
C      1  0.5166170000000  0.5767750000000  0.4114820000000 1.0
C      1  0.4818460000000  0.4284980000000  0.4886490000000 1.0
C      1  0.4787740000000  0.4031070000000  0.5547970000000 1.0
C      1  0.4639380000000  0.5451130000000  0.5600870000000 1.0
C      1  0.5628990000000  0.4612630000000  0.5600250000000 1.0
C      1  0.6049180000000  0.5015270000000  0.5450770000000 1.0
C      1  0.5164220000000  0.5267820000000  0.4920920000000 1.0
C      1  0.5469170000000  0.3938160000000  0.5461910000000 1.0
C      1  0.5065120000000  0.5525650000000  0.4494530000000 1.0
C      1  0.4362490000000  0.5170360000000  0.4172800000000 1.0
C      1  0.4893450000000  0.4985610000000  0.3697740000000 1.0
C      1  0.5084800000000  0.4597170000000  0.4533600000000 1.0
C      1  0.5252170000000  0.5160370000000  0.5874280000000 1.0
C      1  0.5305100000000  0.5158460000000  0.4484740000000 1.0
C      1  0.5900690000000  0.5172910000000  0.5651610000000 1.0
C      1  0.4312710000000  0.5512390000000  0.5949350000000 1.0
C      1  0.4463910000000  0.5619070000000  0.4303390000000 1.0
C      1  0.5055440000000  0.4660380000000  0.5561630000000 1.0
C      1  0.4911100000000  0.4559560000000  0.3975510000000 1.0
C      1  0.4672540000000  0.4694790000000  0.4637330000000 1.0
C      1  0.4159020000000  0.5614810000000  0.5734320000000 1.0
C      1  0.5700510000000  0.4653980000000  0.5332980000000 1.0
C      1  0.4759470000000  0.5391590000000  0.6074930000000 1.0
C      1  0.4862250000000  0.5144390000000  0.3931040000000 1.0
C      1  0.5053520000000  0.4295100000000  0.5889040000000 1.0
C      1  0.4368990000000  0.4926840000000  0.4851100000000 1.0
C      1  0.4803450000000  0.4809060000000  0.4843130000000 1.0
C      1  0.4498750000000  0.5817060000000  0.5003340000000 1.0
C      1  0.4967030000000  0.5915980000000  0.4296740000000 1.0
C      1  0.4214310000000  0.5500810000000  0.6209280000000 1.0
C      1  0.5784010000000  0.4787400000000  0.6522560000000 1.0
C      1  0.5901290000000  0.5380590000000  0.4778960000000 1.0
C      1  0.4700090000000  0.5389470000000  0.3915070000000 1.0
C      1  0.4461610000000  0.4790110000000  0.5623390000000 1.0
C      1  0.5759630000000  0.5701050000000  0.5152570000000 1.0
C      1  0.6046120000000  0.5145680000000  0.4718110000000 1.0
C      1  0.5102980000000  0.5044580000000  0.6079990000000 1.0
C      1  0.4784790000000  0.3965000000000  0.5286390000000 1.0
C      1  0.5851630000000  0.5443260000000  0.5557620000000 1.0
C      1  0.4473710000000  0.5421060000000  0.4095210000000 1.0
C      1  0.4285310000000  0.5587830000000  0.4615690000000 1.0
C      1  0.4605860000000  0.4800170000000  0.5386110000000 1.0
C      1  0.4296460000000  0.5770900000000  0.5527900000000 1.0
C      1  0.5259110000000  0.5965040000000  0.4689610000000 1.0
C      1  0.4707990000000  0.4551130000000  0.5273070000000 1.0
C      1  0.5059790000000  0.3837630000000  0.4891030000000 1.0
END
