TITL C-3866675-3766-222 -0.129484403271422 125000 -504.633799283499 0 0 83 (C1) n - 1
REM
REM in /home/nfs/bkarasulu/CARBON/AIRSS/Generating-Clusters/LCBOP/Only-C1/SD-CG/HFTN-CG/FIRE-CG
REM
REM
REM
REM
REM
REM ./C.cell (11c1c37f851c82e70ff6c80c92926a4b)
REM AIRSS Version 0.9.1 bugfix July 2018 build 013d7b7c2542+ Fri, 06 Jul 2018 19:26:36 +0100
REM compiler GCC version 9.2.1 20190827 (Red Hat 9.2.1-1)
REM options -cpp -mtune=generic -march=x86-64 -g -O0 -fpre-include=/usr/include/finclude/math-vector-fortran.h
REM seed -788465595 1385372756 -780195125 -1220947291 60921194 1213750334 -1969851548 1883668007 -1324510340 1599605148 -664840767 -1697001457 -1286539000 322022885 -1940746003 1956636210 1859997966 1425472345 -1438418520 589743701 -1535985586 1221055266 236609762 -291292952 1818263842 -1046638463 -1023778341 -1797959443 -1586870241 -867830436 1740926174 -310270647 253973318
REM
CELL 1.54180   50.00000   50.00000   50.00000   90.00000   90.00000   90.00000
LATT -1
SFAC C  
C      1  0.6239100000000  0.4750450000000  0.5061050000000 1.0
C      1  0.4769440000000  0.5468360000000  0.4454880000000 1.0
C      1  0.4194140000000  0.5286470000000  0.5339150000000 1.0
C      1  0.5232770000000  0.5315680000000  0.4175110000000 1.0
C      1  0.4446610000000  0.4644760000000  0.4673710000000 1.0
C      1  0.5023310000000  0.4577170000000  0.4252090000000 1.0
C      1  0.6001840000000  0.5186150000000  0.5008380000000 1.0
C      1  0.5179160000000  0.5467960000000  0.4866620000000 1.0
C      1  0.4306780000000  0.4710770000000  0.5614390000000 1.0
C      1  0.4481770000000  0.5667420000000  0.5290710000000 1.0
C      1  0.4991970000000  0.5982760000000  0.4872060000000 1.0
C      1  0.5657060000000  0.4390760000000  0.5065600000000 1.0
C      1  0.5712790000000  0.5490230000000  0.5267730000000 1.0
C      1  0.6091780000000  0.4560770000000  0.4942140000000 1.0
C      1  0.5948590000000  0.5440550000000  0.5122880000000 1.0
C      1  0.4738640000000  0.4888160000000  0.4970120000000 1.0
C      1  0.4391420000000  0.5455520000000  0.5452040000000 1.0
C      1  0.5487680000000  0.5587970000000  0.5371640000000 1.0
C      1  0.4414650000000  0.4889650000000  0.5780010000000 1.0
C      1  0.4366740000000  0.4796960000000  0.4437620000000 1.0
C      1  0.5373280000000  0.4879570000000  0.4314770000000 1.0
C      1  0.4634600000000  0.4445190000000  0.4552970000000 1.0
C      1  0.4271320000000  0.4141510000000  0.5221610000000 1.0
C      1  0.5401670000000  0.5301820000000  0.4419370000000 1.0
C      1  0.4705300000000  0.5301740000000  0.4678730000000 1.0
C      1  0.4741340000000  0.4553100000000  0.4294970000000 1.0
C      1  0.4529650000000  0.5131040000000  0.5787250000000 1.0
C      1  0.4393890000000  0.6043500000000  0.4461360000000 1.0
C      1  0.5227390000000  0.5639790000000  0.5402820000000 1.0
C      1  0.5122830000000  0.4031740000000  0.4811610000000 1.0
C      1  0.5102890000000  0.4932920000000  0.5625720000000 1.0
C      1  0.4782170000000  0.5996900000000  0.5078640000000 1.0
C      1  0.4284530000000  0.4810520000000  0.5137410000000 1.0
C      1  0.4502310000000  0.4082730000000  0.5104360000000 1.0
C      1  0.5692350000000  0.4624940000000  0.4645040000000 1.0
C      1  0.5102530000000  0.5104850000000  0.4042570000000 1.0
C      1  0.4157650000000  0.4365910000000  0.5309010000000 1.0
C      1  0.5226660000000  0.4812090000000  0.4567360000000 1.0
C      1  0.5861730000000  0.5087030000000  0.4785890000000 1.0
C      1  0.5571800000000  0.5060570000000  0.4401150000000 1.0
C      1  0.5373120000000  0.3877630000000  0.6263040000000 1.0
C      1  0.5192800000000  0.4532710000000  0.4503280000000 1.0
C      1  0.4744790000000  0.5805800000000  0.5302230000000 1.0
C      1  0.4883000000000  0.5964590000000  0.4598690000000 1.0
C      1  0.4347940000000  0.5839880000000  0.4871880000000 1.0
C      1  0.4848660000000  0.5320410000000  0.5459570000000 1.0
C      1  0.4953560000000  0.4051640000000  0.4591730000000 1.0
C      1  0.6130650000000  0.5642820000000  0.5089410000000 1.0
C      1  0.5106240000000  0.4651100000000  0.5578030000000 1.0
C      1  0.4946090000000  0.5496210000000  0.5024850000000 1.0
C      1  0.4717420000000  0.4204210000000  0.4667720000000 1.0
C      1  0.5136360000000  0.4375920000000  0.5176430000000 1.0
C      1  0.4232720000000  0.5875970000000  0.4611660000000 1.0
C      1  0.4546700000000  0.6061170000000  0.4907790000000 1.0
C      1  0.4629200000000  0.6113940000000  0.4614780000000 1.0
C      1  0.5305320000000  0.4068710000000  0.6099150000000 1.0
C      1  0.4677490000000  0.5463600000000  0.4909970000000 1.0
C      1  0.5733020000000  0.4921440000000  0.4597730000000 1.0
C      1  0.5417390000000  0.4361410000000  0.5175270000000 1.0
C      1  0.5224970000000  0.5063680000000  0.5836890000000 1.0
C      1  0.4179460000000  0.5069250000000  0.5182010000000 1.0
C      1  0.5236430000000  0.4262930000000  0.5932460000000 1.0
C      1  0.5824360000000  0.4510830000000  0.4875280000000 1.0
C      1  0.4833260000000  0.5051640000000  0.4752820000000 1.0
C      1  0.4719680000000  0.4175830000000  0.4961160000000 1.0
C      1  0.5107720000000  0.5033310000000  0.4687470000000 1.0
C      1  0.5336130000000  0.5200450000000  0.6028840000000 1.0
C      1  0.5250140000000  0.5286400000000  0.4666240000000 1.0
C      1  0.6199210000000  0.5011870000000  0.5109200000000 1.0
C      1  0.4952980000000  0.5573010000000  0.5317680000000 1.0
C      1  0.5019940000000  0.4601510000000  0.5303640000000 1.0
C      1  0.4598120000000  0.5327450000000  0.5599550000000 1.0
C      1  0.4956590000000  0.5060990000000  0.5410260000000 1.0
C      1  0.4871940000000  0.5721800000000  0.4449550000000 1.0
C      1  0.4480590000000  0.4764590000000  0.4931620000000 1.0
C      1  0.5001490000000  0.4170920000000  0.5039210000000 1.0
C      1  0.4896090000000  0.4853140000000  0.5205810000000 1.0
C      1  0.4536460000000  0.4746580000000  0.4223460000000 1.0
C      1  0.5155220000000  0.4830060000000  0.4122030000000 1.0
C      1  0.5169290000000  0.4455870000000  0.5763910000000 1.0
C      1  0.5472720000000  0.4450740000000  0.4536600000000 1.0
C      1  0.4451740000000  0.5614020000000  0.5006480000000 1.0
C      1  0.4240870000000  0.4628000000000  0.5354060000000 1.0
END
