TITL C-3866670-4165-710 -0.0333225057818393 125000 -673.627310006257 0 0 110 (C1) n - 1
REM
REM in /home/nfs/bkarasulu/CARBON/AIRSS/Generating-Clusters/LCBOP/Only-C1/SD-CG/FIRE-CG
REM
REM
REM
REM
REM
REM ./C.cell (11c1c37f851c82e70ff6c80c92926a4b)
REM AIRSS Version 0.9.1 bugfix July 2018 build 013d7b7c2542+ Fri, 06 Jul 2018 19:26:36 +0100
REM compiler GCC version 9.2.1 20190827 (Red Hat 9.2.1-1)
REM options -cpp -mtune=generic -march=x86-64 -g -O0 -fpre-include=/usr/include/finclude/math-vector-fortran.h
REM seed 2124876254 -1066946048 -1490322803 1509176044 759820740 1873975224 -2005610518 205852357 588204508 -1509501438 521071401 -1969646808 -1224331861 1978156461 723651153 -1145949131 -255528307 -861048952 1551195996 -2013094203 161645503 768518894 1006548302 -1494278610 762176446 1106445227 774993533 502651825 885972530 1770975903 1492465368 -1783855454 1651128052
REM
CELL 1.54180   50.00000   50.00000   50.00000   90.00000   90.00000   90.00000
LATT -1
SFAC C  
C      1  0.5050440000000  0.5151230000000  0.4751060000000 1.0
C      1  0.4680640000000  0.4795350000000  0.6011590000000 1.0
C      1  0.5369050000000  0.5465190000000  0.5024340000000 1.0
C      1  0.5004830000000  0.4728860000000  0.4537270000000 1.0
C      1  0.5284430000000  0.5071000000000  0.5470840000000 1.0
C      1  0.4647960000000  0.5581890000000  0.3745850000000 1.0
C      1  0.4486100000000  0.5094560000000  0.5675430000000 1.0
C      1  0.4021340000000  0.5895180000000  0.4165650000000 1.0
C      1  0.5044700000000  0.4606120000000  0.5224190000000 1.0
C      1  0.5331650000000  0.4626380000000  0.5194910000000 1.0
C      1  0.5330570000000  0.4433740000000  0.4613780000000 1.0
C      1  0.5148660000000  0.4500860000000  0.5704950000000 1.0
C      1  0.5291270000000  0.4954780000000  0.5737950000000 1.0
C      1  0.5662310000000  0.5494920000000  0.5828640000000 1.0
C      1  0.4467160000000  0.4397840000000  0.5398190000000 1.0
C      1  0.5304960000000  0.5389030000000  0.4393320000000 1.0
C      1  0.4694730000000  0.4354210000000  0.5804120000000 1.0
C      1  0.5327070000000  0.4319840000000  0.5580730000000 1.0
C      1  0.5306040000000  0.5857280000000  0.4266000000000 1.0
C      1  0.4805410000000  0.4521450000000  0.6013690000000 1.0
C      1  0.6001930000000  0.4788720000000  0.4202200000000 1.0
C      1  0.4494630000000  0.4534100000000  0.5656510000000 1.0
C      1  0.4467580000000  0.4436580000000  0.4504090000000 1.0
C      1  0.4825610000000  0.4077790000000  0.5143700000000 1.0
C      1  0.4672440000000  0.4193270000000  0.5360370000000 1.0
C      1  0.4821600000000  0.4638600000000  0.4745870000000 1.0
C      1  0.5682350000000  0.5529270000000  0.4650460000000 1.0
C      1  0.5764960000000  0.5087220000000  0.5331720000000 1.0
C      1  0.5635400000000  0.5494070000000  0.4926020000000 1.0
C      1  0.5131730000000  0.4121920000000  0.5489870000000 1.0
C      1  0.5669460000000  0.5801070000000  0.4566020000000 1.0
C      1  0.5295980000000  0.5945710000000  0.5017380000000 1.0
C      1  0.5393980000000  0.5706980000000  0.5496430000000 1.0
C      1  0.4758120000000  0.4964350000000  0.5091400000000 1.0
C      1  0.5228900000000  0.5868940000000  0.4748910000000 1.0
C      1  0.5843140000000  0.5501040000000  0.5114250000000 1.0
C      1  0.4248190000000  0.4294050000000  0.4609610000000 1.0
C      1  0.5702240000000  0.5080240000000  0.4436650000000 1.0
C      1  0.5489220000000  0.5039670000000  0.5277220000000 1.0
C      1  0.5147000000000  0.5625810000000  0.5657220000000 1.0
C      1  0.5042740000000  0.4453660000000  0.4178040000000 1.0
C      1  0.5402550000000  0.4877390000000  0.5064720000000 1.0
C      1  0.3884150000000  0.5302400000000  0.4548120000000 1.0
C      1  0.4755340000000  0.5360510000000  0.3832020000000 1.0
C      1  0.4929350000000  0.5636500000000  0.5246060000000 1.0
C      1  0.5339670000000  0.4162710000000  0.5019860000000 1.0
C      1  0.4664720000000  0.4273160000000  0.4362970000000 1.0
C      1  0.5368550000000  0.5889200000000  0.5274010000000 1.0
C      1  0.3857840000000  0.5577710000000  0.4495340000000 1.0
C      1  0.4427780000000  0.3932930000000  0.4895610000000 1.0
C      1  0.5864060000000  0.4803760000000  0.5325140000000 1.0
C      1  0.4764370000000  0.5087640000000  0.4825250000000 1.0
C      1  0.4955250000000  0.4941100000000  0.4084310000000 1.0
C      1  0.5816930000000  0.4635220000000  0.4616830000000 1.0
C      1  0.5109190000000  0.5395200000000  0.4607530000000 1.0
C      1  0.5003330000000  0.4728560000000  0.4253510000000 1.0
C      1  0.5148430000000  0.4297750000000  0.4421130000000 1.0
C      1  0.5126780000000  0.5442100000000  0.5170220000000 1.0
C      1  0.5643960000000  0.5553040000000  0.5550880000000 1.0
C      1  0.5268690000000  0.4719380000000  0.4638320000000 1.0
C      1  0.5137320000000  0.4850280000000  0.5966050000000 1.0
C      1  0.4428570000000  0.5386470000000  0.4418810000000 1.0
C      1  0.4782640000000  0.4340630000000  0.4105950000000 1.0
C      1  0.5274740000000  0.4946270000000  0.4818110000000 1.0
C      1  0.4544970000000  0.4975110000000  0.4651070000000 1.0
C      1  0.4873940000000  0.5658170000000  0.5530600000000 1.0
C      1  0.5085290000000  0.4572210000000  0.5965710000000 1.0
C      1  0.4707460000000  0.3954500000000  0.4921760000000 1.0
C      1  0.5117700000000  0.4086530000000  0.5194330000000 1.0
C      1  0.4862130000000  0.3952000000000  0.4688090000000 1.0
C      1  0.4607420000000  0.5581840000000  0.5628960000000 1.0
C      1  0.5170890000000  0.5396590000000  0.5842730000000 1.0
C      1  0.4901630000000  0.4154140000000  0.4502120000000 1.0
C      1  0.4269710000000  0.4459800000000  0.5221100000000 1.0
C      1  0.5869970000000  0.4635480000000  0.5089960000000 1.0
C      1  0.5088960000000  0.5206890000000  0.5320240000000 1.0
C      1  0.4343260000000  0.5653860000000  0.4436760000000 1.0
C      1  0.5464200000000  0.5315460000000  0.5922220000000 1.0
C      1  0.5716120000000  0.4822400000000  0.5789400000000 1.0
C      1  0.3415080000000  0.5847910000000  0.4643900000000 1.0
C      1  0.5491190000000  0.4338030000000  0.4837450000000 1.0
C      1  0.5715680000000  0.4667970000000  0.5541000000000 1.0
C      1  0.5536670000000  0.5035650000000  0.5867340000000 1.0
C      1  0.4760380000000  0.5747530000000  0.4663010000000 1.0
C      1  0.5840460000000  0.4834840000000  0.4418850000000 1.0
C      1  0.4927090000000  0.5218310000000  0.5834310000000 1.0
C      1  0.4073440000000  0.5715200000000  0.4365590000000 1.0
C      1  0.4897250000000  0.4999460000000  0.6021870000000 1.0
C      1  0.4352930000000  0.5140910000000  0.4532950000000 1.0
C      1  0.4559200000000  0.4680030000000  0.4630920000000 1.0
C      1  0.4763390000000  0.5124930000000  0.5601290000000 1.0
C      1  0.3628070000000  0.5715580000000  0.4572890000000 1.0
C      1  0.4519220000000  0.5842430000000  0.4555940000000 1.0
C      1  0.4857840000000  0.4694490000000  0.5030500000000 1.0
C      1  0.5410720000000  0.5915420000000  0.4526160000000 1.0
C      1  0.4074780000000  0.5114130000000  0.4567010000000 1.0
C      1  0.5272190000000  0.5594500000000  0.4197010000000 1.0
C      1  0.4416870000000  0.5380060000000  0.5681770000000 1.0
C      1  0.4842170000000  0.4171020000000  0.5608910000000 1.0
C      1  0.4861680000000  0.5144200000000  0.3942320000000 1.0
C      1  0.4457740000000  0.6108530000000  0.4567450000000 1.0
C      1  0.5574870000000  0.5326550000000  0.4475940000000 1.0
C      1  0.4833340000000  0.5094600000000  0.5330180000000 1.0
C      1  0.5740470000000  0.4509030000000  0.4863340000000 1.0
C      1  0.5799540000000  0.5378470000000  0.5365880000000 1.0
C      1  0.4483710000000  0.4815830000000  0.5783620000000 1.0
C      1  0.5026420000000  0.5664760000000  0.4689800000000 1.0
C      1  0.5493760000000  0.4503160000000  0.5423500000000 1.0
C      1  0.4239510000000  0.4076690000000  0.4768290000000 1.0
C      1  0.4980000000000  0.4612130000000  0.5498750000000 1.0
END
