TITL C-3866674-3872-236 5.97959571376381e-08 125000 -193.553012851815 0 0 33 (C1) n - 1
REM
REM in /home/nfs/bkarasulu/CARBON/AIRSS/Generating-Clusters/LCBOP/Only-C1/SD-CG/HFTN-CG/FIRE-CG
REM
REM
REM
REM
REM
REM ./C.cell (11c1c37f851c82e70ff6c80c92926a4b)
REM AIRSS Version 0.9.1 bugfix July 2018 build 013d7b7c2542+ Fri, 06 Jul 2018 19:26:36 +0100
REM compiler GCC version 9.2.1 20190827 (Red Hat 9.2.1-1)
REM options -cpp -mtune=generic -march=x86-64 -g -O0 -fpre-include=/usr/include/finclude/math-vector-fortran.h
REM seed -219844979 1259236406 1056155864 1250904735 251888811 -1742006849 -1816728800 -355411070 -1115826895 1732852562 -1811897163 -14118864 -1295273370 -1518350628 -152061389 974808206 1830397776 333789619 -1141689936 412841117 1768506100 -855003639 -1215459979 -1041046991 -1677430493 2090430652 -1146437171 964499628 -1244788928 32425672 1417215360 1932550826 -1358641613
REM
CELL 1.54180   50.00000   50.00000   50.00000   90.00000   90.00000   90.00000
LATT -1
SFAC C  
C      1  0.4674520000000  0.5194950000000  0.5622200000000 1.0
C      1  0.4847690000000  0.5494270000000  0.4817230000000 1.0
C      1  0.4806390000000  0.4958380000000  0.5532450000000 1.0
C      1  0.5467510000000  0.5269360000000  0.4782070000000 1.0
C      1  0.5463920000000  0.4751280000000  0.4698190000000 1.0
C      1  0.5473940000000  0.5443430000000  0.5219900000000 1.0
C      1  0.5488670000000  0.5192180000000  0.5352580000000 1.0
C      1  0.4194750000000  0.4872860000000  0.4767760000000 1.0
C      1  0.4920970000000  0.5118350000000  0.4516230000000 1.0
C      1  0.4847310000000  0.5372640000000  0.4561960000000 1.0
C      1  0.5004340000000  0.4935020000000  0.4969490000000 1.0
C      1  0.4785220000000  0.4450730000000  0.4682380000000 1.0
C      1  0.4583040000000  0.4583490000000  0.4800570000000 1.0
C      1  0.5039780000000  0.4473220000000  0.4589780000000 1.0
C      1  0.5102740000000  0.5569780000000  0.4915470000000 1.0
C      1  0.4638980000000  0.4815440000000  0.5347650000000 1.0
C      1  0.3978600000000  0.4949560000000  0.4644030000000 1.0
C      1  0.4430850000000  0.4801970000000  0.4899670000000 1.0
C      1  0.4630700000000  0.5423050000000  0.4982250000000 1.0
C      1  0.5639050000000  0.4710900000000  0.5229920000000 1.0
C      1  0.4517260000000  0.5324320000000  0.5439870000000 1.0
C      1  0.5712240000000  0.4524000000000  0.5044670000000 1.0
C      1  0.5633100000000  0.4539950000000  0.4784420000000 1.0
C      1  0.4513840000000  0.5243020000000  0.5164340000000 1.0
C      1  0.5027050000000  0.4926320000000  0.4688180000000 1.0
C      1  0.5499250000000  0.4997000000000  0.4857130000000 1.0
C      1  0.5080430000000  0.4965550000000  0.5470240000000 1.0
C      1  0.5363280000000  0.5468930000000  0.4958520000000 1.0
C      1  0.5297040000000  0.5130010000000  0.5564410000000 1.0
C      1  0.5468390000000  0.4946180000000  0.5162240000000 1.0
C      1  0.4511900000000  0.4951730000000  0.5128550000000 1.0
C      1  0.5195260000000  0.4709490000000  0.4607280000000 1.0
C      1  0.5161990000000  0.4892650000000  0.5198360000000 1.0
END
