TITL C-3866676-3738-401 0.555545350580438 125000 -245.013671856634 0 0 41 (C1) n - 1
REM
REM in /home/nfs/bkarasulu/CARBON/AIRSS/Generating-Clusters/LCBOP/Only-C1/SD-CG/FIRE-CG
REM
REM
REM
REM
REM
REM ./C.cell (11c1c37f851c82e70ff6c80c92926a4b)
REM AIRSS Version 0.9.1 bugfix July 2018 build 013d7b7c2542+ Fri, 06 Jul 2018 19:26:36 +0100
REM compiler GCC version 9.2.1 20190827 (Red Hat 9.2.1-1)
REM options -cpp -mtune=generic -march=x86-64 -g -O0 -fpre-include=/usr/include/finclude/math-vector-fortran.h
REM seed 633217840 -814443749 -1364344576 -1169124408 444837361 501376932 -655364984 -732542880 -572401302 -267409340 1451040447 -818055925 1705699170 -1667391818 870988785 -802088263 1029384934 1660812759 -2130457052 745596212 -336639937 -2096233326 -762049702 -450414509 1522285195 861727945 1337087121 1037533033 -2131241398 84987893 1073410513 595933946 -1141343788
REM
CELL 1.54180   50.00000   50.00000   50.00000   90.00000   90.00000   90.00000
LATT -1
SFAC C  
C      1  0.4289790000000  0.4597460000000  0.4605090000000 1.0
C      1  0.4923250000000  0.5372100000000  0.4605240000000 1.0
C      1  0.5476810000000  0.4590800000000  0.5924880000000 1.0
C      1  0.4741870000000  0.4160170000000  0.5151090000000 1.0
C      1  0.5364600000000  0.5134590000000  0.5456050000000 1.0
C      1  0.5155370000000  0.5405180000000  0.4175770000000 1.0
C      1  0.5156820000000  0.6162190000000  0.5547330000000 1.0
C      1  0.5141290000000  0.5852870000000  0.5117430000000 1.0
C      1  0.5541050000000  0.4855980000000  0.4856920000000 1.0
C      1  0.4601170000000  0.5102920000000  0.4930900000000 1.0
C      1  0.4678640000000  0.5301920000000  0.4186720000000 1.0
C      1  0.5257590000000  0.4878830000000  0.5524560000000 1.0
C      1  0.4468210000000  0.5143670000000  0.4150200000000 1.0
C      1  0.5146860000000  0.6013030000000  0.5328460000000 1.0
C      1  0.5529290000000  0.5330510000000  0.4474330000000 1.0
C      1  0.4604200000000  0.4618890000000  0.5029320000000 1.0
C      1  0.5416280000000  0.5378750000000  0.4234620000000 1.0
C      1  0.4250840000000  0.4738610000000  0.4383150000000 1.0
C      1  0.4687330000000  0.3901400000000  0.5165670000000 1.0
C      1  0.4577860000000  0.3387880000000  0.5192840000000 1.0
C      1  0.4637580000000  0.4892170000000  0.5110080000000 1.0
C      1  0.5468030000000  0.4608030000000  0.4924710000000 1.0
C      1  0.4415600000000  0.4552270000000  0.4834830000000 1.0
C      1  0.4797440000000  0.4432170000000  0.5130300000000 1.0
C      1  0.4804160000000  0.4927960000000  0.5335730000000 1.0
C      1  0.5376270000000  0.5528030000000  0.5825420000000 1.0
C      1  0.5155620000000  0.5452830000000  0.4751910000000 1.0
C      1  0.5284870000000  0.4482760000000  0.5073570000000 1.0
C      1  0.5038650000000  0.4776140000000  0.5378230000000 1.0
C      1  0.5143350000000  0.5673440000000  0.4922620000000 1.0
C      1  0.4914760000000  0.5373280000000  0.4318430000000 1.0
C      1  0.5372480000000  0.5338280000000  0.5646830000000 1.0
C      1  0.4314150000000  0.4938320000000  0.4219410000000 1.0
C      1  0.5369970000000  0.4731100000000  0.5733020000000 1.0
C      1  0.5049760000000  0.4539690000000  0.5214760000000 1.0
C      1  0.5168610000000  0.6303750000000  0.5765930000000 1.0
C      1  0.5455660000000  0.5181840000000  0.5195470000000 1.0
C      1  0.4632140000000  0.3642510000000  0.5179370000000 1.0
C      1  0.5401340000000  0.5307470000000  0.4724510000000 1.0
C      1  0.4708210000000  0.5267370000000  0.4751690000000 1.0
C      1  0.5482250000000  0.5122870000000  0.4922600000000 1.0
END
