TITL C-3866671-3735-119 -1.43146009272446e-06 125000 -570.718440629635 0 0 95 (C1) n - 1
REM
REM in /home/nfs/bkarasulu/CARBON/AIRSS/Generating-Clusters/LCBOP/Only-C1/SD-CG/HFTN-CG/FIRE-CG
REM
REM
REM
REM
REM
REM ./C.cell (11c1c37f851c82e70ff6c80c92926a4b)
REM AIRSS Version 0.9.1 bugfix July 2018 build 013d7b7c2542+ Fri, 06 Jul 2018 19:26:36 +0100
REM compiler GCC version 9.2.1 20190827 (Red Hat 9.2.1-1)
REM options -cpp -mtune=generic -march=x86-64 -g -O0 -fpre-include=/usr/include/finclude/math-vector-fortran.h
REM seed -1028913685 707417451 773220434 141913011 1985276742 1693325445 -1075973276 -392194149 -1738667742 1343177136 1842317149 1614039022 1337596842 -1894468096 773638272 -1828464950 1387077556 -1176359273 1236718 -1718529231 -1554839037 1554984743 1680258644 140431594 -373853897 -768388092 567172451 -1770332319 1034455794 -275608722 1767391613 -1635528870 -1876045524
REM
CELL 1.54180   50.00000   50.00000   50.00000   90.00000   90.00000   90.00000
LATT -1
SFAC C  
C      1  0.4127750000000  0.4403170000000  0.5181840000000 1.0
C      1  0.3620450000000  0.5074650000000  0.4987730000000 1.0
C      1  0.5382840000000  0.5801550000000  0.5638700000000 1.0
C      1  0.5354560000000  0.3751870000000  0.5012000000000 1.0
C      1  0.4916100000000  0.5884490000000  0.4816680000000 1.0
C      1  0.4928280000000  0.5552430000000  0.5866300000000 1.0
C      1  0.4742680000000  0.4270760000000  0.4819590000000 1.0
C      1  0.4982070000000  0.4792740000000  0.5092810000000 1.0
C      1  0.4602570000000  0.5193340000000  0.5743700000000 1.0
C      1  0.5559900000000  0.3914000000000  0.5064380000000 1.0
C      1  0.5148490000000  0.5819050000000  0.4966010000000 1.0
C      1  0.5289690000000  0.4457080000000  0.5510800000000 1.0
C      1  0.5536000000000  0.4913870000000  0.4139700000000 1.0
C      1  0.5042690000000  0.5076130000000  0.4588370000000 1.0
C      1  0.4097430000000  0.4560480000000  0.4966730000000 1.0
C      1  0.3976180000000  0.5088020000000  0.5832150000000 1.0
C      1  0.5315910000000  0.4493560000000  0.4847600000000 1.0
C      1  0.5386070000000  0.5527160000000  0.5728000000000 1.0
C      1  0.4917420000000  0.5505800000000  0.5386980000000 1.0
C      1  0.4337090000000  0.4373190000000  0.5359250000000 1.0
C      1  0.3863470000000  0.5085720000000  0.5081400000000 1.0
C      1  0.4777180000000  0.5088610000000  0.4494360000000 1.0
C      1  0.3977750000000  0.5354130000000  0.5783090000000 1.0
C      1  0.4087440000000  0.5545550000000  0.5623890000000 1.0
C      1  0.5813950000000  0.5571690000000  0.4677980000000 1.0
C      1  0.5698660000000  0.4687580000000  0.5639450000000 1.0
C      1  0.5652800000000  0.4656170000000  0.4534480000000 1.0
C      1  0.5881210000000  0.5055930000000  0.4534870000000 1.0
C      1  0.4764680000000  0.4746580000000  0.4897960000000 1.0
C      1  0.4689800000000  0.5552640000000  0.3984880000000 1.0
C      1  0.4508600000000  0.5654180000000  0.4962540000000 1.0
C      1  0.4646030000000  0.5810270000000  0.4758180000000 1.0
C      1  0.4757130000000  0.5720390000000  0.3771960000000 1.0
C      1  0.4105290000000  0.5109900000000  0.5188430000000 1.0
C      1  0.4728080000000  0.4114420000000  0.5054240000000 1.0
C      1  0.5432070000000  0.4248670000000  0.5382460000000 1.0
C      1  0.4723770000000  0.5366470000000  0.5906050000000 1.0
C      1  0.5932090000000  0.4361370000000  0.4844910000000 1.0
C      1  0.5084640000000  0.5276200000000  0.5387940000000 1.0
C      1  0.5704230000000  0.4891060000000  0.4363240000000 1.0
C      1  0.5782320000000  0.5282580000000  0.4670200000000 1.0
C      1  0.5580650000000  0.5235360000000  0.4881610000000 1.0
C      1  0.5847730000000  0.4317120000000  0.5115010000000 1.0
C      1  0.4469000000000  0.4572530000000  0.5550710000000 1.0
C      1  0.6069840000000  0.4161650000000  0.4716390000000 1.0
C      1  0.5353110000000  0.5337920000000  0.5515930000000 1.0
C      1  0.5372730000000  0.5671000000000  0.4868290000000 1.0
C      1  0.5294940000000  0.4851760000000  0.4036890000000 1.0
C      1  0.4619980000000  0.4221720000000  0.5285470000000 1.0
C      1  0.5097940000000  0.4992980000000  0.5276620000000 1.0
C      1  0.5535430000000  0.5165030000000  0.5372940000000 1.0
C      1  0.4102780000000  0.4854450000000  0.5773620000000 1.0
C      1  0.5881780000000  0.4602660000000  0.4706900000000 1.0
C      1  0.4448200000000  0.5070450000000  0.5544700000000 1.0
C      1  0.5162690000000  0.4573070000000  0.5051470000000 1.0
C      1  0.5928800000000  0.4587960000000  0.5543550000000 1.0
C      1  0.5011890000000  0.4451730000000  0.5567330000000 1.0
C      1  0.4616570000000  0.5394100000000  0.4959710000000 1.0
C      1  0.5091980000000  0.5262410000000  0.4789250000000 1.0
C      1  0.5750690000000  0.5566530000000  0.5150050000000 1.0
C      1  0.5134310000000  0.5870660000000  0.5515820000000 1.0
C      1  0.4921410000000  0.5684010000000  0.5610520000000 1.0
C      1  0.4860110000000  0.3867430000000  0.5052670000000 1.0
C      1  0.5115310000000  0.5829330000000  0.5241580000000 1.0
C      1  0.4502830000000  0.4847210000000  0.4902540000000 1.0
C      1  0.5377420000000  0.4919890000000  0.5362550000000 1.0
C      1  0.4688780000000  0.5269970000000  0.3946600000000 1.0
C      1  0.4632820000000  0.4955440000000  0.4292470000000 1.0
C      1  0.5673590000000  0.5283640000000  0.5157970000000 1.0
C      1  0.4739190000000  0.4453360000000  0.5518310000000 1.0
C      1  0.5197690000000  0.5493190000000  0.5942850000000 1.0
C      1  0.5387710000000  0.4644720000000  0.4625190000000 1.0
C      1  0.6026420000000  0.4854210000000  0.4692410000000 1.0
C      1  0.4255840000000  0.4750690000000  0.4863800000000 1.0
C      1  0.4792800000000  0.4523730000000  0.4704170000000 1.0
C      1  0.4821980000000  0.5874410000000  0.3571980000000 1.0
C      1  0.4254870000000  0.5510680000000  0.5396830000000 1.0
C      1  0.5217250000000  0.4860000000000  0.4556570000000 1.0
C      1  0.4867500000000  0.5314040000000  0.4941750000000 1.0
C      1  0.4300400000000  0.5226790000000  0.5352920000000 1.0
C      1  0.5986210000000  0.4444510000000  0.5324710000000 1.0
C      1  0.4341710000000  0.4814070000000  0.5622820000000 1.0
C      1  0.5336580000000  0.5382520000000  0.4829990000000 1.0
C      1  0.4341150000000  0.5690800000000  0.5190910000000 1.0
C      1  0.5439920000000  0.4699850000000  0.5527690000000 1.0
C      1  0.4586790000000  0.5766470000000  0.4483350000000 1.0
C      1  0.5012930000000  0.4867910000000  0.4017570000000 1.0
C      1  0.5667500000000  0.5697720000000  0.4900620000000 1.0
C      1  0.4621860000000  0.5666460000000  0.4236560000000 1.0
C      1  0.4840720000000  0.4553460000000  0.4420810000000 1.0
C      1  0.4910720000000  0.5101860000000  0.3876680000000 1.0
C      1  0.4505520000000  0.5117930000000  0.4102670000000 1.0
C      1  0.5088690000000  0.3734580000000  0.5020790000000 1.0
C      1  0.5619400000000  0.4158360000000  0.5188310000000 1.0
C      1  0.4819950000000  0.4746270000000  0.4208730000000 1.0
END
