TITL C-3866675-3766-306 -0.331356928928789 125000 -1013.40498965824 0 0 166 (C1) n - 1
REM
REM in /home/nfs/bkarasulu/CARBON/AIRSS/Generating-Clusters/LCBOP/Only-C1/SD-CG/FIRE-CG
REM
REM
REM
REM
REM
REM ./C.cell (11c1c37f851c82e70ff6c80c92926a4b)
REM AIRSS Version 0.9.1 bugfix July 2018 build 013d7b7c2542+ Fri, 06 Jul 2018 19:26:36 +0100
REM compiler GCC version 9.2.1 20190827 (Red Hat 9.2.1-1)
REM options -cpp -mtune=generic -march=x86-64 -g -O0 -fpre-include=/usr/include/finclude/math-vector-fortran.h
REM seed -1423738097 1048118715 649786494 876970281 2142450084 700203201 -552858730 -1832311633 -152144658 -1017554271 843117590 -790386289 1546610912 -1241803392 -1865774983 416527996 1060829652 86271475 814792423 815076815 730487335 1131058798 1885916043 -680259784 -1460755076 1008824659 -100106026 -464619152 1411263906 -1889247918 -1399997033 -1625669300 -2031287656
REM
CELL 1.54180   50.00000   50.00000   50.00000   90.00000   90.00000   90.00000
LATT -1
SFAC C  
C      1  0.5152830000000  0.4926000000000  0.5961560000000 1.0
C      1  0.6002680000000  0.4459380000000  0.5676240000000 1.0
C      1  0.5474690000000  0.4531430000000  0.4928490000000 1.0
C      1  0.5836710000000  0.5570760000000  0.4990070000000 1.0
C      1  0.5664810000000  0.4375170000000  0.4796790000000 1.0
C      1  0.5228990000000  0.5249730000000  0.3836240000000 1.0
C      1  0.4877590000000  0.5789400000000  0.5490730000000 1.0
C      1  0.4377980000000  0.4513690000000  0.4998980000000 1.0
C      1  0.4123850000000  0.4416810000000  0.4947880000000 1.0
C      1  0.5627020000000  0.5175250000000  0.4575270000000 1.0
C      1  0.4652860000000  0.5902240000000  0.5632420000000 1.0
C      1  0.5560950000000  0.4387990000000  0.5819730000000 1.0
C      1  0.5212590000000  0.3689920000000  0.4622950000000 1.0
C      1  0.4559770000000  0.3218160000000  0.4288960000000 1.0
C      1  0.5266000000000  0.3295520000000  0.5169320000000 1.0
C      1  0.5106920000000  0.5176290000000  0.4622770000000 1.0
C      1  0.4668400000000  0.6011990000000  0.5880800000000 1.0
C      1  0.5595650000000  0.4307960000000  0.5526920000000 1.0
C      1  0.5315670000000  0.4433280000000  0.5975330000000 1.0
C      1  0.4550420000000  0.4852120000000  0.4642710000000 1.0
C      1  0.5057680000000  0.4782800000000  0.4979630000000 1.0
C      1  0.5942390000000  0.5318090000000  0.5082140000000 1.0
C      1  0.4489080000000  0.6267400000000  0.5160640000000 1.0
C      1  0.3945700000000  0.5590830000000  0.4969120000000 1.0
C      1  0.4755970000000  0.4964060000000  0.5301540000000 1.0
C      1  0.5080800000000  0.5870950000000  0.4214910000000 1.0
C      1  0.5201360000000  0.3432910000000  0.4693530000000 1.0
C      1  0.4966140000000  0.4749500000000  0.5246310000000 1.0
C      1  0.5750490000000  0.4874400000000  0.5505780000000 1.0
C      1  0.4077890000000  0.5208420000000  0.5648220000000 1.0
C      1  0.4441850000000  0.5133290000000  0.3911040000000 1.0
C      1  0.4159240000000  0.5889080000000  0.4084020000000 1.0
C      1  0.4017200000000  0.5085640000000  0.5396400000000 1.0
C      1  0.4249480000000  0.4998340000000  0.5267480000000 1.0
C      1  0.5246630000000  0.4015680000000  0.4979260000000 1.0
C      1  0.3757250000000  0.4708320000000  0.4903060000000 1.0
C      1  0.4515400000000  0.5378460000000  0.4694050000000 1.0
C      1  0.4285270000000  0.5810750000000  0.4312840000000 1.0
C      1  0.5773070000000  0.4307630000000  0.4338190000000 1.0
C      1  0.5098260000000  0.5950660000000  0.5410470000000 1.0
C      1  0.5580760000000  0.5870530000000  0.5360000000000 1.0
C      1  0.4548000000000  0.4601410000000  0.4788710000000 1.0
C      1  0.4959660000000  0.5949820000000  0.4738040000000 1.0
C      1  0.4892760000000  0.5113010000000  0.4420200000000 1.0
C      1  0.4912120000000  0.5205080000000  0.6265760000000 1.0
C      1  0.4385220000000  0.5785470000000  0.5011310000000 1.0
C      1  0.4530500000000  0.4852390000000  0.6172190000000 1.0
C      1  0.5985260000000  0.4976940000000  0.5390340000000 1.0
C      1  0.5586150000000  0.5043900000000  0.5879860000000 1.0
C      1  0.5796940000000  0.4565460000000  0.5855880000000 1.0
C      1  0.5347880000000  0.4970090000000  0.4225160000000 1.0
C      1  0.5485810000000  0.5575490000000  0.4321270000000 1.0
C      1  0.5963800000000  0.4532940000000  0.5167430000000 1.0
C      1  0.4680600000000  0.5069300000000  0.6274790000000 1.0
C      1  0.4122940000000  0.4987370000000  0.4262910000000 1.0
C      1  0.5908440000000  0.4779210000000  0.4233480000000 1.0
C      1  0.5420000000000  0.6107140000000  0.6031220000000 1.0
C      1  0.4558850000000  0.3478710000000  0.4280480000000 1.0
C      1  0.5751220000000  0.5753100000000  0.5191470000000 1.0
C      1  0.4840160000000  0.5070630000000  0.5574910000000 1.0
C      1  0.4820900000000  0.5525200000000  0.5396630000000 1.0
C      1  0.5623170000000  0.5461990000000  0.6061710000000 1.0
C      1  0.5307490000000  0.4007190000000  0.5252920000000 1.0
C      1  0.4748630000000  0.5433980000000  0.5130940000000 1.0
C      1  0.4454280000000  0.5997310000000  0.5214420000000 1.0
C      1  0.4657500000000  0.5254660000000  0.4014860000000 1.0
C      1  0.5222610000000  0.3272330000000  0.4906260000000 1.0
C      1  0.5497040000000  0.6005860000000  0.4481360000000 1.0
C      1  0.4807070000000  0.5864810000000  0.4222220000000 1.0
C      1  0.4507570000000  0.5397510000000  0.5737500000000 1.0
C      1  0.5108400000000  0.4270630000000  0.4358530000000 1.0
C      1  0.5400880000000  0.6022060000000  0.5785640000000 1.0
C      1  0.4119970000000  0.5040920000000  0.5874500000000 1.0
C      1  0.4750520000000  0.5337610000000  0.5608440000000 1.0
C      1  0.5436340000000  0.5221440000000  0.5740410000000 1.0
C      1  0.4149170000000  0.5786840000000  0.4565200000000 1.0
C      1  0.5360820000000  0.5942300000000  0.5520940000000 1.0
C      1  0.5079190000000  0.4669230000000  0.5495810000000 1.0
C      1  0.4825080000000  0.5164480000000  0.5078300000000 1.0
C      1  0.4565300000000  0.5741710000000  0.4320920000000 1.0
C      1  0.5883240000000  0.4986480000000  0.4045270000000 1.0
C      1  0.4494630000000  0.6525010000000  0.5121420000000 1.0
C      1  0.3762370000000  0.5053690000000  0.5273330000000 1.0
C      1  0.5323020000000  0.3754390000000  0.5374740000000 1.0
C      1  0.5323070000000  0.4161350000000  0.4519140000000 1.0
C      1  0.6252820000000  0.4762600000000  0.4567760000000 1.0
C      1  0.3585060000000  0.5263500000000  0.5276220000000 1.0
C      1  0.5784980000000  0.5375690000000  0.3772030000000 1.0
C      1  0.5915060000000  0.4383720000000  0.4927480000000 1.0
C      1  0.5368750000000  0.5357290000000  0.5167870000000 1.0
C      1  0.4142790000000  0.5111500000000  0.4514480000000 1.0
C      1  0.5156860000000  0.5169660000000  0.6128700000000 1.0
C      1  0.5734970000000  0.4832140000000  0.5784440000000 1.0
C      1  0.5422240000000  0.5134480000000  0.4001480000000 1.0
C      1  0.5252620000000  0.3954760000000  0.4704800000000 1.0
C      1  0.5347160000000  0.4241310000000  0.5406370000000 1.0
C      1  0.6013400000000  0.4830480000000  0.5136260000000 1.0
C      1  0.5856660000000  0.5580370000000  0.3627530000000 1.0
C      1  0.4874110000000  0.4114830000000  0.4313790000000 1.0
C      1  0.5757300000000  0.5642610000000  0.4721840000000 1.0
C      1  0.5387680000000  0.5349710000000  0.6159310000000 1.0
C      1  0.5288420000000  0.4700990000000  0.6069050000000 1.0
C      1  0.5699090000000  0.5167220000000  0.3936170000000 1.0
C      1  0.6002880000000  0.4849010000000  0.4493440000000 1.0
C      1  0.5852110000000  0.5020320000000  0.4670040000000 1.0
C      1  0.5305910000000  0.4693780000000  0.4169930000000 1.0
C      1  0.5294540000000  0.5485260000000  0.4950820000000 1.0
C      1  0.4569040000000  0.3743460000000  0.4279680000000 1.0
C      1  0.4609490000000  0.5486950000000  0.4439960000000 1.0
C      1  0.5471410000000  0.4680970000000  0.5147240000000 1.0
C      1  0.4483580000000  0.4851190000000  0.5300300000000 1.0
C      1  0.5348330000000  0.5828970000000  0.4309450000000 1.0
C      1  0.4288210000000  0.4909090000000  0.6037510000000 1.0
C      1  0.5686630000000  0.5914630000000  0.4657240000000 1.0
C      1  0.4226530000000  0.5013380000000  0.4017170000000 1.0
C      1  0.5292620000000  0.5426950000000  0.5667360000000 1.0
C      1  0.5002240000000  0.5042400000000  0.4878570000000 1.0
C      1  0.5410460000000  0.5126710000000  0.5285790000000 1.0
C      1  0.5306350000000  0.3489480000000  0.5348790000000 1.0
C      1  0.3503520000000  0.4649800000000  0.5304050000000 1.0
C      1  0.3978490000000  0.5580440000000  0.4681260000000 1.0
C      1  0.4287200000000  0.5924050000000  0.4769470000000 1.0
C      1  0.4687600000000  0.4243550000000  0.5614470000000 1.0
C      1  0.4664660000000  0.4601660000000  0.4043830000000 1.0
C      1  0.4955440000000  0.4261980000000  0.5698360000000 1.0
C      1  0.4457410000000  0.4571260000000  0.5262990000000 1.0
C      1  0.5949190000000  0.5052830000000  0.4939080000000 1.0
C      1  0.5029450000000  0.4885980000000  0.5699930000000 1.0
C      1  0.3967180000000  0.5324180000000  0.4568800000000 1.0
C      1  0.4558700000000  0.5538610000000  0.4941120000000 1.0
C      1  0.5523060000000  0.4568180000000  0.4041780000000 1.0
C      1  0.5001390000000  0.6125150000000  0.4933380000000 1.0
C      1  0.4394130000000  0.5103990000000  0.4660430000000 1.0
C      1  0.3922460000000  0.4516650000000  0.4779050000000 1.0
C      1  0.5929770000000  0.5416900000000  0.5617710000000 1.0
C      1  0.5986060000000  0.5269240000000  0.5374930000000 1.0
C      1  0.4518290000000  0.4376660000000  0.5454680000000 1.0
C      1  0.4829140000000  0.4661880000000  0.4254200000000 1.0
C      1  0.5871260000000  0.4397520000000  0.5420160000000 1.0
C      1  0.3960400000000  0.4438250000000  0.4510800000000 1.0
C      1  0.4999090000000  0.5697290000000  0.4661830000000 1.0
C      1  0.5127280000000  0.4389500000000  0.5511300000000 1.0
C      1  0.4608170000000  0.4020020000000  0.4301130000000 1.0
C      1  0.5812590000000  0.5479690000000  0.5859420000000 1.0
C      1  0.4144240000000  0.5648900000000  0.5164770000000 1.0
C      1  0.4751390000000  0.4422640000000  0.4735800000000 1.0
C      1  0.5088910000000  0.4542380000000  0.4267810000000 1.0
C      1  0.5100060000000  0.5373150000000  0.3646200000000 1.0
C      1  0.3675830000000  0.4805820000000  0.5156780000000 1.0
C      1  0.5046510000000  0.4311990000000  0.5964170000000 1.0
C      1  0.5137120000000  0.5463000000000  0.4719780000000 1.0
C      1  0.5652280000000  0.5456430000000  0.4527940000000 1.0
C      1  0.5527740000000  0.4880440000000  0.5330910000000 1.0
C      1  0.4246000000000  0.5441740000000  0.5632200000000 1.0
C      1  0.4148740000000  0.4312810000000  0.4364440000000 1.0
C      1  0.4379720000000  0.4186570000000  0.4313430000000 1.0
C      1  0.4651990000000  0.4595890000000  0.6179270000000 1.0
C      1  0.5368260000000  0.5073820000000  0.4494230000000 1.0
C      1  0.5058660000000  0.6123830000000  0.5193160000000 1.0
C      1  0.4751700000000  0.5305620000000  0.4274520000000 1.0
C      1  0.4415500000000  0.5886050000000  0.5476940000000 1.0
C      1  0.4843840000000  0.4410870000000  0.6139530000000 1.0
C      1  0.4222940000000  0.5662450000000  0.5451030000000 1.0
C      1  0.4759700000000  0.4862510000000  0.4441460000000 1.0
C      1  0.5592780000000  0.4260020000000  0.4548740000000 1.0
C      1  0.5771010000000  0.4535140000000  0.4174260000000 1.0
END
