TITL C-3866671-3735-716 -1.43010468740678e-07 125000 -900.415202988375 0 0 146 (C1) n - 1
REM
REM in /home/nfs/bkarasulu/CARBON/AIRSS/Generating-Clusters/LCBOP/Only-C1/SD-CG/FIRE-CG
REM
REM
REM
REM
REM
REM ./C.cell (11c1c37f851c82e70ff6c80c92926a4b)
REM AIRSS Version 0.9.1 bugfix July 2018 build 013d7b7c2542+ Fri, 06 Jul 2018 19:26:36 +0100
REM compiler GCC version 9.2.1 20190827 (Red Hat 9.2.1-1)
REM options -cpp -mtune=generic -march=x86-64 -g -O0 -fpre-include=/usr/include/finclude/math-vector-fortran.h
REM seed -1397053254 -62713991 1073425868 848198265 -1651104526 906666611 -2146725495 -618357922 -1487408266 -1191930340 382036992 -771476123 1482036700 475024274 -540290859 464595092 -1127313194 -402684471 187505121 -544224895 -184994978 -656134274 -778921192 -176839844 -552972879 995336603 1625354001 -363385174 -170275697 -1581703232 1877714822 -1465500102 1132768934
REM
CELL 1.54180   50.00000   50.00000   50.00000   90.00000   90.00000   90.00000
LATT -1
SFAC C  
C      1  0.3801490000000  0.4872210000000  0.5094200000000 1.0
C      1  0.4611360000000  0.4798930000000  0.4080940000000 1.0
C      1  0.5168280000000  0.4965030000000  0.4907910000000 1.0
C      1  0.4952530000000  0.5680440000000  0.4848280000000 1.0
C      1  0.4653410000000  0.5270850000000  0.5186700000000 1.0
C      1  0.5780710000000  0.5097570000000  0.4278710000000 1.0
C      1  0.5341720000000  0.5257880000000  0.5549500000000 1.0
C      1  0.5572840000000  0.5545760000000  0.4096890000000 1.0
C      1  0.5931710000000  0.4285230000000  0.5293120000000 1.0
C      1  0.5270030000000  0.4081410000000  0.4615700000000 1.0
C      1  0.4723260000000  0.5238290000000  0.4729450000000 1.0
C      1  0.4295760000000  0.5426700000000  0.4743760000000 1.0
C      1  0.5154880000000  0.5242280000000  0.4910490000000 1.0
C      1  0.6143360000000  0.5021620000000  0.5031450000000 1.0
C      1  0.5730970000000  0.4355590000000  0.5462230000000 1.0
C      1  0.4781420000000  0.5001890000000  0.4592650000000 1.0
C      1  0.5480160000000  0.5499270000000  0.4701560000000 1.0
C      1  0.6028020000000  0.5061240000000  0.4761110000000 1.0
C      1  0.3885320000000  0.4729060000000  0.4344280000000 1.0
C      1  0.4646510000000  0.4644070000000  0.4955010000000 1.0
C      1  0.4723850000000  0.6255380000000  0.4937580000000 1.0
C      1  0.5585920000000  0.5156020000000  0.5434240000000 1.0
C      1  0.4974570000000  0.5180250000000  0.3907240000000 1.0
C      1  0.5393150000000  0.5563520000000  0.5880260000000 1.0
C      1  0.5028120000000  0.4600430000000  0.4695160000000 1.0
C      1  0.5225250000000  0.4801200000000  0.4681690000000 1.0
C      1  0.4023110000000  0.5167900000000  0.5445110000000 1.0
C      1  0.4489120000000  0.5242610000000  0.4914090000000 1.0
C      1  0.4450930000000  0.4596410000000  0.4196220000000 1.0
C      1  0.5284070000000  0.5030040000000  0.5732260000000 1.0
C      1  0.4640420000000  0.6149260000000  0.5186510000000 1.0
C      1  0.4759010000000  0.4043040000000  0.5933240000000 1.0
C      1  0.5596030000000  0.4899600000000  0.5066400000000 1.0
C      1  0.5333340000000  0.4462820000000  0.5855890000000 1.0
C      1  0.4664800000000  0.4291720000000  0.5974950000000 1.0
C      1  0.5190450000000  0.3974900000000  0.5098140000000 1.0
C      1  0.4390220000000  0.4104010000000  0.5287570000000 1.0
C      1  0.4203340000000  0.5297310000000  0.5598410000000 1.0
C      1  0.4402830000000  0.5312240000000  0.4209600000000 1.0
C      1  0.4406910000000  0.5439300000000  0.5702500000000 1.0
C      1  0.4256940000000  0.5332980000000  0.4460520000000 1.0
C      1  0.5115870000000  0.5659520000000  0.5903160000000 1.0
C      1  0.4567350000000  0.5890160000000  0.5783730000000 1.0
C      1  0.5622910000000  0.5170100000000  0.4975150000000 1.0
C      1  0.5415520000000  0.4842740000000  0.6155500000000 1.0
C      1  0.5371980000000  0.4901200000000  0.3950670000000 1.0
C      1  0.4491840000000  0.4861990000000  0.5364950000000 1.0
C      1  0.5590650000000  0.5635850000000  0.5670550000000 1.0
C      1  0.4336870000000  0.4438850000000  0.5655640000000 1.0
C      1  0.4807760000000  0.4316940000000  0.5321530000000 1.0
C      1  0.4440310000000  0.5512870000000  0.4009160000000 1.0
C      1  0.4327420000000  0.4974240000000  0.4905040000000 1.0
C      1  0.4576580000000  0.5085450000000  0.4151670000000 1.0
C      1  0.4944120000000  0.5399840000000  0.4798710000000 1.0
C      1  0.4662610000000  0.4074470000000  0.5351950000000 1.0
C      1  0.3838120000000  0.4630670000000  0.4969420000000 1.0
C      1  0.5769830000000  0.5495180000000  0.4681220000000 1.0
C      1  0.3883920000000  0.5126340000000  0.5199840000000 1.0
C      1  0.5854100000000  0.5499900000000  0.5608250000000 1.0
C      1  0.5039230000000  0.4424260000000  0.4912180000000 1.0
C      1  0.4810630000000  0.3999450000000  0.4748500000000 1.0
C      1  0.4227300000000  0.4537390000000  0.5178480000000 1.0
C      1  0.5256890000000  0.4504890000000  0.5568680000000 1.0
C      1  0.5341520000000  0.5956320000000  0.4704840000000 1.0
C      1  0.5406840000000  0.5346310000000  0.4922430000000 1.0
C      1  0.4912220000000  0.5205480000000  0.5324690000000 1.0
C      1  0.4713570000000  0.4829720000000  0.5529940000000 1.0
C      1  0.5509290000000  0.4433200000000  0.4242830000000 1.0
C      1  0.5684980000000  0.4700850000000  0.4895030000000 1.0
C      1  0.4672240000000  0.4160410000000  0.4548100000000 1.0
C      1  0.4974370000000  0.5056460000000  0.4385360000000 1.0
C      1  0.5787870000000  0.5877940000000  0.4421630000000 1.0
C      1  0.4989940000000  0.4390560000000  0.5516440000000 1.0
C      1  0.3865660000000  0.5004270000000  0.4326490000000 1.0
C      1  0.4282070000000  0.4354260000000  0.5390880000000 1.0
C      1  0.5089850000000  0.5930700000000  0.5953250000000 1.0
C      1  0.5497260000000  0.5919910000000  0.4443670000000 1.0
C      1  0.3886030000000  0.5354040000000  0.5030200000000 1.0
C      1  0.4110030000000  0.4661350000000  0.4514690000000 1.0
C      1  0.5844710000000  0.5270330000000  0.4824740000000 1.0
C      1  0.4885430000000  0.4711770000000  0.3994520000000 1.0
C      1  0.5242610000000  0.4810940000000  0.5509140000000 1.0
C      1  0.5305810000000  0.5515430000000  0.4479070000000 1.0
C      1  0.4066980000000  0.5121340000000  0.4492650000000 1.0
C      1  0.5441000000000  0.5926910000000  0.4981460000000 1.0
C      1  0.5255610000000  0.4336510000000  0.4173300000000 1.0
C      1  0.4954490000000  0.4925720000000  0.5415320000000 1.0
C      1  0.4615820000000  0.5611900000000  0.5793950000000 1.0
C      1  0.5088480000000  0.4911490000000  0.3896070000000 1.0
C      1  0.4926650000000  0.5729310000000  0.5129490000000 1.0
C      1  0.5393750000000  0.4584290000000  0.6086170000000 1.0
C      1  0.4767280000000  0.4741670000000  0.4707810000000 1.0
C      1  0.6054440000000  0.5135180000000  0.5274060000000 1.0
C      1  0.4710950000000  0.5877660000000  0.5214680000000 1.0
C      1  0.5552180000000  0.5853210000000  0.5475380000000 1.0
C      1  0.4061240000000  0.4448790000000  0.4957970000000 1.0
C      1  0.5057670000000  0.3824180000000  0.5299130000000 1.0
C      1  0.4962610000000  0.4461540000000  0.4096450000000 1.0
C      1  0.5224510000000  0.4945240000000  0.4441190000000 1.0
C      1  0.5132370000000  0.5385280000000  0.5399110000000 1.0
C      1  0.4413890000000  0.4760400000000  0.5101070000000 1.0
C      1  0.5393080000000  0.5692100000000  0.4272760000000 1.0
C      1  0.5597980000000  0.4964870000000  0.4089760000000 1.0
C      1  0.4318700000000  0.4494320000000  0.4422970000000 1.0
C      1  0.6026440000000  0.5945590000000  0.5526780000000 1.0
C      1  0.6070700000000  0.5685790000000  0.5597640000000 1.0
C      1  0.4855120000000  0.4229970000000  0.4332490000000 1.0
C      1  0.5403310000000  0.4163410000000  0.5159340000000 1.0
C      1  0.5875180000000  0.4197660000000  0.5042190000000 1.0
C      1  0.4223030000000  0.4232920000000  0.4827120000000 1.0
C      1  0.4855890000000  0.5382030000000  0.3749180000000 1.0
C      1  0.5047710000000  0.5920910000000  0.4708820000000 1.0
C      1  0.5091000000000  0.3981040000000  0.4824080000000 1.0
C      1  0.4525280000000  0.6126570000000  0.5664160000000 1.0
C      1  0.4748290000000  0.4976120000000  0.5979150000000 1.0
C      1  0.4175430000000  0.4907090000000  0.4669060000000 1.0
C      1  0.5140730000000  0.4135940000000  0.4370500000000 1.0
C      1  0.4828730000000  0.3870880000000  0.5460830000000 1.0
C      1  0.4866260000000  0.5499970000000  0.5896880000000 1.0
C      1  0.5379920000000  0.5068860000000  0.5995870000000 1.0
C      1  0.5793400000000  0.5400930000000  0.4232800000000 1.0
C      1  0.5493910000000  0.4893320000000  0.5328510000000 1.0
C      1  0.4298000000000  0.4036820000000  0.5024880000000 1.0
C      1  0.5608320000000  0.4182630000000  0.4948320000000 1.0
C      1  0.4402160000000  0.4276880000000  0.4592890000000 1.0
C      1  0.5623960000000  0.4436400000000  0.4503260000000 1.0
C      1  0.4542350000000  0.6256010000000  0.5427390000000 1.0
C      1  0.4813030000000  0.4447980000000  0.5079450000000 1.0
C      1  0.4059680000000  0.5500340000000  0.4884830000000 1.0
C      1  0.4672660000000  0.4765530000000  0.5804320000000 1.0
C      1  0.5774470000000  0.6032440000000  0.5468240000000 1.0
C      1  0.4880280000000  0.6150160000000  0.4741490000000 1.0
C      1  0.5519290000000  0.4220970000000  0.4680250000000 1.0
C      1  0.5872150000000  0.5598860000000  0.4441180000000 1.0
C      1  0.5452170000000  0.4337330000000  0.5394020000000 1.0
C      1  0.5889130000000  0.4924430000000  0.4521830000000 1.0
C      1  0.4630410000000  0.5522850000000  0.3813130000000 1.0
C      1  0.5384750000000  0.5815490000000  0.5247410000000 1.0
C      1  0.5450870000000  0.5337500000000  0.6046550000000 1.0
C      1  0.4822770000000  0.3861950000000  0.5743450000000 1.0
C      1  0.5747680000000  0.4674850000000  0.4616380000000 1.0
C      1  0.4542940000000  0.4510080000000  0.5842630000000 1.0
C      1  0.4853830000000  0.5172350000000  0.4165760000000 1.0
C      1  0.5849520000000  0.5258680000000  0.5447360000000 1.0
C      1  0.4839750000000  0.5230840000000  0.5991250000000 1.0
C      1  0.5149570000000  0.5648870000000  0.5284150000000 1.0
END
