TITL C-3866670-4165-531 91031.8308344601 125000 -1154.55796340846 0 0 193 (C1) n - 1
REM
REM in /home/nfs/bkarasulu/CARBON/AIRSS/Generating-Clusters/LCBOP/Only-C1/SD-CG/FIRE-CG
REM
REM
REM
REM
REM
REM ./C.cell (11c1c37f851c82e70ff6c80c92926a4b)
REM AIRSS Version 0.9.1 bugfix July 2018 build 013d7b7c2542+ Fri, 06 Jul 2018 19:26:36 +0100
REM compiler GCC version 9.2.1 20190827 (Red Hat 9.2.1-1)
REM options -cpp -mtune=generic -march=x86-64 -g -O0 -fpre-include=/usr/include/finclude/math-vector-fortran.h
REM seed -1026967558 1356320236 -1429071525 -971768255 -996489015 -309251750 432828108 -1724878787 -1959967597 1130098866 2018493596 1617219676 -11694059 -191567510 302259659 1704620369 435213389 -1728132185 1210074729 -1703968522 -454212342 -1508761045 336427057 1338924566 1967904957 1892849888 -904912347 2026984611 1677624472 878645033 -1155468969 882094802 1422215232
REM
CELL 1.54180   50.00000   50.00000   50.00000   90.00000   90.00000   90.00000
LATT -1
SFAC C  
C      1  0.4318480000000  0.5730120000000  0.5643530000000 1.0
C      1  0.4946080000000  0.5203320000000  0.4420500000000 1.0
C      1  0.4629710000000  0.5697810000000  0.4933240000000 1.0
C      1  0.5596510000000  0.4989420000000  0.4663290000000 1.0
C      1  0.5077170000000  0.4354880000000  0.5139710000000 1.0
C      1  0.4095890000000  0.5872780000000  0.5388640000000 1.0
C      1  0.5760780000000  0.5944480000000  0.5324910000000 1.0
C      1  0.4429900000000  0.4346920000000  0.5444870000000 1.0
C      1  0.4832990000000  0.3944930000000  0.5745730000000 1.0
C      1  0.5351490000000  0.4706290000000  0.4057820000000 1.0
C      1  0.3185840000000  0.4989700000000  0.5660750000000 1.0
C      1  0.4536080000000  0.5004480000000  0.6141140000000 1.0
C      1  0.4680710000000  0.5443410000000  0.4749220000000 1.0
C      1  0.5448830000000  0.6275480000000  0.4682750000000 1.0
C      1  0.4985760000000  0.6263810000000  0.4604470000000 1.0
C      1  0.5462950000000  0.5594680000000  0.5921590000000 1.0
C      1  0.5081770000000  0.4266390000000  0.4126480000000 1.0
C      1  0.4825390000000  0.5368900000000  0.3965190000000 1.0
C      1  0.5133820000000  0.4338230000000  0.5896740000000 1.0
C      1  0.4168280000000  0.4368350000000  0.5491320000000 1.0
C      1  0.5027790000000  0.4414320000000  0.5641710000000 1.0
C      1  0.6076560000000  0.4521840000000  0.4757210000000 1.0
C      1  0.5363550000000  0.4075970000000  0.4806690000000 1.0
C      1  0.5159770000000  0.4008950000000  0.4233230000000 1.0
C      1  0.6059030000000  0.4450280000000  0.5543120000000 1.0
C      1  0.5205230000000  0.3951090000000  0.5242940000000 1.0
C      1  0.5331640000000  0.4358520000000  0.4700120000000 1.0
C      1  0.4579140000000  0.5961100000000  0.4747630000000 1.0
C      1  0.5667960000000  0.5764770000000  0.5813350000000 1.0
C      1  0.4678310000000  0.5346690000000  0.5590330000000 1.0
C      1  0.5100340000000  0.6302750000000  0.5557790000000 1.0
C      1  0.4452700000000  0.5209730000000  0.4458200000000 1.0
C      1  0.5829900000000  0.4676130000000  0.4317340000000 1.0
C      1  0.5072790000000  0.4750730000000  0.4889550000000 1.0
C      1  0.4695700000000  0.5724320000000  0.6053600000000 1.0
C      1  0.4234590000000  0.4183890000000  0.4615840000000 1.0
C      1  0.4880980000000  0.5847700000000  0.4325080000000 1.0
C      1  0.5551970000000  0.4772590000000  0.4254360000000 1.0
C      1  0.5252810000000  0.6287360000000  0.4483120000000 1.0
C      1  0.4617680000000  0.4905570000000  0.4785390000000 1.0
C      1  0.5484370000000  0.4539830000000  0.4874760000000 1.0
C      1  0.5057170000000  0.4500070000000  0.4710260000000 1.0
C      1  0.5002980000000  0.4075750000000  0.5923870000000 1.0
C      1  0.4111620000000  0.5419110000000  0.4153290000000 1.0
C      1  0.6016820000000  0.4642760000000  0.5762700000000 1.0
C      1  0.5150210000000  0.4986690000000  0.4778500000000 1.0
C      1  0.4616680000000  0.4420000000000  0.4875530000000 1.0
C      1  0.5797460000000  0.4209890000000  0.4551100000000 1.0
C      1  0.5138480000000  0.5589790000000  0.4761660000000 1.0
C      1  0.5222290000000  0.4852160000000  0.5320650000000 1.0
C      1  0.4663730000000  0.4777090000000  0.4526120000000 1.0
C      1  0.5435810000000  0.4952670000000  0.4439210000000 1.0
C      1  0.5339500000000  0.4517770000000  0.6027880000000 1.0
C      1  0.5691370000000  0.5436840000000  0.4379010000000 1.0
C      1  0.4250630000000  0.5247240000000  0.4694290000000 1.0
C      1  0.4296150000000  0.4951600000000  0.5213950000000 1.0
C      1  0.6091990000000  0.5422660000000  0.5390310000000 1.0
C      1  0.4436910000000  0.5058050000000  0.4189510000000 1.0
C      1  0.4849040000000  0.5260170000000  0.5113140000000 1.0
C      1  0.4706130000000  0.5347450000000  0.4485250000000 1.0
C      1  0.5285740000000  0.5179550000000  0.4959990000000 1.0
C      1  0.6032170000000  0.5225250000000  0.4722390000000 1.0
C      1  0.5397030000000  0.4820100000000  0.6108630000000 1.0
C      1  0.3360780000000  0.4968970000000  0.5468580000000 1.0
C      1  0.4275960000000  0.5589170000000  0.3975310000000 1.0
C      1  0.4676010000000  0.4852490000000  0.5704540000000 1.0
C      1  0.5069910000000  0.4187770000000  0.5366730000000 1.0
C      1  0.4641610000000  0.4178430000000  0.4358000000000 1.0
C      1  0.4898900000000  0.4318630000000  0.4895380000000 1.0
C      1  0.4648020000000  0.4512170000000  0.5406720000000 1.0
C      1  0.5288880000000  0.5235400000000  0.4043110000000 1.0
C      1  0.5500350000000  0.5312890000000  0.5332070000000 1.0
C      1  0.4348680000000  0.4210380000000  0.4348610000000 1.0
C      1  0.5987830000000  0.5117330000000  0.4211750000000 1.0
C      1  0.4073230000000  0.4292460000000  0.3894240000000 1.0
C      1  0.3556740000000  0.4949820000000  0.5291340000000 1.0
C      1  0.5990190000000  0.4363360000000  0.4994030000000 1.0
C      1  0.4041440000000  0.4377530000000  0.4690840000000 1.0
C      1  0.3964640000000  0.5707940000000  0.5172370000000 1.0
C      1  0.5916330000000  0.4478520000000  0.4512640000000 1.0
C      1  0.4148860000000  0.5130900000000  0.4129910000000 1.0
C      1  0.4995000000000  0.4776940000000  0.5163250000000 1.0
C      1  0.5048740000000  0.6347110000000  0.4883270000000 1.0
C      1  0.4299780000000  0.5442240000000  0.5306180000000 1.0
C      1  0.3903380000000  0.3708970000000  0.5164280000000 1.0
C      1  0.5757730000000  0.5897390000000  0.5593980000000 1.0
C      1  0.4388630000000  0.5611330000000  0.5072340000000 1.0
C      1  0.5699960000000  0.4864090000000  0.6074600000000 1.0
C      1  0.4725170000000  0.4636610000000  0.4089320000000 1.0
C      1  0.5759390000000  0.5149110000000  0.6010220000000 1.0
C      1  0.5389740000000  0.4618150000000  0.5365170000000 1.0
C      1  0.4134140000000  0.5680080000000  0.4925690000000 1.0
C      1  0.4525430000000  0.4776820000000  0.4273650000000 1.0
C      1  0.4680640000000  0.3810840000000  0.5534980000000 1.0
C      1  0.5800060000000  0.5195970000000  0.4006030000000 1.0
C      1  0.5174300000000  0.4937690000000  0.3994240000000 1.0
C      1  0.5556070000000  0.5622420000000  0.4546870000000 1.0
C      1  0.4809260000000  0.4358950000000  0.4177300000000 1.0
C      1  0.6036680000000  0.5412480000000  0.5658940000000 1.0
C      1  0.4678660000000  0.4017570000000  0.4622720000000 1.0
C      1  0.5466490000000  0.4987850000000  0.5650390000000 1.0
C      1  0.6137580000000  0.5185520000000  0.5237000000000 1.0
C      1  0.4722720000000  0.5473140000000  0.6143960000000 1.0
C      1  0.5503880000000  0.3992210000000  0.5248810000000 1.0
C      1  0.4418310000000  0.4013540000000  0.4775750000000 1.0
C      1  0.5028830000000  0.5840750000000  0.4808990000000 1.0
C      1  0.6217930000000  0.4977700000000  0.5428050000000 1.0
C      1  0.3899940000000  0.4763350000000  0.4418020000000 1.0
C      1  0.4511870000000  0.5947150000000  0.5648440000000 1.0
C      1  0.4465470000000  0.6167160000000  0.4908200000000 1.0
C      1  0.5587590000000  0.4162900000000  0.5462140000000 1.0
C      1  0.3934060000000  0.5208560000000  0.5083930000000 1.0
C      1  0.3794160000000  0.4761780000000  0.4891950000000 1.0
C      1  0.4658780000000  0.5874730000000  0.4150190000000 1.0
C      1  0.6283230000000  0.4738040000000  0.4135930000000 1.0
C      1  0.5272620000000  0.5604390000000  0.4512450000000 1.0
C      1  0.4143640000000  0.3789810000000  0.5103880000000 1.0
C      1  0.5341820000000  0.4485470000000  0.5119030000000 1.0
C      1  0.3961960000000  0.4939920000000  0.4225250000000 1.0
C      1  0.4394720000000  0.3906470000000  0.5047380000000 1.0
C      1  0.4387090000000  0.5821140000000  0.4110890000000 1.0
C      1  0.4201970000000  0.4243470000000  0.4115440000000 1.0
C      1  0.5513180000000  0.5319670000000  0.6044780000000 1.0
C      1  0.5599460000000  0.4035030000000  0.4974710000000 1.0
C      1  0.5313120000000  0.5105670000000  0.6137490000000 1.0
C      1  0.5081630000000  0.5447560000000  0.4069290000000 1.0
C      1  0.4582200000000  0.3900510000000  0.5273620000000 1.0
C      1  0.5344390000000  0.5096440000000  0.5237640000000 1.0
C      1  0.5564860000000  0.5320240000000  0.4122900000000 1.0
C      1  0.4686830000000  0.5181610000000  0.4889420000000 1.0
C      1  0.4078010000000  0.5595700000000  0.4403520000000 1.0
C      1  0.5580070000000  0.5825850000000  0.5101880000000 1.0
C      1  0.4689130000000  0.5120230000000  0.3997530000000 1.0
C      1  0.6045180000000  0.4841390000000  0.4219970000000 1.0
C      1  0.4403320000000  0.6097270000000  0.5424900000000 1.0
C      1  0.5323410000000  0.6249820000000  0.4946680000000 1.0
C      1  0.4858160000000  0.5988430000000  0.4596490000000 1.0
C      1  0.4199490000000  0.5118030000000  0.4963990000000 1.0
C      1  0.5644710000000  0.5752580000000  0.4798000000000 1.0
C      1  0.6463660000000  0.4859600000000  0.5426140000000 1.0
C      1  0.5015460000000  0.5860070000000  0.5724610000000 1.0
C      1  0.5838810000000  0.4873170000000  0.5019800000000 1.0
C      1  0.4486090000000  0.4825950000000  0.5937410000000 1.0
C      1  0.3905800000000  0.4627820000000  0.4667570000000 1.0
C      1  0.4424780000000  0.5482980000000  0.5563370000000 1.0
C      1  0.5626390000000  0.4114610000000  0.4336510000000 1.0
C      1  0.5964280000000  0.4488640000000  0.5268750000000 1.0
C      1  0.4735250000000  0.4681000000000  0.5201650000000 1.0
C      1  0.5098570000000  0.5651380000000  0.4281350000000 1.0
C      1  0.4732440000000  0.5203140000000  0.6071170000000 1.0
C      1  0.5401090000000  0.3934670000000  0.4341140000000 1.0
C      1  0.4579700000000  0.4685260000000  0.4966470000000 1.0
C      1  0.5726940000000  0.4899160000000  0.5504540000000 1.0
C      1  0.4890720000000  0.4609180000000  0.4504430000000 1.0
C      1  0.5535610000000  0.5219580000000  0.4813770000000 1.0
C      1  0.4709850000000  0.5206070000000  0.5348030000000 1.0
C      1  0.5153480000000  0.5137310000000  0.5698740000000 1.0
C      1  0.6005860000000  0.4928900000000  0.5649680000000 1.0
C      1  0.4115480000000  0.5514930000000  0.4676440000000 1.0
C      1  0.5817530000000  0.4744360000000  0.5266250000000 1.0
C      1  0.5316270000000  0.4422960000000  0.4048460000000 1.0
C      1  0.4838750000000  0.5117300000000  0.5793480000000 1.0
C      1  0.5522620000000  0.4421560000000  0.5524240000000 1.0
C      1  0.4045840000000  0.4813110000000  0.5297080000000 1.0
C      1  0.4875330000000  0.4879650000000  0.3981220000000 1.0
C      1  0.5337040000000  0.6014430000000  0.5109740000000 1.0
C      1  0.5136060000000  0.3933190000000  0.4935210000000 1.0
C      1  0.5068200000000  0.6035000000000  0.5508970000000 1.0
C      1  0.5086410000000  0.5934580000000  0.5245350000000 1.0
C      1  0.4900270000000  0.4031590000000  0.4804870000000 1.0
C      1  0.5621180000000  0.4415310000000  0.6013040000000 1.0
C      1  0.4438650000000  0.6207630000000  0.5175040000000 1.0
C      1  0.4198840000000  0.5851430000000  0.4329400000000 1.0
C      1  0.3807230000000  0.4935140000000  0.5141620000000 1.0
C      1  0.5203370000000  0.5644940000000  0.5787020000000 1.0
C      1  0.4807370000000  0.4589220000000  0.5631060000000 1.0
C      1  0.5567190000000  0.4282620000000  0.4104590000000 1.0
C      1  0.5827880000000  0.4616400000000  0.5979990000000 1.0
C      1  0.3998430000000  0.5426480000000  0.5264010000000 1.0
C      1  0.5164300000000  0.5041850000000  0.4500410000000 1.0
C      1  0.5827380000000  0.4151530000000  0.4854300000000 1.0
C      1  0.4888910000000  0.5813050000000  0.5064400000000 1.0
C      1  0.5654400000000  0.4769290000000  0.4829110000000 1.0
C      1  0.5938590000000  0.5280950000000  0.4454220000000 1.0
C      1  0.4616480000000  0.3547090000000  0.5593960000000 1.0
C      1  0.4013620000000  0.4581060000000  0.5446420000000 1.0
C      1  0.4741850000000  0.5876380000000  0.5818230000000 1.0
C      1  0.6015530000000  0.5102760000000  0.4986110000000 1.0
C      1  0.5529410000000  0.5557430000000  0.5230710000000 1.0
C      1  0.5960790000000  0.5182290000000  0.5810260000000 1.0
C      1  0.4519710000000  0.4991560000000  0.5393510000000 1.0
C      1  0.5086570000000  0.5393030000000  0.4971960000000 1.0
C      1  0.5163600000000  0.5410250000000  0.5635680000000 1.0
END
