TITL C-3866672-3872-381 -11.5563153235081 125000 -946.079139506157 0 0 155 (C1) n - 1
REM
REM in /home/nfs/bkarasulu/CARBON/AIRSS/Generating-Clusters/LCBOP/Only-C1/SD-CG/FIRE-CG
REM
REM
REM
REM
REM
REM ./C.cell (11c1c37f851c82e70ff6c80c92926a4b)
REM AIRSS Version 0.9.1 bugfix July 2018 build 013d7b7c2542+ Fri, 06 Jul 2018 19:26:36 +0100
REM compiler GCC version 9.2.1 20190827 (Red Hat 9.2.1-1)
REM options -cpp -mtune=generic -march=x86-64 -g -O0 -fpre-include=/usr/include/finclude/math-vector-fortran.h
REM seed 634583197 203234263 -1304668597 -1203231835 -879079258 -940205712 602014570 1633233188 1609588443 1582035181 1886602758 1666421871 -1956534219 1029915224 -1329601064 -2061287426 -1000716013 -142775739 819825454 985645769 1317017519 -581206691 -1977073379 -100785620 42762992 -597656844 -186240665 1563755734 -1122397109 562715120 -1181635039 545173328 -1186693111
REM
CELL 1.54180   50.00000   50.00000   50.00000   90.00000   90.00000   90.00000
LATT -1
SFAC C  
C      1  0.5929230000000  0.4673700000000  0.3989780000000 1.0
C      1  0.5971100000000  0.4407330000000  0.4956930000000 1.0
C      1  0.5624170000000  0.5177530000000  0.4080550000000 1.0
C      1  0.4819500000000  0.4679580000000  0.4634530000000 1.0
C      1  0.5180080000000  0.3884800000000  0.5066230000000 1.0
C      1  0.4651030000000  0.4935430000000  0.4682690000000 1.0
C      1  0.5573680000000  0.4816420000000  0.4712410000000 1.0
C      1  0.3939730000000  0.5153640000000  0.5152460000000 1.0
C      1  0.4352370000000  0.6051810000000  0.4654350000000 1.0
C      1  0.5211310000000  0.5417370000000  0.4496400000000 1.0
C      1  0.5152420000000  0.5029970000000  0.3910050000000 1.0
C      1  0.5592670000000  0.5583910000000  0.5729420000000 1.0
C      1  0.4842670000000  0.5536870000000  0.5920510000000 1.0
C      1  0.4468910000000  0.5981430000000  0.5417820000000 1.0
C      1  0.5549440000000  0.4430620000000  0.5178720000000 1.0
C      1  0.6244690000000  0.5042990000000  0.4973420000000 1.0
C      1  0.5812560000000  0.4972000000000  0.4751500000000 1.0
C      1  0.5347580000000  0.3935680000000  0.5551310000000 1.0
C      1  0.5144240000000  0.4622610000000  0.5956440000000 1.0
C      1  0.5528590000000  0.4382160000000  0.5808050000000 1.0
C      1  0.4314000000000  0.5563470000000  0.5650440000000 1.0
C      1  0.4860880000000  0.5798640000000  0.4825190000000 1.0
C      1  0.4596010000000  0.4731370000000  0.3748340000000 1.0
C      1  0.5311490000000  0.5383520000000  0.4971340000000 1.0
C      1  0.5094390000000  0.4727080000000  0.4728970000000 1.0
C      1  0.4736580000000  0.5891410000000  0.4366720000000 1.0
C      1  0.4846840000000  0.3955450000000  0.4432010000000 1.0
C      1  0.6475050000000  0.5164620000000  0.4964770000000 1.0
C      1  0.4187890000000  0.5107060000000  0.5594330000000 1.0
C      1  0.5056140000000  0.6087880000000  0.5161560000000 1.0
C      1  0.4740540000000  0.5778430000000  0.5811090000000 1.0
C      1  0.4380530000000  0.5569940000000  0.4768720000000 1.0
C      1  0.4860900000000  0.5164070000000  0.4273780000000 1.0
C      1  0.4753410000000  0.4278990000000  0.5511090000000 1.0
C      1  0.4173330000000  0.5535820000000  0.4963780000000 1.0
C      1  0.5303650000000  0.4932200000000  0.4708750000000 1.0
C      1  0.4218530000000  0.4818750000000  0.4295500000000 1.0
C      1  0.4444860000000  0.5925860000000  0.4411330000000 1.0
C      1  0.5228910000000  0.4382730000000  0.3678930000000 1.0
C      1  0.4991340000000  0.4419930000000  0.5378880000000 1.0
C      1  0.4099260000000  0.4360470000000  0.4156600000000 1.0
C      1  0.5620710000000  0.5792850000000  0.4534320000000 1.0
C      1  0.5478540000000  0.4907840000000  0.5784940000000 1.0
C      1  0.4637190000000  0.5044320000000  0.4405820000000 1.0
C      1  0.5299470000000  0.5142170000000  0.5840990000000 1.0
C      1  0.4034910000000  0.5258100000000  0.5400740000000 1.0
C      1  0.5857250000000  0.5698540000000  0.5305310000000 1.0
C      1  0.5755880000000  0.4604290000000  0.5295090000000 1.0
C      1  0.5624290000000  0.5717460000000  0.5470390000000 1.0
C      1  0.5793900000000  0.6142030000000  0.4153800000000 1.0
C      1  0.4251530000000  0.5500860000000  0.4515190000000 1.0
C      1  0.4065110000000  0.5290220000000  0.4551460000000 1.0
C      1  0.5061730000000  0.3745670000000  0.5912370000000 1.0
C      1  0.4897730000000  0.5022260000000  0.4022930000000 1.0
C      1  0.5843400000000  0.5049280000000  0.5497220000000 1.0
C      1  0.5016520000000  0.5067600000000  0.5854890000000 1.0
C      1  0.4095830000000  0.5020940000000  0.4467790000000 1.0
C      1  0.5377640000000  0.4993260000000  0.5319650000000 1.0
C      1  0.5876290000000  0.6306320000000  0.3968900000000 1.0
C      1  0.5403780000000  0.5624290000000  0.4469790000000 1.0
C      1  0.4607560000000  0.4636220000000  0.5170070000000 1.0
C      1  0.5227410000000  0.4369250000000  0.3939260000000 1.0
C      1  0.4987240000000  0.4784660000000  0.5781220000000 1.0
C      1  0.4720820000000  0.4389630000000  0.4644310000000 1.0
C      1  0.5905410000000  0.5669420000000  0.6163250000000 1.0
C      1  0.4723120000000  0.4197870000000  0.4433550000000 1.0
C      1  0.4122240000000  0.4890600000000  0.4718160000000 1.0
C      1  0.5026760000000  0.3694300000000  0.6169900000000 1.0
C      1  0.3923100000000  0.4630850000000  0.5269390000000 1.0
C      1  0.5102600000000  0.3815250000000  0.5646710000000 1.0
C      1  0.4910640000000  0.3852290000000  0.5171070000000 1.0
C      1  0.4712580000000  0.3994810000000  0.5023880000000 1.0
C      1  0.4323710000000  0.4871170000000  0.5524360000000 1.0
C      1  0.5240750000000  0.5448660000000  0.5447550000000 1.0
C      1  0.6019200000000  0.5245970000000  0.5460010000000 1.0
C      1  0.4885320000000  0.5951930000000  0.4591590000000 1.0
C      1  0.4649360000000  0.6195730000000  0.5387870000000 1.0
C      1  0.5867950000000  0.5148010000000  0.4538220000000 1.0
C      1  0.4004910000000  0.5314830000000  0.4910330000000 1.0
C      1  0.6042180000000  0.5500710000000  0.5381350000000 1.0
C      1  0.4945980000000  0.5473760000000  0.5433060000000 1.0
C      1  0.4413480000000  0.4627100000000  0.4969910000000 1.0
C      1  0.6063980000000  0.5702140000000  0.6367580000000 1.0
C      1  0.5746010000000  0.5634410000000  0.5954600000000 1.0
C      1  0.4801220000000  0.5635860000000  0.4235200000000 1.0
C      1  0.4162730000000  0.5687140000000  0.5196280000000 1.0
C      1  0.5581700000000  0.4951020000000  0.5520010000000 1.0
C      1  0.4301760000000  0.5933570000000  0.5187770000000 1.0
C      1  0.4905840000000  0.3774630000000  0.5443490000000 1.0
C      1  0.5340540000000  0.5254890000000  0.5230270000000 1.0
C      1  0.4652890000000  0.4871340000000  0.3974400000000 1.0
C      1  0.5408380000000  0.5098710000000  0.3944630000000 1.0
C      1  0.5035220000000  0.6161250000000  0.5648010000000 1.0
C      1  0.5789140000000  0.5205490000000  0.4288800000000 1.0
C      1  0.4153060000000  0.4535800000000  0.4370370000000 1.0
C      1  0.5069780000000  0.5852750000000  0.5005190000000 1.0
C      1  0.4501610000000  0.5783870000000  0.5639310000000 1.0
C      1  0.4121860000000  0.5537280000000  0.5430540000000 1.0
C      1  0.5376190000000  0.5698370000000  0.5328500000000 1.0
C      1  0.4993000000000  0.3645540000000  0.6423760000000 1.0
C      1  0.4322450000000  0.6058710000000  0.4926660000000 1.0
C      1  0.5382250000000  0.3891830000000  0.5268350000000 1.0
C      1  0.5129080000000  0.4862290000000  0.5298580000000 1.0
C      1  0.4537300000000  0.5563370000000  0.4130990000000 1.0
C      1  0.4332840000000  0.5670330000000  0.4305600000000 1.0
C      1  0.5628230000000  0.4534500000000  0.4672950000000 1.0
C      1  0.4483560000000  0.4249530000000  0.5482420000000 1.0
C      1  0.6036750000000  0.4733900000000  0.3760040000000 1.0
C      1  0.5371290000000  0.5393580000000  0.5717870000000 1.0
C      1  0.4735500000000  0.5364870000000  0.4996300000000 1.0
C      1  0.4811490000000  0.5255570000000  0.5922070000000 1.0
C      1  0.4208050000000  0.4432180000000  0.4927070000000 1.0
C      1  0.4478710000000  0.4893130000000  0.4206780000000 1.0
C      1  0.5746970000000  0.4432070000000  0.4432680000000 1.0
C      1  0.4058660000000  0.4024360000000  0.5491450000000 1.0
C      1  0.5268200000000  0.5235320000000  0.4721840000000 1.0
C      1  0.5803590000000  0.4163430000000  0.4414070000000 1.0
C      1  0.5821690000000  0.4596260000000  0.4219450000000 1.0
C      1  0.4719760000000  0.5063930000000  0.5332930000000 1.0
C      1  0.4923940000000  0.4973310000000  0.5131290000000 1.0
C      1  0.4087560000000  0.4403130000000  0.5193630000000 1.0
C      1  0.5282730000000  0.5673420000000  0.5052340000000 1.0
C      1  0.4870850000000  0.4458310000000  0.5092490000000 1.0
C      1  0.4066420000000  0.4199710000000  0.3954150000000 1.0
C      1  0.5184990000000  0.3982520000000  0.4800670000000 1.0
C      1  0.5422350000000  0.4635350000000  0.5884920000000 1.0
C      1  0.4807440000000  0.5102090000000  0.4889510000000 1.0
C      1  0.5021660000000  0.4695760000000  0.5507280000000 1.0
C      1  0.5039670000000  0.3849250000000  0.4592270000000 1.0
C      1  0.5710300000000  0.5974450000000  0.4341190000000 1.0
C      1  0.5297800000000  0.4368670000000  0.5301030000000 1.0
C      1  0.4212280000000  0.4228520000000  0.5388830000000 1.0
C      1  0.4139770000000  0.4418920000000  0.4642780000000 1.0
C      1  0.4554790000000  0.4837100000000  0.5370010000000 1.0
C      1  0.5239120000000  0.4354070000000  0.4203560000000 1.0
C      1  0.5260050000000  0.4313100000000  0.4465110000000 1.0
C      1  0.5843370000000  0.5782940000000  0.5035940000000 1.0
C      1  0.5751830000000  0.5786220000000  0.4784440000000 1.0
C      1  0.4332330000000  0.5292830000000  0.5764990000000 1.0
C      1  0.4914990000000  0.6000260000000  0.5827850000000 1.0
C      1  0.4739200000000  0.5348720000000  0.5290050000000 1.0
C      1  0.3871000000000  0.4871990000000  0.5123310000000 1.0
C      1  0.5219410000000  0.4261140000000  0.4742740000000 1.0
C      1  0.4656670000000  0.5591060000000  0.4850680000000 1.0
C      1  0.6006200000000  0.4898020000000  0.4954540000000 1.0
C      1  0.3883860000000  0.4821700000000  0.4845810000000 1.0
C      1  0.5676610000000  0.4375450000000  0.4911790000000 1.0
C      1  0.4538090000000  0.5189060000000  0.5924470000000 1.0
C      1  0.4723200000000  0.4256560000000  0.4912880000000 1.0
C      1  0.5976190000000  0.4657920000000  0.5109600000000 1.0
C      1  0.4931180000000  0.6194810000000  0.5388190000000 1.0
C      1  0.5124770000000  0.4493150000000  0.4897890000000 1.0
C      1  0.4970190000000  0.5418630000000  0.4333110000000 1.0
C      1  0.5484030000000  0.4136040000000  0.5702380000000 1.0
C      1  0.4389430000000  0.4847780000000  0.4799210000000 1.0
END
